CHEMBL461374
     RDKit          3D

  0  0  0  0  0  0  0  0  0  0999 V3000
M  V30 BEGIN CTAB
M  V30 COUNTS 55 57 0 0 0
M  V30 BEGIN ATOM
M  V30 1 C -0.838511 -1.297747 6.439875 0
M  V30 2 O -0.421733 -2.225157 5.484501 0
M  V30 3 C 0.526165 -1.992744 4.503382 0
M  V30 4 C 1.192909 -0.812019 4.343048 0
M  V30 5 C 2.126127 -0.619153 3.358165 0
M  V30 6 C 2.445836 -1.611351 2.467164 0
M  V30 7 C 3.323479 -1.704700 1.311412 0
M  V30 8 C 3.433944 -0.832603 0.290195 0
M  V30 9 C 2.576019 0.444876 0.250798 0
M  V30 10 C 2.923886 1.008336 -1.097471 0
M  V30 11 C 4.161880 1.856466 -0.944698 0
M  V30 12 O 3.798677 3.006511 -0.239144 0
M  V30 13 C 1.895950 1.759440 -1.838499 0
M  V30 14 O 0.667212 1.128630 -1.926289 0
M  V30 15 C -0.237113 1.134414 -0.844609 0
M  V30 16 O -0.164875 1.683974 0.291165 0
M  V30 17 C -1.443786 0.338168 -1.164457 0
M  V30 18 C -1.731614 -0.267235 -2.382293 0
M  V30 19 C -2.865720 -1.030901 -2.544003 0
M  V30 20 C -3.744412 -1.209328 -1.486768 0
M  V30 21 N -4.895220 -1.997519 -1.659742 0
M  V30 22 C -5.834176 -2.254629 -0.599473 0
M  V30 23 C -5.173330 -2.598813 -2.976447 0
M  V30 24 C -3.524378 -0.638506 -0.247580 0
M  V30 25 C -2.368532 0.116387 -0.152444 0
M  V30 26 O 3.302511 -0.191617 -1.822737 0
M  V30 27 C 4.230602 -0.839865 -0.950091 0
M  V30 28 O 5.386097 -1.380020 -0.828205 0
M  V30 29 C 1.756256 -2.823605 2.638617 0
M  V30 30 C 0.800338 -3.053295 3.632416 0
M  V30 31 H -0.111391 -0.482589 6.603738 0
M  V30 32 H -1.772783 -0.809581 6.031442 0
M  V30 33 H -1.143985 -1.761182 7.400536 0
M  V30 34 H 1.006338 0.024185 5.000529 0
M  V30 35 H 2.690116 0.276649 3.194469 0
M  V30 36 H 3.989840 -2.568897 1.229141 0
M  V30 37 H 2.827541 1.122807 1.057305 0
M  V30 38 H 1.582559 0.030033 0.372983 0
M  V30 39 H 4.913020 1.297532 -0.318089 0
M  V30 40 H 4.648138 2.092924 -1.916170 0
M  V30 41 H 3.960583 2.862959 0.728217 0
M  V30 42 H 1.763759 2.808234 -1.439070 0
M  V30 43 H 2.276654 1.924976 -2.883368 0
M  V30 44 H -1.003631 -0.084821 -3.165921 0
M  V30 45 H -3.019207 -1.468976 -3.518180 0
M  V30 46 H -5.246036 -2.555210 0.301285 0
M  V30 47 H -6.470673 -3.146899 -0.853467 0
M  V30 48 H -6.485767 -1.429668 -0.330380 0
M  V30 49 H -6.054694 -3.252531 -2.960248 0
M  V30 50 H -5.217807 -1.802505 -3.724452 0
M  V30 51 H -4.303369 -3.254945 -3.224805 0
M  V30 52 H -4.165184 -0.739277 0.601767 0
M  V30 53 H -2.185972 0.572001 0.826613 0
M  V30 54 H 1.886907 -3.710328 2.028354 0
M  V30 55 H 0.275636 -3.982223 3.759232 0
M  V30 END ATOM
M  V30 BEGIN BOND
M  V30 1 1 1 2
M  V30 2 1 2 3
M  V30 3 2 3 4
M  V30 4 1 4 5
M  V30 5 2 5 6
M  V30 6 1 6 7
M  V30 7 2 7 8
M  V30 8 1 8 9
M  V30 9 1 9 10
M  V30 10 1 10 11
M  V30 11 1 11 12
M  V30 12 1 10 13
M  V30 13 1 13 14
M  V30 14 1 14 15
M  V30 15 2 15 16
M  V30 16 1 15 17
M  V30 17 2 17 18
M  V30 18 1 18 19
M  V30 19 2 19 20
M  V30 20 1 20 21
M  V30 21 1 21 22
M  V30 22 1 21 23
M  V30 23 1 20 24
M  V30 24 2 24 25
M  V30 25 1 10 26
M  V30 26 1 26 27
M  V30 27 2 27 28
M  V30 28 1 6 29
M  V30 29 2 29 30
M  V30 30 1 30 3
M  V30 31 1 27 8
M  V30 32 1 25 17
M  V30 33 1 1 31
M  V30 34 1 1 32
M  V30 35 1 1 33
M  V30 36 1 4 34
M  V30 37 1 5 35
M  V30 38 1 7 36
M  V30 39 1 9 37
M  V30 40 1 9 38
M  V30 41 1 11 39
M  V30 42 1 11 40
M  V30 43 1 12 41
M  V30 44 1 13 42
M  V30 45 1 13 43
M  V30 46 1 18 44
M  V30 47 1 19 45
M  V30 48 1 22 46
M  V30 49 1 22 47
M  V30 50 1 22 48
M  V30 51 1 23 49
M  V30 52 1 23 50
M  V30 53 1 23 51
M  V30 54 1 24 52
M  V30 55 1 25 53
M  V30 56 1 29 54
M  V30 57 1 30 55
M  V30 END BOND
M  V30 END CTAB
M  END
>  <Dataset>  (1) 
ChEMBL_Kinases

>  <Ligand_Instance>  (1) 
nan

>  <PDB_ID>  (1) 
nan

>  <Standardized_SMILES>  (1) 
COc1ccc(/C=C2\CC(CO)(COC(=O)c3ccc(N(C)C)cc3)OC2=O)cc1

>  <Name>  (1) 
nan

>  <Pocket>  (1) 
nan

>  <ATP_Site>  (1) 
nan

>  <Peripheral>  (1) 
nan

>  <Num_H_Atoms_ProtBoundConf>  (1) 
nan

>  <Num_Resolved_Atoms>  (1) 
nan

>  <Num_Not_Resolved_Atoms>  (1) 
nan

$$$$
CHEMBL4586184
     RDKit          3D

  0  0  0  0  0  0  0  0  0  0999 V3000
M  V30 BEGIN CTAB
M  V30 COUNTS 57 61 0 0 0
M  V30 BEGIN ATOM
M  V30 1 C 7.795091 -4.397644 1.639965 0
M  V30 2 C 6.753062 -3.310636 1.611568 0
M  V30 3 O 6.674048 -2.391360 0.776241 0
M  V30 4 N 5.756650 -3.318359 2.626520 0
M  V30 5 C 4.834636 -2.243900 2.488748 0
M  V30 6 C 4.889138 -0.953685 2.968395 0
M  V30 7 C 3.871355 -0.051031 2.734291 0
M  V30 8 C 2.752552 -0.405374 2.007050 0
M  V30 9 C 1.650714 0.511551 1.727922 0
M  V30 10 C 1.645103 1.818545 2.164650 0
M  V30 11 C 0.558167 2.631212 1.855036 0
M  V30 12 C -0.494648 2.127739 1.121314 0
M  V30 13 N -1.650124 2.640660 0.678251 0
M  V30 14 C -2.347427 1.717123 -0.003348 0
M  V30 15 C -3.637207 2.006213 -0.590746 0
M  V30 16 C -4.431505 1.142427 -1.299385 0
M  V30 17 C -5.643052 1.565388 -1.797395 0
M  V30 18 C -6.159920 2.823570 -1.648957 0
M  V30 19 N -5.363378 3.655228 -0.949944 0
M  V30 20 C -4.177637 3.262655 -0.455388 0
M  V30 21 N -3.499502 4.288772 0.246357 0
M  V30 22 N -1.609165 0.610207 0.017719 0
M  V30 23 C -1.892270 -0.636129 -0.546256 0
M  V30 24 C -1.567731 -1.109798 -1.820910 0
M  V30 25 C -1.928384 -2.387066 -2.190704 0
M  V30 26 C -2.606576 -3.257752 -1.369706 0
M  V30 27 C -2.997512 -4.623259 -1.753204 0
M  V30 28 N -4.313029 -4.687230 -2.375071 0
M  V30 29 C -2.915204 -2.760395 -0.111005 0
M  V30 30 C -2.584883 -1.476070 0.341247 0
M  V30 31 C -0.466089 0.818928 0.696297 0
M  V30 32 N 0.600774 0.064927 1.014477 0
M  V30 33 C 2.711134 -1.701369 1.532344 0
M  V30 34 C 3.711482 -2.629376 1.748072 0
M  V30 35 H 8.570567 -4.226641 0.878945 0
M  V30 36 H 8.197956 -4.503878 2.678159 0
M  V30 37 H 7.324925 -5.371247 1.385295 0
M  V30 38 H 5.697989 -4.037726 3.401983 0
M  V30 39 H 5.788289 -0.749440 3.525370 0
M  V30 40 H 3.973069 0.945303 3.136362 0
M  V30 41 H 2.460279 2.227810 2.739038 0
M  V30 42 H 0.497303 3.679381 2.174762 0
M  V30 43 H -4.106203 0.142168 -1.462343 0
M  V30 44 H -6.221684 0.836966 -2.346511 0
M  V30 45 H -7.118101 3.098217 -2.062406 0
M  V30 46 H -3.646917 5.311649 0.138224 0
M  V30 47 H -2.971295 4.984893 0.788836 0
M  V30 48 H -1.036171 -0.399619 -2.436713 0
M  V30 49 H -1.660383 -2.703149 -3.169500 0
M  V30 50 H -2.253312 -5.099657 -2.444221 0
M  V30 51 H -3.035326 -5.312941 -0.873475 0
M  V30 52 H -5.025539 -4.883249 -1.624407 0
M  V30 53 H -4.323679 -5.536145 -2.984066 0
M  V30 54 H -3.454114 -3.445641 0.549751 0
M  V30 55 H -2.881787 -1.202893 1.348228 0
M  V30 56 H 1.820813 -1.990216 0.952191 0
M  V30 57 H 3.546671 -3.622410 1.313140 0
M  V30 END ATOM
M  V30 BEGIN BOND
M  V30 1 1 1 2
M  V30 2 2 2 3
M  V30 3 1 2 4
M  V30 4 1 4 5
M  V30 5 2 5 6
M  V30 6 1 6 7
M  V30 7 2 7 8
M  V30 8 1 8 9
M  V30 9 2 9 10
M  V30 10 1 10 11
M  V30 11 2 11 12
M  V30 12 1 12 13
M  V30 13 2 13 14
M  V30 14 1 14 15
M  V30 15 2 15 16
M  V30 16 1 16 17
M  V30 17 2 17 18
M  V30 18 1 18 19
M  V30 19 2 19 20
M  V30 20 1 20 21
M  V30 21 1 14 22
M  V30 22 1 22 23
M  V30 23 2 23 24
M  V30 24 1 24 25
M  V30 25 2 25 26
M  V30 26 1 26 27
M  V30 27 1 27 28
M  V30 28 1 26 29
M  V30 29 2 29 30
M  V30 30 1 22 31
M  V30 31 2 31 32
M  V30 32 1 8 33
M  V30 33 2 33 34
M  V30 34 1 34 5
M  V30 35 1 32 9
M  V30 36 1 31 12
M  V30 37 1 20 15
M  V30 38 1 30 23
M  V30 39 1 1 35
M  V30 40 1 1 36
M  V30 41 1 1 37
M  V30 42 1 4 38
M  V30 43 1 6 39
M  V30 44 1 7 40
M  V30 45 1 10 41
M  V30 46 1 11 42
M  V30 47 1 16 43
M  V30 48 1 17 44
M  V30 49 1 18 45
M  V30 50 1 21 46
M  V30 51 1 21 47
M  V30 52 1 24 48
M  V30 53 1 25 49
M  V30 54 1 27 50
M  V30 55 1 27 51
M  V30 56 1 28 52
M  V30 57 1 28 53
M  V30 58 1 29 54
M  V30 59 1 30 55
M  V30 60 1 33 56
M  V30 61 1 34 57
M  V30 END BOND
M  V30 END CTAB
M  END
>  <Dataset>  (2) 
ChEMBL_Kinases

>  <Ligand_Instance>  (2) 
nan

>  <PDB_ID>  (2) 
nan

>  <Standardized_SMILES>  (2) 
CC(=O)Nc1ccc(-c2ccc3nc(-c4cccnc4N)n(-c4ccc(CN)cc4)c3n2)cc1

>  <Name>  (2) 
nan

>  <Pocket>  (2) 
nan

>  <ATP_Site>  (2) 
nan

>  <Peripheral>  (2) 
nan

>  <Num_H_Atoms_ProtBoundConf>  (2) 
nan

>  <Num_Resolved_Atoms>  (2) 
nan

>  <Num_Not_Resolved_Atoms>  (2) 
nan

$$$$
CHEMBL4587599
     RDKit          3D

  0  0  0  0  0  0  0  0  0  0999 V3000
M  V30 BEGIN CTAB
M  V30 COUNTS 79 83 0 0 0
M  V30 BEGIN ATOM
M  V30 1 C 1.741324 -2.650304 3.283377 0
M  V30 2 C 2.783010 -1.638078 3.571395 0
M  V30 3 C 4.002978 -1.645193 2.709918 0 CFG=2
M  V30 4 C 4.866983 -0.514895 3.246299 0
M  V30 5 O 6.011198 -0.527656 3.812629 0
M  V30 6 N 4.332085 0.819697 3.108468 0
M  V30 7 C 4.600243 1.947399 4.006949 0
M  V30 8 C 3.467560 1.123648 2.016645 0
M  V30 9 C 2.927244 2.353248 1.832572 0
M  V30 10 N 2.117954 2.512092 0.759197 0
M  V30 11 C 1.853878 1.506202 -0.093211 0
M  V30 12 N 0.977080 1.666301 -1.230286 0
M  V30 13 C -0.408342 1.257597 -1.308476 0
M  V30 14 C -0.788707 0.604073 -0.126953 0
M  V30 15 C -2.070069 0.117117 -0.007660 0
M  V30 16 C -2.992080 0.254462 -1.019469 0
M  V30 17 C -4.366947 -0.223729 -1.036189 0
M  V30 18 O -5.218064 -0.045442 -1.945394 0
M  V30 19 N -4.786887 -0.971150 0.096479 0
M  V30 20 C -6.057711 -1.581720 0.394768 0
M  V30 21 C -5.953202 -3.092758 0.479774 0
M  V30 22 C -5.868277 -3.346341 1.972079 0
M  V30 23 C -6.860193 -2.332171 2.490899 0
M  V30 24 C -6.676422 -1.110335 1.655934 0
M  V30 25 C -2.571624 0.901739 -2.154051 0
M  V30 26 C -1.316043 1.419366 -2.362567 0
M  V30 27 O -0.716556 2.073056 -3.373804 0
M  V30 28 C -1.148003 2.476268 -4.624031 0
M  V30 29 C -1.579247 1.414845 -5.572097 0
M  V30 30 O -1.983513 1.913560 -6.795633 0
M  V30 31 C -3.052669 2.771419 -6.768026 0
M  V30 32 N 2.390191 0.287744 0.090204 0
M  V30 33 C 3.217472 0.047172 1.151439 0
M  V30 34 N 3.779181 -1.276021 1.329400 0
M  V30 35 C 4.041174 -2.054505 0.145103 0
M  V30 36 C 5.442337 -2.537863 0.025067 0
M  V30 37 C 5.390484 -4.039633 0.163231 0
M  V30 38 C 3.975468 -4.396838 0.496469 0
M  V30 39 C 3.166021 -3.259890 -0.031122 0
M  V30 40 H 1.183199 -2.869066 4.244152 0
M  V30 41 H 0.937378 -2.282346 2.584621 0
M  V30 42 H 2.085984 -3.626181 2.910248 0
M  V30 43 H 3.108900 -1.730148 4.639441 0
M  V30 44 H 2.260244 -0.635032 3.556925 0
M  V30 45 H 4.533509 -2.595690 2.805126 0
M  V30 46 H 3.690058 2.190980 4.566538 0
M  V30 47 H 5.427851 1.659982 4.686700 0
M  V30 48 H 4.997468 2.815929 3.413165 0
M  V30 49 H 3.132113 3.166549 2.509350 0
M  V30 50 H 1.293733 2.110988 -2.123938 0
M  V30 51 H -0.159284 0.437850 0.727203 0
M  V30 52 H -2.402485 -0.387477 0.872888 0
M  V30 53 H -4.242307 -1.228537 0.949908 0
M  V30 54 H -6.746370 -1.373104 -0.447089 0
M  V30 55 H -5.091581 -3.441036 -0.090719 0
M  V30 56 H -6.853824 -3.617797 0.106609 0
M  V30 57 H -6.132940 -4.386207 2.231132 0
M  V30 58 H -4.872292 -3.080939 2.383665 0
M  V30 59 H -6.622350 -2.173588 3.563662 0
M  V30 60 H -7.913625 -2.702623 2.443381 0
M  V30 61 H -7.677959 -0.656312 1.498160 0
M  V30 62 H -6.078309 -0.377267 2.228046 0
M  V30 63 H -3.232582 1.058968 -2.985349 0
M  V30 64 H -2.028126 3.169049 -4.435142 0
M  V30 65 H -0.390543 3.119325 -5.155887 0
M  V30 66 H -0.763511 0.655138 -5.704496 0
M  V30 67 H -2.458626 0.869871 -5.165211 0
M  V30 68 H -3.336629 3.126017 -7.800866 0
M  V30 69 H -3.958423 2.197774 -6.422400 0
M  V30 70 H -2.954202 3.650685 -6.107765 0
M  V30 71 H 3.860859 -1.431236 -0.787631 0
M  V30 72 H 5.895622 -2.342146 -0.969272 0
M  V30 73 H 6.143792 -2.071446 0.747382 0
M  V30 74 H 6.114489 -4.401532 0.914729 0
M  V30 75 H 5.630413 -4.578319 -0.789450 0
M  V30 76 H 3.860154 -4.521270 1.581245 0
M  V30 77 H 3.633520 -5.323227 -0.020200 0
M  V30 78 H 2.189787 -3.152223 0.488439 0
M  V30 79 H 2.988039 -3.443120 -1.132827 0
M  V30 END ATOM
M  V30 BEGIN BOND
M  V30 1 1 1 2
M  V30 2 1 2 3
M  V30 3 1 3 4
M  V30 4 2 4 5
M  V30 5 1 4 6
M  V30 6 1 6 7
M  V30 7 1 6 8
M  V30 8 2 8 9
M  V30 9 1 9 10
M  V30 10 2 10 11
M  V30 11 1 11 12
M  V30 12 1 12 13
M  V30 13 2 13 14
M  V30 14 1 14 15
M  V30 15 2 15 16
M  V30 16 1 16 17
M  V30 17 2 17 18
M  V30 18 1 17 19
M  V30 19 1 19 20
M  V30 20 1 20 21
M  V30 21 1 21 22
M  V30 22 1 22 23
M  V30 23 1 23 24
M  V30 24 1 16 25
M  V30 25 2 25 26
M  V30 26 1 26 27
M  V30 27 1 27 28
M  V30 28 1 28 29
M  V30 29 1 29 30
M  V30 30 1 30 31
M  V30 31 1 11 32
M  V30 32 2 32 33
M  V30 33 1 33 34
M  V30 34 1 34 35
M  V30 35 1 35 36
M  V30 36 1 36 37
M  V30 37 1 37 38
M  V30 38 1 38 39
M  V30 39 1 34 3
M  V30 40 1 39 35
M  V30 41 1 33 8
M  V30 42 1 26 13
M  V30 43 1 24 20
M  V30 44 1 1 40
M  V30 45 1 1 41
M  V30 46 1 1 42
M  V30 47 1 2 43
M  V30 48 1 2 44
M  V30 49 1 3 45 CFG=3
M  V30 50 1 7 46
M  V30 51 1 7 47
M  V30 52 1 7 48
M  V30 53 1 9 49
M  V30 54 1 12 50
M  V30 55 1 14 51
M  V30 56 1 15 52
M  V30 57 1 19 53
M  V30 58 1 20 54
M  V30 59 1 21 55
M  V30 60 1 21 56
M  V30 61 1 22 57
M  V30 62 1 22 58
M  V30 63 1 23 59
M  V30 64 1 23 60
M  V30 65 1 24 61
M  V30 66 1 24 62
M  V30 67 1 25 63
M  V30 68 1 28 64
M  V30 69 1 28 65
M  V30 70 1 29 66
M  V30 71 1 29 67
M  V30 72 1 31 68
M  V30 73 1 31 69
M  V30 74 1 31 70
M  V30 75 1 35 71
M  V30 76 1 36 72
M  V30 77 1 36 73
M  V30 78 1 37 74
M  V30 79 1 37 75
M  V30 80 1 38 76
M  V30 81 1 38 77
M  V30 82 1 39 78
M  V30 83 1 39 79
M  V30 END BOND
M  V30 END CTAB
M  END
>  <Dataset>  (3) 
ChEMBL_Kinases

>  <Ligand_Instance>  (3) 
nan

>  <PDB_ID>  (3) 
nan

>  <Standardized_SMILES>  (3) 
CC[C@@H]1C(=O)N(C)c2cnc(Nc3ccc(C(=O)NC4CCCC4)cc3OCCOC)nc2N1C1CCCC1

>  <Name>  (3) 
nan

>  <Pocket>  (3) 
nan

>  <ATP_Site>  (3) 
nan

>  <Peripheral>  (3) 
nan

>  <Num_H_Atoms_ProtBoundConf>  (3) 
nan

>  <Num_Resolved_Atoms>  (3) 
nan

>  <Num_Not_Resolved_Atoms>  (3) 
nan

$$$$
CHEMBL4587816
     RDKit          3D

  0  0  0  0  0  0  0  0  0  0999 V3000
M  V30 BEGIN CTAB
M  V30 COUNTS 43 46 0 0 0
M  V30 BEGIN ATOM
M  V30 1 C -2.380072 -2.439548 2.860915 0
M  V30 2 C -1.302427 -1.871410 2.031451 0
M  V30 3 C -1.457510 -0.897432 1.054376 0
M  V30 4 C -0.394008 -0.384001 0.285197 0
M  V30 5 C -0.936335 0.575631 -0.653267 0
M  V30 6 C -1.709908 -0.059787 -1.638172 0
M  V30 7 C -2.321265 0.650231 -2.672741 0
M  V30 8 N -2.161968 1.974758 -2.720962 0
M  V30 9 C -1.435502 2.617474 -1.803961 0
M  V30 10 N -1.089625 3.898522 -1.522648 0
M  V30 11 N -0.356437 3.993530 -0.454226 0
M  V30 12 C -0.140213 2.754648 0.087123 0
M  V30 13 C 0.666691 2.429619 1.270208 0
M  V30 14 F 1.021473 3.670248 1.840478 0
M  V30 15 F 1.937565 1.946841 0.888087 0
M  V30 16 F 0.072154 1.703170 2.234810 0
M  V30 17 C -0.825226 1.938697 -0.779291 0
M  V30 18 C 0.837597 -0.924561 0.572370 0
M  V30 19 C 1.008088 -1.888285 1.535363 0
M  V30 20 C 2.368822 -2.388096 1.744522 0
M  V30 21 C 3.202968 -1.703691 2.774765 0
M  V30 22 N 3.426347 -0.294714 2.520892 0
M  V30 23 C 3.059236 -2.532030 0.382599 0
M  V30 24 O 3.714284 -3.642260 0.899662 0
M  V30 25 C 2.541723 -3.884170 1.651113 0
M  V30 26 C -0.046860 -2.370732 2.271120 0
M  V30 27 H -2.914009 -3.295307 2.384702 0
M  V30 28 H -2.018745 -2.738078 3.846343 0
M  V30 29 H -3.199653 -1.688782 3.050948 0
M  V30 30 H -2.523794 -0.616066 0.998905 0
M  V30 31 H -1.907696 -1.141980 -1.695590 0
M  V30 32 H -2.916839 0.165795 -3.433003 0
M  V30 33 H -1.384154 4.728162 -2.108172 0
M  V30 34 H 1.573871 -0.474783 -0.076920 0
M  V30 35 H 4.229747 -2.170747 2.701413 0
M  V30 36 H 2.799786 -1.815354 3.784924 0
M  V30 37 H 3.568190 -0.101441 1.509125 0
M  V30 38 H 2.625117 0.270142 2.877081 0
M  V30 39 H 3.692013 -1.688056 0.111438 0
M  V30 40 H 2.316271 -2.841804 -0.384053 0
M  V30 41 H 2.810767 -4.372064 2.600623 0
M  V30 42 H 1.757518 -4.343696 1.050917 0
M  V30 43 H 0.166982 -3.127973 3.010329 0
M  V30 END ATOM
M  V30 BEGIN BOND
M  V30 1 1 1 2
M  V30 2 2 2 3
M  V30 3 1 3 4
M  V30 4 1 4 5
M  V30 5 2 5 6
M  V30 6 1 6 7
M  V30 7 2 7 8
M  V30 8 1 8 9
M  V30 9 1 9 10
M  V30 10 1 10 11
M  V30 11 2 11 12
M  V30 12 1 12 13
M  V30 13 1 13 14
M  V30 14 1 13 15
M  V30 15 1 13 16
M  V30 16 1 12 17
M  V30 17 2 4 18
M  V30 18 1 18 19
M  V30 19 1 19 20
M  V30 20 1 20 21
M  V30 21 1 21 22
M  V30 22 1 20 23
M  V30 23 1 23 24
M  V30 24 1 24 25
M  V30 25 2 19 26
M  V30 26 1 26 2
M  V30 27 1 17 5
M  V30 28 1 25 20
M  V30 29 2 17 9
M  V30 30 1 1 27
M  V30 31 1 1 28
M  V30 32 1 1 29
M  V30 33 1 3 30
M  V30 34 1 6 31
M  V30 35 1 7 32
M  V30 36 1 10 33
M  V30 37 1 18 34
M  V30 38 1 21 35
M  V30 39 1 21 36
M  V30 40 1 22 37
M  V30 41 1 22 38
M  V30 42 1 23 39
M  V30 43 1 23 40
M  V30 44 1 25 41
M  V30 45 1 25 42
M  V30 46 1 26 43
M  V30 END BOND
M  V30 END CTAB
M  END
>  <Dataset>  (4) 
ChEMBL_Kinases

>  <Ligand_Instance>  (4) 
nan

>  <PDB_ID>  (4) 
nan

>  <Standardized_SMILES>  (4) 
Cc1cc(-c2ccnc3[nH]nc(C(F)(F)F)c23)cc(C2(CN)COC2)c1

>  <Name>  (4) 
nan

>  <Pocket>  (4) 
nan

>  <ATP_Site>  (4) 
nan

>  <Peripheral>  (4) 
nan

>  <Num_H_Atoms_ProtBoundConf>  (4) 
nan

>  <Num_Resolved_Atoms>  (4) 
nan

>  <Num_Not_Resolved_Atoms>  (4) 
nan

$$$$
CHEMBL4589431
     RDKit          3D

  0  0  0  0  0  0  0  0  0  0999 V3000
M  V30 BEGIN CTAB
M  V30 COUNTS 44 47 0 0 0
M  V30 BEGIN ATOM
M  V30 1 C 4.189704 1.916225 4.929222 0
M  V30 2 S 2.484446 2.322969 4.553082 0 CHG=1 VAL=3
M  V30 3 O 2.394256 4.011602 4.579785 0 CHG=-1 VAL=1
M  V30 4 C 2.143883 1.732124 2.921842 0
M  V30 5 N 2.304471 2.422582 1.764002 0
M  V30 6 C 1.926630 1.591662 0.758886 0
M  V30 7 C 1.960289 1.984510 -0.639509 0
M  V30 8 C 2.709915 1.531113 -1.702284 0
M  V30 9 C 2.542903 2.082584 -2.954149 0
M  V30 10 C 1.636700 3.091143 -3.191118 0
M  V30 11 F 1.546243 3.566782 -4.454348 0
M  V30 12 C 0.864429 3.569905 -2.134688 0
M  V30 13 C 1.040952 3.009708 -0.886267 0
M  V30 14 C 1.525069 0.373505 1.264988 0
M  V30 15 C 1.044462 -0.813092 0.570315 0
M  V30 16 C 1.753731 -1.627118 -0.287821 0
M  V30 17 C 1.178200 -2.726549 -0.888553 0
M  V30 18 N -0.123345 -3.002421 -0.617891 0
M  V30 19 C -0.843851 -2.211232 0.227510 0
M  V30 20 N -2.175334 -2.743179 0.320863 0
M  V30 21 C -2.246082 -3.673421 1.373215 0
M  V30 22 O -1.930936 -4.414573 2.358433 0
M  V30 23 C -3.437396 -4.448855 1.802261 0
M  V30 24 C -4.137846 -5.170650 0.619446 0
M  V30 25 C -4.807904 -4.090598 1.413179 0
M  V30 26 C -0.274105 -1.109311 0.832200 0
M  V30 27 N 1.677868 0.509713 2.611723 0
M  V30 28 H 4.629750 2.702871 5.575666 0
M  V30 29 H 4.189622 0.912038 5.358935 0
M  V30 30 H 4.740354 1.893601 3.953048 0
M  V30 31 H 3.386136 0.744821 -1.402035 0
M  V30 32 H 3.171433 1.661550 -3.711571 0
M  V30 33 H 0.179994 4.352056 -2.380651 0
M  V30 34 H 0.376300 3.475854 -0.156969 0
M  V30 35 H 2.774461 -1.351676 -0.452985 0
M  V30 36 H 1.778441 -3.341581 -1.560221 0
M  V30 37 H -3.089065 -2.626299 -0.174520 0
M  V30 38 H -3.254442 -5.112892 2.650979 0
M  V30 39 H -4.459390 -6.218011 0.779897 0
M  V30 40 H -3.780745 -4.957631 -0.400552 0
M  V30 41 H -5.616199 -4.439995 2.087285 0
M  V30 42 H -5.026000 -3.176973 0.836166 0
M  V30 43 H -0.997214 -0.607642 1.465117 0
M  V30 44 H 1.447096 -0.266037 3.265671 0
M  V30 END ATOM
M  V30 BEGIN BOND
M  V30 1 1 1 2
M  V30 2 1 2 3
M  V30 3 1 2 4
M  V30 4 2 4 5
M  V30 5 1 5 6
M  V30 6 1 6 7
M  V30 7 2 7 8
M  V30 8 1 8 9
M  V30 9 2 9 10
M  V30 10 1 10 11
M  V30 11 1 10 12
M  V30 12 2 12 13
M  V30 13 2 6 14
M  V30 14 1 14 15
M  V30 15 2 15 16
M  V30 16 1 16 17
M  V30 17 2 17 18
M  V30 18 1 18 19
M  V30 19 1 19 20
M  V30 20 1 20 21
M  V30 21 2 21 22
M  V30 22 1 21 23
M  V30 23 1 23 24
M  V30 24 1 24 25
M  V30 25 2 19 26
M  V30 26 1 14 27
M  V30 27 1 27 4
M  V30 28 1 13 7
M  V30 29 1 26 15
M  V30 30 1 25 23
M  V30 31 1 1 28
M  V30 32 1 1 29
M  V30 33 1 1 30
M  V30 34 1 8 31
M  V30 35 1 9 32
M  V30 36 1 12 33
M  V30 37 1 13 34
M  V30 38 1 16 35
M  V30 39 1 17 36
M  V30 40 1 20 37
M  V30 41 1 23 38
M  V30 42 1 24 39
M  V30 43 1 24 40
M  V30 44 1 25 41
M  V30 45 1 25 42
M  V30 46 1 26 43
M  V30 47 1 27 44
M  V30 END BOND
M  V30 END CTAB
M  END
>  <Dataset>  (5) 
ChEMBL_Kinases

>  <Ligand_Instance>  (5) 
nan

>  <PDB_ID>  (5) 
nan

>  <Standardized_SMILES>  (5) 
C[S+]([O-])c1nc(-c2ccc(F)cc2)c(-c2ccnc(NC(=O)C3CC3)c2)[nH]1

>  <Name>  (5) 
nan

>  <Pocket>  (5) 
nan

>  <ATP_Site>  (5) 
nan

>  <Peripheral>  (5) 
nan

>  <Num_H_Atoms_ProtBoundConf>  (5) 
nan

>  <Num_Resolved_Atoms>  (5) 
nan

>  <Num_Not_Resolved_Atoms>  (5) 
nan

$$$$
CHEMBL4589844
     RDKit          3D

  0  0  0  0  0  0  0  0  0  0999 V3000
M  V30 BEGIN CTAB
M  V30 COUNTS 42 45 0 0 0
M  V30 BEGIN ATOM
M  V30 1 N 1.058165 -5.045108 0.924301 0
M  V30 2 C 0.465813 -4.285352 1.978653 0
M  V30 3 C 0.765440 -2.819251 1.968165 0
M  V30 4 C 0.332123 -2.098896 0.769487 0
M  V30 5 C -0.350934 -2.732880 -0.240601 0
M  V30 6 C -0.728383 -2.023282 -1.353329 0
M  V30 7 C -0.402313 -0.661288 -1.424789 0
M  V30 8 C 0.296991 0.017017 -0.404948 0
M  V30 9 C 0.510589 1.377042 -0.792888 0
M  V30 10 C 1.380060 1.469537 -1.891010 0
M  V30 11 C 1.768164 2.698980 -2.432505 0
M  V30 12 N 1.298127 3.835906 -1.891082 0
M  V30 13 C 0.463204 3.780860 -0.839756 0
M  V30 14 N -0.186808 4.682739 -0.100307 0
M  V30 15 N -0.921867 4.096184 0.826734 0
M  V30 16 C -0.798755 2.739488 0.755073 0
M  V30 17 C -1.434019 1.704329 1.623051 0
M  V30 18 F -2.138033 0.758571 0.941784 0
M  V30 19 F -0.641159 1.295620 2.635129 0
M  V30 20 F -2.468461 2.442377 2.278270 0
M  V30 21 C 0.069936 2.580489 -0.292063 0
M  V30 22 C 0.640483 -0.764353 0.677749 0
M  V30 23 C 0.313411 -2.189505 3.271120 0
M  V30 24 C 1.725979 -1.789044 3.637250 0
M  V30 25 C 2.186767 -2.537179 2.399710 0
M  V30 26 H 2.061247 -5.210178 1.011734 0
M  V30 27 H 0.495475 -5.818180 0.547517 0
M  V30 28 H 0.895704 -4.687120 2.933844 0
M  V30 29 H -0.618336 -4.461983 2.056562 0
M  V30 30 H -0.607314 -3.785979 -0.190166 0
M  V30 31 H -1.263414 -2.546801 -2.130892 0
M  V30 32 H -0.766243 -0.228221 -2.366516 0
M  V30 33 H 1.827297 0.634941 -2.417767 0
M  V30 34 H 2.436796 2.785523 -3.276903 0
M  V30 35 H -0.134280 5.729313 -0.223369 0
M  V30 36 H 1.180634 -0.161638 1.397783 0
M  V30 37 H -0.091751 -2.919744 4.015154 0
M  V30 38 H -0.363635 -1.321560 3.147316 0
M  V30 39 H 1.949246 -0.705322 3.601062 0
M  V30 40 H 2.110193 -2.279660 4.558433 0
M  V30 41 H 2.792362 -3.458094 2.643267 0
M  V30 42 H 2.756392 -1.890842 1.701460 0
M  V30 END ATOM
M  V30 BEGIN BOND
M  V30 1 1 1 2
M  V30 2 1 2 3
M  V30 3 1 3 4
M  V30 4 2 4 5
M  V30 5 1 5 6
M  V30 6 2 6 7
M  V30 7 1 7 8
M  V30 8 1 8 9
M  V30 9 2 9 10
M  V30 10 1 10 11
M  V30 11 2 11 12
M  V30 12 1 12 13
M  V30 13 1 13 14
M  V30 14 1 14 15
M  V30 15 2 15 16
M  V30 16 1 16 17
M  V30 17 1 17 18
M  V30 18 1 17 19
M  V30 19 1 17 20
M  V30 20 1 16 21
M  V30 21 2 8 22
M  V30 22 1 3 23
M  V30 23 1 23 24
M  V30 24 1 24 25
M  V30 25 1 25 3
M  V30 26 1 22 4
M  V30 27 1 21 9
M  V30 28 2 21 13
M  V30 29 1 1 26
M  V30 30 1 1 27
M  V30 31 1 2 28
M  V30 32 1 2 29
M  V30 33 1 5 30
M  V30 34 1 6 31
M  V30 35 1 7 32
M  V30 36 1 10 33
M  V30 37 1 11 34
M  V30 38 1 14 35
M  V30 39 1 22 36
M  V30 40 1 23 37
M  V30 41 1 23 38
M  V30 42 1 24 39
M  V30 43 1 24 40
M  V30 44 1 25 41
M  V30 45 1 25 42
M  V30 END BOND
M  V30 END CTAB
M  END
>  <Dataset>  (6) 
ChEMBL_Kinases

>  <Ligand_Instance>  (6) 
nan

>  <PDB_ID>  (6) 
nan

>  <Standardized_SMILES>  (6) 
NCC1(c2cccc(-c3ccnc4[nH]nc(C(F)(F)F)c34)c2)CCC1

>  <Name>  (6) 
nan

>  <Pocket>  (6) 
nan

>  <ATP_Site>  (6) 
nan

>  <Peripheral>  (6) 
nan

>  <Num_H_Atoms_ProtBoundConf>  (6) 
nan

>  <Num_Resolved_Atoms>  (6) 
nan

>  <Num_Not_Resolved_Atoms>  (6) 
nan

$$$$
CHEMBL458997
     RDKit          3D

  0  0  0  0  0  0  0  0  0  0999 V3000
M  V30 BEGIN CTAB
M  V30 COUNTS 58 61 0 0 0
M  V30 BEGIN ATOM
M  V30 1 C 4.390547 -0.684013 4.136513 0
M  V30 2 N 4.903430 0.636102 3.793382 0
M  V30 3 C 4.444217 1.208792 2.579488 0
M  V30 4 O 3.673233 0.331030 2.138222 0
M  V30 5 C 4.926605 2.506723 2.205681 0
M  V30 6 C 5.825494 3.194867 2.974329 0
M  V30 7 C 6.219564 4.425801 2.500653 0
M  V30 8 C 5.799392 5.029032 1.334172 0
M  V30 9 C 4.880597 4.280629 0.588346 0
M  V30 10 C 4.449067 3.021159 1.030583 0
M  V30 11 N 3.529706 2.509734 0.090880 0
M  V30 12 C 2.211530 2.064739 -0.151764 0
M  V30 13 N 1.737266 0.820933 -0.174883 0
M  V30 14 C 0.464954 0.490509 -0.404345 0
M  V30 15 N 0.144067 -0.882807 -0.388644 0
M  V30 16 C -1.107985 -1.509403 -0.606013 0
M  V30 17 C -2.283811 -0.840141 -0.881335 0
M  V30 18 C -3.516169 -1.416442 -1.096978 0
M  V30 19 C -3.618624 -2.786765 -1.039408 0
M  V30 20 N -4.855168 -3.462351 -1.238976 0
M  V30 21 C -6.148533 -2.806138 -1.339197 0
M  V30 22 C -7.038169 -3.557001 -0.338733 0
M  V30 23 O -6.291671 -4.318044 0.557999 0
M  V30 24 C -5.632933 -5.367653 -0.070805 0
M  V30 25 C -4.978083 -4.901354 -1.371865 0
M  V30 26 C -2.476779 -3.505233 -0.768129 0
M  V30 27 C -1.274847 -2.894595 -0.560706 0
M  V30 28 O -0.135427 -3.660303 -0.287628 0
M  V30 29 C -0.229969 -5.069866 -0.226151 0
M  V30 30 N -0.390347 1.489903 -0.626629 0
M  V30 31 C 0.000110 2.764463 -0.621778 0
M  V30 32 C 1.316923 3.086940 -0.383241 0
M  V30 33 Cl 1.603178 4.815741 -0.424150 0
M  V30 34 H 4.525435 -1.362834 3.265630 0
M  V30 35 H 4.850882 -1.102543 5.053264 0
M  V30 36 H 3.300242 -0.604365 4.331552 0
M  V30 37 H 5.584503 1.049245 4.500305 0
M  V30 38 H 6.227245 2.832111 3.902980 0
M  V30 39 H 6.934794 4.974638 3.112509 0
M  V30 40 H 6.170235 5.998549 1.053334 0
M  V30 41 H 4.590282 4.811831 -0.323925 0
M  V30 42 H 3.888480 2.351773 -0.879864 0
M  V30 43 H 0.922248 -1.582168 -0.189403 0
M  V30 44 H -2.289767 0.232152 -0.943054 0
M  V30 45 H -4.386459 -0.791999 -1.310091 0
M  V30 46 H -6.144492 -1.738498 -1.158736 0
M  V30 47 H -6.552586 -3.079606 -2.357811 0
M  V30 48 H -7.725742 -4.259789 -0.834903 0
M  V30 49 H -7.550942 -2.776147 0.258507 0
M  V30 50 H -6.359225 -6.190366 -0.235270 0
M  V30 51 H -4.858181 -5.742850 0.612890 0
M  V30 52 H -5.758064 -5.129303 -2.158421 0
M  V30 53 H -4.043115 -5.427325 -1.578328 0
M  V30 54 H -2.459608 -4.584718 -0.700052 0
M  V30 55 H -0.653175 -5.450015 -1.192472 0
M  V30 56 H -0.934101 -5.405797 0.568332 0
M  V30 57 H 0.743115 -5.543572 -0.017672 0
M  V30 58 H -0.818759 3.468755 -0.820925 0
M  V30 END ATOM
M  V30 BEGIN BOND
M  V30 1 1 1 2
M  V30 2 1 2 3
M  V30 3 2 3 4
M  V30 4 1 3 5
M  V30 5 2 5 6
M  V30 6 1 6 7
M  V30 7 2 7 8
M  V30 8 1 8 9
M  V30 9 2 9 10
M  V30 10 1 10 11
M  V30 11 1 11 12
M  V30 12 2 12 13
M  V30 13 1 13 14
M  V30 14 1 14 15
M  V30 15 1 15 16
M  V30 16 2 16 17
M  V30 17 1 17 18
M  V30 18 2 18 19
M  V30 19 1 19 20
M  V30 20 1 20 21
M  V30 21 1 21 22
M  V30 22 1 22 23
M  V30 23 1 23 24
M  V30 24 1 24 25
M  V30 25 1 19 26
M  V30 26 2 26 27
M  V30 27 1 27 28
M  V30 28 1 28 29
M  V30 29 2 14 30
M  V30 30 1 30 31
M  V30 31 2 31 32
M  V30 32 1 32 33
M  V30 33 1 10 5
M  V30 34 1 32 12
M  V30 35 1 27 16
M  V30 36 1 25 20
M  V30 37 1 1 34
M  V30 38 1 1 35
M  V30 39 1 1 36
M  V30 40 1 2 37
M  V30 41 1 6 38
M  V30 42 1 7 39
M  V30 43 1 8 40
M  V30 44 1 9 41
M  V30 45 1 11 42
M  V30 46 1 15 43
M  V30 47 1 17 44
M  V30 48 1 18 45
M  V30 49 1 21 46
M  V30 50 1 21 47
M  V30 51 1 22 48
M  V30 52 1 22 49
M  V30 53 1 24 50
M  V30 54 1 24 51
M  V30 55 1 25 52
M  V30 56 1 25 53
M  V30 57 1 26 54
M  V30 58 1 29 55
M  V30 59 1 29 56
M  V30 60 1 29 57
M  V30 61 1 31 58
M  V30 END BOND
M  V30 END CTAB
M  END
>  <Dataset>  (7) 
ChEMBL_Kinases

>  <Ligand_Instance>  (7) 
nan

>  <PDB_ID>  (7) 
nan

>  <Standardized_SMILES>  (7) 
CNC(=O)c1ccccc1Nc1nc(Nc2ccc(N3CCOCC3)cc2OC)ncc1Cl

>  <Name>  (7) 
nan

>  <Pocket>  (7) 
nan

>  <ATP_Site>  (7) 
nan

>  <Peripheral>  (7) 
nan

>  <Num_H_Atoms_ProtBoundConf>  (7) 
nan

>  <Num_Resolved_Atoms>  (7) 
nan

>  <Num_Not_Resolved_Atoms>  (7) 
nan

$$$$
CHEMBL4590477
     RDKit          3D

  0  0  0  0  0  0  0  0  0  0999 V3000
M  V30 BEGIN CTAB
M  V30 COUNTS 45 48 0 0 0
M  V30 BEGIN ATOM
M  V30 1 C -1.681178 -1.041424 4.060663 0
M  V30 2 C -0.836960 -0.924824 2.846218 0
M  V30 3 C -0.639482 0.361985 2.417321 0
M  V30 4 C 0.108140 0.696650 1.315027 0
M  V30 5 C 0.480300 1.901375 0.602629 0
M  V30 6 C 1.844919 2.167619 0.792033 0
M  V30 7 C 2.454969 3.294809 0.231166 0
M  V30 8 N 1.699151 4.129538 -0.503520 0
M  V30 9 C 0.389022 3.911647 -0.710866 0
M  V30 10 N -0.626099 4.486096 -1.381092 0
M  V30 11 N -1.745531 3.795294 -1.253365 0
M  V30 12 C -1.547602 2.693302 -0.473328 0
M  V30 13 C -2.563699 1.700545 -0.075359 0
M  V30 14 F -3.730135 2.022041 -0.800880 0
M  V30 15 F -2.996609 1.946415 1.248630 0
M  V30 16 F -2.269884 0.409569 -0.320878 0
M  V30 17 C -0.215262 2.805592 -0.160903 0
M  V30 18 C 0.670341 -0.405727 0.643607 0
M  V30 19 C 0.487007 -1.710802 1.054917 0
M  V30 20 C 1.050271 -2.915579 0.393524 0
M  V30 21 C 2.405171 -3.232554 0.984970 0
M  V30 22 N 2.306957 -3.490358 2.404996 0
M  V30 23 C 0.097871 -4.072262 0.264866 0
M  V30 24 C 0.630138 -4.280852 -1.140200 0
M  V30 25 C 1.152941 -2.852933 -1.110857 0
M  V30 26 C -0.275719 -1.985988 2.170623 0
M  V30 27 H -2.774284 -1.050144 3.812777 0
M  V30 28 H -1.429330 -1.970966 4.636506 0
M  V30 29 H -1.502247 -0.199563 4.734939 0
M  V30 30 H -1.009599 1.301593 2.857736 0
M  V30 31 H 2.564043 1.563544 1.368457 0
M  V30 32 H 3.502602 3.525128 0.360652 0
M  V30 33 H -0.519421 5.385274 -1.938737 0
M  V30 34 H 1.299670 -0.398042 -0.251398 0
M  V30 35 H 2.995166 -2.292874 0.893178 0
M  V30 36 H 2.969346 -4.000426 0.443878 0
M  V30 37 H 2.224698 -2.607403 2.960490 0
M  V30 38 H 3.060516 -4.114826 2.768517 0
M  V30 39 H 0.255166 -4.938443 0.905257 0
M  V30 40 H -0.948423 -3.663125 0.281525 0
M  V30 41 H 1.407580 -5.054094 -1.207601 0
M  V30 42 H -0.153746 -4.459280 -1.898684 0
M  V30 43 H 0.538741 -2.097889 -1.607508 0
M  V30 44 H 2.201618 -2.766289 -1.502696 0
M  V30 45 H -0.502301 -2.944352 2.602918 0
M  V30 END ATOM
M  V30 BEGIN BOND
M  V30 1 1 1 2
M  V30 2 2 2 3
M  V30 3 1 3 4
M  V30 4 1 4 5
M  V30 5 2 5 6
M  V30 6 1 6 7
M  V30 7 2 7 8
M  V30 8 1 8 9
M  V30 9 1 9 10
M  V30 10 1 10 11
M  V30 11 2 11 12
M  V30 12 1 12 13
M  V30 13 1 13 14
M  V30 14 1 13 15
M  V30 15 1 13 16
M  V30 16 1 12 17
M  V30 17 2 4 18
M  V30 18 1 18 19
M  V30 19 1 19 20
M  V30 20 1 20 21
M  V30 21 1 21 22
M  V30 22 1 20 23
M  V30 23 1 23 24
M  V30 24 1 24 25
M  V30 25 2 19 26
M  V30 26 1 26 2
M  V30 27 1 17 5
M  V30 28 1 25 20
M  V30 29 2 17 9
M  V30 30 1 1 27
M  V30 31 1 1 28
M  V30 32 1 1 29
M  V30 33 1 3 30
M  V30 34 1 6 31
M  V30 35 1 7 32
M  V30 36 1 10 33
M  V30 37 1 18 34
M  V30 38 1 21 35
M  V30 39 1 21 36
M  V30 40 1 22 37
M  V30 41 1 22 38
M  V30 42 1 23 39
M  V30 43 1 23 40
M  V30 44 1 24 41
M  V30 45 1 24 42
M  V30 46 1 25 43
M  V30 47 1 25 44
M  V30 48 1 26 45
M  V30 END BOND
M  V30 END CTAB
M  END
>  <Dataset>  (8) 
ChEMBL_Kinases

>  <Ligand_Instance>  (8) 
nan

>  <PDB_ID>  (8) 
nan

>  <Standardized_SMILES>  (8) 
Cc1cc(-c2ccnc3[nH]nc(C(F)(F)F)c23)cc(C2(CN)CCC2)c1

>  <Name>  (8) 
nan

>  <Pocket>  (8) 
nan

>  <ATP_Site>  (8) 
nan

>  <Peripheral>  (8) 
nan

>  <Num_H_Atoms_ProtBoundConf>  (8) 
nan

>  <Num_Resolved_Atoms>  (8) 
nan

>  <Num_Not_Resolved_Atoms>  (8) 
nan

$$$$
CHEMBL2147767
     RDKit          3D

  0  0  0  0  0  0  0  0  0  0999 V3000
M  V30 BEGIN CTAB
M  V30 COUNTS 51 55 0 0 0
M  V30 BEGIN ATOM
M  V30 1 C 1.009020 2.068119 5.634538 0
M  V30 2 O 0.452260 1.671788 4.406486 0
M  V30 3 C 0.460745 0.372743 3.927218 0
M  V30 4 C 1.054985 -0.638088 4.690608 0
M  V30 5 C 1.108298 -1.963593 4.286575 0
M  V30 6 C 0.543105 -2.271075 3.073767 0
M  V30 7 C -0.048808 -1.294334 2.302132 0
M  V30 8 C -0.108060 0.033863 2.697580 0
M  V30 9 C -0.732860 1.145489 1.945892 0
M  V30 10 N 0.232249 1.989767 1.327954 0
M  V30 11 C -0.403134 3.097559 0.593148 0
M  V30 12 C 0.734883 4.094971 0.415345 0
M  V30 13 N 1.698933 3.538609 -0.451337 0
M  V30 14 C 1.902599 2.149008 -0.465679 0
M  V30 15 C 0.996133 1.283909 0.327024 0
M  V30 16 O -0.550188 -1.828482 1.123596 0
M  V30 17 C -0.302345 -3.210780 1.070148 0
M  V30 18 C -0.585730 -4.131335 0.162222 0
M  V30 19 C -1.287552 -3.592544 -0.994865 0
M  V30 20 C -2.251235 -2.609866 -1.051223 0
M  V30 21 N -2.584925 -2.464434 -2.358482 0
M  V30 22 C -1.861560 -3.321082 -3.100473 0
M  V30 23 N -1.856752 -3.527672 -4.443870 0
M  V30 24 C -1.028297 -4.450226 -4.915276 0
M  V30 25 C -0.169483 -5.220779 -4.163357 0
M  V30 26 C -0.165648 -5.018454 -2.791404 0
M  V30 27 C -1.020510 -4.062746 -2.283429 0
M  V30 28 C 0.408271 -3.521912 2.329105 0
M  V30 29 O 0.813040 -4.667533 2.672050 0
M  V30 30 H 1.932295 1.508660 5.916385 0
M  V30 31 H 1.344130 3.132160 5.568204 0
M  V30 32 H 0.271121 1.966776 6.473022 0
M  V30 33 H 1.519819 -0.462540 5.660792 0
M  V30 34 H 1.564136 -2.736573 4.872089 0
M  V30 35 H -1.454142 0.737649 1.203804 0
M  V30 36 H -1.367092 1.764022 2.646602 0
M  V30 37 H -1.263673 3.516493 1.149337 0
M  V30 38 H -0.670147 2.705721 -0.407280 0
M  V30 39 H 0.330558 5.031552 -0.008114 0
M  V30 40 H 1.155220 4.274103 1.444921 0
M  V30 41 H 1.929793 4.063426 -1.297027 0
M  V30 42 H 1.844388 1.815822 -1.545291 0
M  V30 43 H 2.986988 1.964333 -0.211678 0
M  V30 44 H 1.598470 0.447559 0.754682 0
M  V30 45 H 0.254213 0.767229 -0.352193 0
M  V30 46 H -0.304799 -5.163571 0.310288 0
M  V30 47 H -2.586755 -2.126647 -0.142690 0
M  V30 48 H -3.315561 -1.752142 -2.639615 0
M  V30 49 H -0.972551 -4.667968 -5.974734 0
M  V30 50 H 0.509741 -5.975993 -4.538926 0
M  V30 51 H 0.484118 -5.587669 -2.123911 0
M  V30 END ATOM
M  V30 BEGIN BOND
M  V30 1 1 1 2
M  V30 2 1 2 3
M  V30 3 2 3 4
M  V30 4 1 4 5
M  V30 5 2 5 6
M  V30 6 1 6 7
M  V30 7 2 7 8
M  V30 8 1 8 9
M  V30 9 1 9 10
M  V30 10 1 10 11
M  V30 11 1 11 12
M  V30 12 1 12 13
M  V30 13 1 13 14
M  V30 14 1 14 15
M  V30 15 1 7 16
M  V30 16 1 16 17
M  V30 17 2 17 18
M  V30 18 1 18 19
M  V30 19 2 19 20
M  V30 20 1 20 21
M  V30 21 1 21 22
M  V30 22 2 22 23
M  V30 23 1 23 24
M  V30 24 2 24 25
M  V30 25 1 25 26
M  V30 26 2 26 27
M  V30 27 1 17 28
M  V30 28 2 28 29
M  V30 29 1 8 3
M  V30 30 1 15 10
M  V30 31 1 27 19
M  V30 32 1 28 6
M  V30 33 1 27 22
M  V30 34 1 1 30
M  V30 35 1 1 31
M  V30 36 1 1 32
M  V30 37 1 4 33
M  V30 38 1 5 34
M  V30 39 1 9 35
M  V30 40 1 9 36
M  V30 41 1 11 37
M  V30 42 1 11 38
M  V30 43 1 12 39
M  V30 44 1 12 40
M  V30 45 1 13 41
M  V30 46 1 14 42
M  V30 47 1 14 43
M  V30 48 1 15 44
M  V30 49 1 15 45
M  V30 50 1 18 46
M  V30 51 1 20 47
M  V30 52 1 21 48
M  V30 53 1 24 49
M  V30 54 1 25 50
M  V30 55 1 26 51
M  V30 END BOND
M  V30 END CTAB
M  END
>  <Dataset>  (9) 
ChEMBL_Kinases

>  <Ligand_Instance>  (9) 
nan

>  <PDB_ID>  (9) 
nan

>  <Standardized_SMILES>  (9) 
COc1ccc2c(c1CN1CCNCC1)O/C(=C\c1c[nH]c3ncccc13)C2=O

>  <Name>  (9) 
nan

>  <Pocket>  (9) 
nan

>  <ATP_Site>  (9) 
nan

>  <Peripheral>  (9) 
nan

>  <Num_H_Atoms_ProtBoundConf>  (9) 
nan

>  <Num_Resolved_Atoms>  (9) 
nan

>  <Num_Not_Resolved_Atoms>  (9) 
nan

$$$$
CHEMBL4592698
     RDKit          3D

  0  0  0  0  0  0  0  0  0  0999 V3000
M  V30 BEGIN CTAB
M  V30 COUNTS 72 76 0 0 0
M  V30 BEGIN ATOM
M  V30 1 C 6.186996 2.535120 2.112197 0
M  V30 2 C 5.148471 1.962373 1.130219 0
M  V30 3 C 3.878916 1.864722 1.872550 0 CFG=2
M  V30 4 C 3.978592 0.960439 3.068926 0
M  V30 5 O 5.019887 0.326288 3.392485 0
M  V30 6 N 2.844037 0.787356 3.910091 0
M  V30 7 C 2.925457 0.421342 5.310570 0
M  V30 8 C 1.545630 0.993956 3.311875 0
M  V30 9 C 0.441495 0.832315 4.110351 0
M  V30 10 N -0.741367 1.044351 3.479133 0
M  V30 11 C -0.810313 1.383702 2.182511 0
M  V30 12 N -2.162795 1.533283 1.778451 0
M  V30 13 C -2.880264 0.538259 1.048086 0
M  V30 14 C -2.131394 -0.577641 0.663838 0
M  V30 15 C -2.625883 -1.640855 -0.060683 0
M  V30 16 C -3.951304 -1.601940 -0.432344 0
M  V30 17 C -4.621516 -2.649716 -1.204712 0
M  V30 18 O -5.849489 -2.621538 -1.472523 0
M  V30 19 N -3.896975 -3.755113 -1.688238 0
M  V30 20 C -4.248551 -4.910654 -2.444881 0
M  V30 21 C -3.503688 -4.792389 -3.785291 0
M  V30 22 C -2.111962 -5.251934 -3.425896 0
M  V30 23 C -2.348022 -6.410980 -2.514165 0
M  V30 24 C -3.700590 -6.204839 -1.884398 0
M  V30 25 C -4.729135 -0.512520 -0.070769 0
M  V30 26 C -4.216298 0.541407 0.653799 0
M  V30 27 O -4.912865 1.665837 1.058000 0
M  V30 28 C -6.278257 1.736823 0.693799 0
M  V30 29 N 0.299627 1.529795 1.442337 0
M  V30 30 C 1.524101 1.342240 1.968228 0
M  V30 31 N 2.695706 1.500525 1.167330 0
M  V30 32 C 2.669203 1.308301 -0.236325 0
M  V30 33 C 1.326860 0.866243 -0.777314 0
M  V30 34 C 1.611325 0.270647 -2.142303 0
M  V30 35 C 2.984142 -0.333643 -2.006837 0
M  V30 36 C 3.633098 0.347199 -0.826330 0
M  V30 37 H 5.713713 3.275302 2.794724 0
M  V30 38 H 6.720703 1.745695 2.664444 0
M  V30 39 H 6.949308 3.054510 1.505041 0
M  V30 40 H 5.071979 2.690964 0.327739 0
M  V30 41 H 5.594860 0.980308 0.853224 0
M  V30 42 H 3.721962 2.881434 2.343869 0
M  V30 43 H 2.267156 -0.454188 5.545315 0
M  V30 44 H 2.736809 1.277929 5.991432 0
M  V30 45 H 3.966015 0.029316 5.468498 0
M  V30 46 H 0.527218 0.560090 5.150267 0
M  V30 47 H -2.801651 2.361011 1.953070 0
M  V30 48 H -1.079038 -0.656904 0.932590 0
M  V30 49 H -2.021576 -2.467376 -0.331589 0
M  V30 50 H -2.875252 -3.857161 -1.518328 0
M  V30 51 H -5.323930 -4.948318 -2.620378 0
M  V30 52 H -3.927933 -5.518214 -4.509989 0
M  V30 53 H -3.498442 -3.756921 -4.138899 0
M  V30 54 H -1.520018 -5.524108 -4.331220 0
M  V30 55 H -1.515817 -4.481273 -2.896197 0
M  V30 56 H -2.289132 -7.348929 -3.117092 0
M  V30 57 H -1.547959 -6.509718 -1.732144 0
M  V30 58 H -3.675849 -6.208743 -0.775804 0
M  V30 59 H -4.345070 -7.042822 -2.262941 0
M  V30 60 H -5.752405 -0.462281 -0.346535 0
M  V30 61 H -6.477998 1.441950 -0.350046 0
M  V30 62 H -6.723082 2.722120 0.934118 0
M  V30 63 H -6.850867 1.015392 1.343327 0
M  V30 64 H 2.854112 2.306646 -0.717830 0
M  V30 65 H 0.589919 1.651826 -0.897594 0
M  V30 66 H 1.005664 -0.010433 -0.157102 0
M  V30 67 H 0.907895 -0.545535 -2.403942 0
M  V30 68 H 1.538806 1.030159 -2.946836 0
M  V30 69 H 3.508263 -0.139169 -2.965263 0
M  V30 70 H 2.951811 -1.437835 -1.897860 0
M  V30 71 H 3.948798 -0.461291 -0.131091 0
M  V30 72 H 4.540428 0.859677 -1.270110 0
M  V30 END ATOM
M  V30 BEGIN BOND
M  V30 1 1 1 2
M  V30 2 1 2 3
M  V30 3 1 3 4
M  V30 4 2 4 5
M  V30 5 1 4 6
M  V30 6 1 6 7
M  V30 7 1 6 8
M  V30 8 2 8 9
M  V30 9 1 9 10
M  V30 10 2 10 11
M  V30 11 1 11 12
M  V30 12 1 12 13
M  V30 13 2 13 14
M  V30 14 1 14 15
M  V30 15 2 15 16
M  V30 16 1 16 17
M  V30 17 2 17 18
M  V30 18 1 17 19
M  V30 19 1 19 20
M  V30 20 1 20 21
M  V30 21 1 21 22
M  V30 22 1 22 23
M  V30 23 1 23 24
M  V30 24 1 16 25
M  V30 25 2 25 26
M  V30 26 1 26 27
M  V30 27 1 27 28
M  V30 28 1 11 29
M  V30 29 2 29 30
M  V30 30 1 30 31
M  V30 31 1 31 32
M  V30 32 1 32 33
M  V30 33 1 33 34
M  V30 34 1 34 35
M  V30 35 1 35 36
M  V30 36 1 31 3
M  V30 37 1 36 32
M  V30 38 1 30 8
M  V30 39 1 26 13
M  V30 40 1 24 20
M  V30 41 1 1 37
M  V30 42 1 1 38
M  V30 43 1 1 39
M  V30 44 1 2 40
M  V30 45 1 2 41
M  V30 46 1 3 42 CFG=1
M  V30 47 1 7 43
M  V30 48 1 7 44
M  V30 49 1 7 45
M  V30 50 1 9 46
M  V30 51 1 12 47
M  V30 52 1 14 48
M  V30 53 1 15 49
M  V30 54 1 19 50
M  V30 55 1 20 51
M  V30 56 1 21 52
M  V30 57 1 21 53
M  V30 58 1 22 54
M  V30 59 1 22 55
M  V30 60 1 23 56
M  V30 61 1 23 57
M  V30 62 1 24 58
M  V30 63 1 24 59
M  V30 64 1 25 60
M  V30 65 1 28 61
M  V30 66 1 28 62
M  V30 67 1 28 63
M  V30 68 1 32 64
M  V30 69 1 33 65
M  V30 70 1 33 66
M  V30 71 1 34 67
M  V30 72 1 34 68
M  V30 73 1 35 69
M  V30 74 1 35 70
M  V30 75 1 36 71
M  V30 76 1 36 72
M  V30 END BOND
M  V30 END CTAB
M  END
>  <Dataset>  (10) 
ChEMBL_Kinases

>  <Ligand_Instance>  (10) 
nan

>  <PDB_ID>  (10) 
nan

>  <Standardized_SMILES>  (10) 
CC[C@@H]1C(=O)N(C)c2cnc(Nc3ccc(C(=O)NC4CCCC4)cc3OC)nc2N1C1CCCC1

>  <Name>  (10) 
nan

>  <Pocket>  (10) 
nan

>  <ATP_Site>  (10) 
nan

>  <Peripheral>  (10) 
nan

>  <Num_H_Atoms_ProtBoundConf>  (10) 
nan

>  <Num_Resolved_Atoms>  (10) 
nan

>  <Num_Not_Resolved_Atoms>  (10) 
nan

$$$$
CHEMBL214253
     RDKit          3D

  0  0  0  0  0  0  0  0  0  0999 V3000
M  V30 BEGIN CTAB
M  V30 COUNTS 37 41 0 0 0
M  V30 BEGIN ATOM
M  V30 1 O 2.563130 -0.378192 3.721379 0
M  V30 2 C 2.007084 -1.111439 2.866631 0
M  V30 3 N 2.079181 -2.550502 2.787415 0
M  V30 4 C 1.309027 -2.965427 1.680264 0
M  V30 5 O 1.270577 -4.185151 1.476712 0
M  V30 6 C 0.730096 -1.834107 1.026529 0
M  V30 7 C 1.160041 -0.748443 1.749575 0
M  V30 8 C 0.779407 0.529517 1.394028 0
M  V30 9 C 1.136351 1.803448 2.001525 0
M  V30 10 C 2.382292 2.300398 2.320171 0
M  V30 11 C 2.526779 3.535179 2.910360 0
M  V30 12 C 1.452514 4.323336 3.206926 0
M  V30 13 C 0.173332 3.896432 2.918406 0
M  V30 14 C 0.071713 2.654139 2.327881 0
M  V30 15 C -0.055574 0.707922 0.282200 0
M  V30 16 C -0.484844 -0.388236 -0.440803 0
M  V30 17 N -1.286152 -0.492228 -1.543242 0
M  V30 18 C -1.354154 -1.810193 -1.803829 0
M  V30 19 C -2.067916 -2.384572 -2.847454 0
M  V30 20 C -2.072473 -3.751828 -3.028285 0
M  V30 21 C -1.339782 -4.539920 -2.132963 0
M  V30 22 O -1.337596 -5.916489 -2.305836 0
M  V30 23 C -0.658939 -3.895893 -1.125187 0
M  V30 24 C -0.623145 -2.552953 -0.904969 0
M  V30 25 C -0.078192 -1.644211 -0.048247 0
M  V30 26 H 2.649217 -3.081992 3.503132 0
M  V30 27 H 3.205771 1.652682 2.062332 0
M  V30 28 H 3.565031 3.815802 3.113572 0
M  V30 29 H 1.604439 5.288664 3.671009 0
M  V30 30 H -0.682370 4.486923 3.136909 0
M  V30 31 H -0.956746 2.337788 2.108539 0
M  V30 32 H -0.413654 1.672479 -0.081383 0
M  V30 33 H -1.734135 0.304313 -2.050532 0
M  V30 34 H -2.641906 -1.805143 -3.553697 0
M  V30 35 H -2.620606 -4.220318 -3.833219 0
M  V30 36 H -0.530335 -6.445249 -2.631284 0
M  V30 37 H -0.129816 -4.562963 -0.491594 0
M  V30 END ATOM
M  V30 BEGIN BOND
M  V30 1 2 1 2
M  V30 2 1 2 3
M  V30 3 1 3 4
M  V30 4 2 4 5
M  V30 5 1 4 6
M  V30 6 2 6 7
M  V30 7 1 7 8
M  V30 8 1 8 9
M  V30 9 2 9 10
M  V30 10 1 10 11
M  V30 11 2 11 12
M  V30 12 1 12 13
M  V30 13 2 13 14
M  V30 14 2 8 15
M  V30 15 1 15 16
M  V30 16 1 16 17
M  V30 17 1 17 18
M  V30 18 2 18 19
M  V30 19 1 19 20
M  V30 20 2 20 21
M  V30 21 1 21 22
M  V30 22 1 21 23
M  V30 23 2 23 24
M  V30 24 1 24 25
M  V30 25 1 7 2
M  V30 26 1 14 9
M  V30 27 2 25 16
M  V30 28 1 25 6
M  V30 29 1 24 18
M  V30 30 1 3 26
M  V30 31 1 10 27
M  V30 32 1 11 28
M  V30 33 1 12 29
M  V30 34 1 13 30
M  V30 35 1 14 31
M  V30 36 1 15 32
M  V30 37 1 17 33
M  V30 38 1 19 34
M  V30 39 1 20 35
M  V30 40 1 22 36
M  V30 41 1 23 37
M  V30 END BOND
M  V30 END CTAB
M  END
>  <Dataset>  (11) 
ChEMBL_Kinases

>  <Ligand_Instance>  (11) 
nan

>  <PDB_ID>  (11) 
nan

>  <Standardized_SMILES>  (11) 
O=C1NC(=O)c2c1c(-c1ccccc1)cc1[nH]c3ccc(O)cc3c21

>  <Name>  (11) 
nan

>  <Pocket>  (11) 
nan

>  <ATP_Site>  (11) 
nan

>  <Peripheral>  (11) 
nan

>  <Num_H_Atoms_ProtBoundConf>  (11) 
nan

>  <Num_Resolved_Atoms>  (11) 
nan

>  <Num_Not_Resolved_Atoms>  (11) 
nan

$$$$
CHEMBL4593099
     RDKit          3D

  0  0  0  0  0  0  0  0  0  0999 V3000
M  V30 BEGIN CTAB
M  V30 COUNTS 27 30 0 0 0
M  V30 BEGIN ATOM
M  V30 1 O -1.313179 -3.785499 1.570280 0
M  V30 2 N 0.009229 -3.477530 1.818637 0
M  V30 3 C 0.468340 -2.333071 1.484350 0
M  V30 4 C 1.833211 -1.856463 1.676341 0
M  V30 5 C 2.994845 -2.406522 2.227091 0
M  V30 6 C 4.184206 -1.709099 2.280056 0
M  V30 7 C 4.274267 -0.411121 1.779396 0
M  V30 8 C 3.129534 0.168919 1.221266 0
M  V30 9 C 1.966821 -0.572867 1.193801 0
M  V30 10 C 0.645169 -0.175348 0.659720 0
M  V30 11 N 0.226986 0.970748 0.077198 0
M  V30 12 C -1.047206 1.130907 -0.347286 0
M  V30 13 N -1.429820 2.285422 -0.923182 0
M  V30 14 C -2.705726 2.488213 -1.365427 0
M  V30 15 C -3.544726 1.410428 -1.165361 0
M  V30 16 C -3.243274 0.193316 -0.586998 0
M  V30 17 C -1.927545 0.063839 -0.163230 0
M  V30 18 N -1.514898 -1.079212 0.416496 0
M  V30 19 C -0.232123 -1.230518 0.839814 0
M  V30 20 H -1.686426 -3.960926 0.654009 0
M  V30 21 H 2.960643 -3.423539 2.629639 0
M  V30 22 H 5.075184 -2.148505 2.709582 0
M  V30 23 H 5.163786 0.184605 1.788961 0
M  V30 24 H 3.176728 1.174721 0.826932 0
M  V30 25 H -3.068715 3.383733 -1.830816 0
M  V30 26 H -4.580293 1.545434 -1.512308 0
M  V30 27 H -3.969361 -0.574427 -0.480727 0
M  V30 END ATOM
M  V30 BEGIN BOND
M  V30 1 1 1 2
M  V30 2 2 2 3
M  V30 3 1 3 4
M  V30 4 2 4 5
M  V30 5 1 5 6
M  V30 6 2 6 7
M  V30 7 1 7 8
M  V30 8 2 8 9
M  V30 9 1 9 10
M  V30 10 2 10 11
M  V30 11 1 11 12
M  V30 12 2 12 13
M  V30 13 1 13 14
M  V30 14 2 14 15
M  V30 15 1 15 16
M  V30 16 2 16 17
M  V30 17 1 17 18
M  V30 18 2 18 19
M  V30 19 1 19 3
M  V30 20 1 9 4
M  V30 21 1 19 10
M  V30 22 1 17 12
M  V30 23 1 1 20
M  V30 24 1 5 21
M  V30 25 1 6 22
M  V30 26 1 7 23
M  V30 27 1 8 24
M  V30 28 1 14 25
M  V30 29 1 15 26
M  V30 30 1 16 27
M  V30 END BOND
M  V30 END CTAB
M  END
>  <Dataset>  (12) 
ChEMBL_Kinases

>  <Ligand_Instance>  (12) 
nan

>  <PDB_ID>  (12) 
nan

>  <Standardized_SMILES>  (12) 
O/N=C1/c2ccccc2-c2nc3ncccc3nc21

>  <Name>  (12) 
nan

>  <Pocket>  (12) 
nan

>  <ATP_Site>  (12) 
nan

>  <Peripheral>  (12) 
nan

>  <Num_H_Atoms_ProtBoundConf>  (12) 
nan

>  <Num_Resolved_Atoms>  (12) 
nan

>  <Num_Not_Resolved_Atoms>  (12) 
nan

$$$$
CHEMBL4582951
     RDKit          3D

  0  0  0  0  0  0  0  0  0  0999 V3000
M  V30 BEGIN CTAB
M  V30 COUNTS 77 81 0 0 0
M  V30 BEGIN ATOM
M  V30 1 C 2.891933 -7.536522 -2.622971 0
M  V30 2 N 4.151999 -7.586660 -1.918113 0
M  V30 3 C 4.563415 -8.989067 -1.878252 0
M  V30 4 C 4.051943 -7.137686 -0.548496 0
M  V30 5 C 3.770117 -5.694474 -0.454787 0
M  V30 6 C 4.580675 -4.850936 0.159158 0
M  V30 7 C 4.153104 -3.433348 0.164381 0
M  V30 8 O 3.076933 -3.116510 -0.400159 0
M  V30 9 N 4.855158 -2.361117 0.760243 0
M  V30 10 C 4.065161 -1.196036 0.510565 0
M  V30 11 C 4.260574 -0.399250 -0.625114 0
M  V30 12 C 3.403488 0.689099 -0.720608 0
M  V30 13 C 2.431678 0.973334 0.222983 0
M  V30 14 C 1.561863 2.154728 0.019339 0
M  V30 15 O 1.698899 2.902164 -0.966318 0
M  V30 16 N 0.576100 2.351075 1.031892 0
M  V30 17 C -0.363519 3.471433 0.973275 0 CFG=1
M  V30 18 C 0.355343 4.788163 0.971628 0
M  V30 19 C -1.200825 3.251557 -0.261815 0
M  V30 20 C -2.243265 4.310859 -0.451174 0
M  V30 21 C -3.066067 4.569579 0.760894 0
M  V30 22 C -2.406944 4.386097 2.073870 0 CFG=1
M  V30 23 N -3.448704 3.893281 2.996442 0
M  V30 24 C -4.120324 2.643581 2.740876 0
M  V30 25 N -5.065623 2.197375 3.574538 0
M  V30 26 C -5.744797 1.048258 3.428534 0
M  V30 27 C -5.424001 0.286523 2.324788 0
M  V30 28 Cl -6.290824 -1.232532 2.093102 0
M  V30 29 C -4.442965 0.752630 1.462770 0
M  V30 30 C -4.200547 -0.156631 0.337107 0
M  V30 31 C -5.202351 -0.606621 -0.494395 0
M  V30 32 N -4.699869 -1.437166 -1.453954 0
M  V30 33 C -3.373478 -1.535466 -1.257427 0
M  V30 34 C -2.315394 -2.199619 -1.864305 0
M  V30 35 C -1.002766 -2.101490 -1.414840 0
M  V30 36 C -0.746648 -1.302244 -0.310001 0
M  V30 37 C -1.768776 -0.626952 0.320127 0
M  V30 38 C -3.056356 -0.748382 -0.153814 0
M  V30 39 N -3.810663 1.914836 1.681213 0
M  V30 40 C -1.294905 3.416681 2.162640 0
M  V30 41 N 2.327188 0.145141 1.276369 0
M  V30 42 C 3.105354 -0.933022 1.462685 0
M  V30 43 H 3.045776 -8.033022 -3.613360 0
M  V30 44 H 2.111976 -8.144104 -2.091864 0
M  V30 45 H 2.493474 -6.537830 -2.799772 0
M  V30 46 H 4.196802 -9.512504 -2.799549 0
M  V30 47 H 4.175385 -9.522556 -0.986010 0
M  V30 48 H 5.692465 -9.023666 -1.884720 0
M  V30 49 H 5.065695 -7.349379 -0.099988 0
M  V30 50 H 3.253904 -7.712684 -0.033861 0
M  V30 51 H 2.831291 -5.407439 -0.942284 0
M  V30 52 H 5.495502 -5.176996 0.626400 0
M  V30 53 H 5.764734 -2.604910 1.240626 0
M  V30 54 H 5.028944 -0.659154 -1.332615 0
M  V30 55 H 3.533793 1.322918 -1.590554 0
M  V30 56 H 0.503674 1.681449 1.855830 0
M  V30 57 H 0.481021 5.170267 2.005879 0
M  V30 58 H -0.229212 5.577133 0.420228 0
M  V30 59 H 1.358140 4.733863 0.502760 0
M  V30 60 H -1.680120 2.247393 -0.148638 0
M  V30 61 H -0.591063 3.230643 -1.174791 0
M  V30 62 H -2.925486 3.942155 -1.246926 0
M  V30 63 H -1.774919 5.239549 -0.863764 0
M  V30 64 H -4.069465 4.051467 0.709778 0
M  V30 65 H -3.364034 5.661132 0.703641 0
M  V30 66 H -2.065338 5.357950 2.505745 0
M  V30 67 H -3.729811 4.432217 3.857987 0
M  V30 68 H -6.501423 0.752863 4.151181 0
M  V30 69 H -6.266085 -0.397833 -0.483085 0
M  V30 70 H -5.214327 -1.922763 -2.211395 0
M  V30 71 H -2.583099 -2.814258 -2.730705 0
M  V30 72 H -0.259745 -2.678709 -1.987147 0
M  V30 73 H 0.305177 -1.276854 -0.020082 0
M  V30 74 H -1.516266 -0.014773 1.180650 0
M  V30 75 H -1.588935 2.353229 2.300850 0
M  V30 76 H -0.660813 3.698079 3.039508 0
M  V30 77 H 2.952816 -1.540522 2.332846 0
M  V30 END ATOM
M  V30 BEGIN BOND
M  V30 1 1 1 2
M  V30 2 1 2 3
M  V30 3 1 2 4
M  V30 4 1 4 5
M  V30 5 2 5 6
M  V30 6 1 6 7
M  V30 7 2 7 8
M  V30 8 1 7 9
M  V30 9 1 9 10
M  V30 10 2 10 11
M  V30 11 1 11 12
M  V30 12 2 12 13
M  V30 13 1 13 14
M  V30 14 2 14 15
M  V30 15 1 14 16
M  V30 16 1 17 16 CFG=1
M  V30 17 1 17 18
M  V30 18 1 17 19
M  V30 19 1 19 20
M  V30 20 1 20 21
M  V30 21 1 21 22
M  V30 22 1 22 23
M  V30 23 1 23 24
M  V30 24 2 24 25
M  V30 25 1 25 26
M  V30 26 2 26 27
M  V30 27 1 27 28
M  V30 28 1 27 29
M  V30 29 1 29 30
M  V30 30 2 30 31
M  V30 31 1 31 32
M  V30 32 1 32 33
M  V30 33 2 33 34
M  V30 34 1 34 35
M  V30 35 2 35 36
M  V30 36 1 36 37
M  V30 37 2 37 38
M  V30 38 2 29 39
M  V30 39 1 22 40
M  V30 40 1 13 41
M  V30 41 2 41 42
M  V30 42 1 42 10
M  V30 43 1 40 17
M  V30 44 1 39 24
M  V30 45 1 38 30
M  V30 46 1 38 33
M  V30 47 1 1 43
M  V30 48 1 1 44
M  V30 49 1 1 45
M  V30 50 1 3 46
M  V30 51 1 3 47
M  V30 52 1 3 48
M  V30 53 1 4 49
M  V30 54 1 4 50
M  V30 55 1 5 51
M  V30 56 1 6 52
M  V30 57 1 9 53
M  V30 58 1 11 54
M  V30 59 1 12 55
M  V30 60 1 16 56
M  V30 61 1 18 57
M  V30 62 1 18 58
M  V30 63 1 18 59
M  V30 64 1 19 60
M  V30 65 1 19 61
M  V30 66 1 20 62
M  V30 67 1 20 63
M  V30 68 1 21 64
M  V30 69 1 21 65
M  V30 70 1 22 66 CFG=1
M  V30 71 1 23 67
M  V30 72 1 26 68
M  V30 73 1 31 69
M  V30 74 1 32 70
M  V30 75 1 34 71
M  V30 76 1 35 72
M  V30 77 1 36 73
M  V30 78 1 37 74
M  V30 79 1 40 75
M  V30 80 1 40 76
M  V30 81 1 42 77
M  V30 END BOND
M  V30 END CTAB
M  END
>  <Dataset>  (13) 
ChEMBL_Kinases

>  <Ligand_Instance>  (13) 
nan

>  <PDB_ID>  (13) 
nan

>  <Standardized_SMILES>  (13) 
CN(C)C/C=C/C(=O)Nc1ccc(C(=O)N[C@@]2(C)CCC[C@@H](Nc3ncc(Cl)c(-c4c[nH]c5ccccc45)n3)C2)nc1

>  <Name>  (13) 
nan

>  <Pocket>  (13) 
nan

>  <ATP_Site>  (13) 
nan

>  <Peripheral>  (13) 
nan

>  <Num_H_Atoms_ProtBoundConf>  (13) 
nan

>  <Num_Resolved_Atoms>  (13) 
nan

>  <Num_Not_Resolved_Atoms>  (13) 
nan

$$$$
CHEMBL4574111
     RDKit          3D

  0  0  0  0  0  0  0  0  0  0999 V3000
M  V30 BEGIN CTAB
M  V30 COUNTS 59 64 0 0 0
M  V30 BEGIN ATOM
M  V30 1 N 7.524219 -2.691995 0.787444 0
M  V30 2 C 6.092704 -2.625261 0.836004 0
M  V30 3 C 5.394454 -3.763896 1.196792 0
M  V30 4 C 4.010792 -3.694693 1.242323 0
M  V30 5 C 3.416061 -2.492466 0.924385 0
M  V30 6 C 4.083306 -1.341983 0.561659 0
M  V30 7 C 3.334056 -0.129681 0.248067 0
M  V30 8 C 3.962558 1.041268 -0.118562 0
M  V30 9 C 3.159903 2.153342 -0.400685 0
M  V30 10 C 1.805084 1.935887 -0.274135 0
M  V30 11 N 0.846530 2.835289 -0.487564 0
M  V30 12 C -0.388122 2.362732 -0.293172 0
M  V30 13 C -1.572266 3.147066 -0.464055 0
M  V30 14 C -1.405880 4.458579 -0.853958 0
M  V30 15 C -2.469550 5.300473 -1.049183 0
M  V30 16 C -3.779157 4.929787 -0.879577 0
M  V30 17 N -3.939324 3.644065 -0.497475 0
M  V30 18 C -2.885366 2.838356 -0.312316 0
M  V30 19 N -3.296405 1.560052 0.080701 0
M  V30 20 N -0.162197 1.111666 0.056062 0
M  V30 21 C -0.965589 0.016865 0.407813 0
M  V30 22 C -1.368477 -0.865453 -0.611352 0
M  V30 23 C -2.120788 -2.024941 -0.411320 0
M  V30 24 C -2.507068 -2.343014 0.886252 0
M  V30 25 C -3.290375 -3.576494 0.982415 0
M  V30 26 N -4.354378 -3.547742 -0.028196 0
M  V30 27 C -3.762257 -4.029349 2.314827 0
M  V30 28 C -2.768635 -5.191687 2.274367 0
M  V30 29 C -2.434683 -4.832610 0.854896 0
M  V30 30 C -2.129124 -1.500809 1.904723 0
M  V30 31 C -1.386552 -0.358882 1.696165 0
M  V30 32 C 1.140525 0.786947 0.087874 0
M  V30 33 N 1.994515 -0.220388 0.337400 0
M  V30 34 C 5.456548 -1.436429 0.523890 0
M  V30 35 H 8.344364 -2.143534 1.109660 0
M  V30 36 H 8.042103 -3.482320 0.312737 0
M  V30 37 H 5.888470 -4.695236 1.441499 0
M  V30 38 H 3.446198 -4.571806 1.521475 0
M  V30 39 H 2.318879 -2.519043 0.983947 0
M  V30 40 H 5.035737 1.118383 -0.191402 0
M  V30 41 H 3.558806 3.093879 -0.690168 0
M  V30 42 H -0.413156 4.908140 -1.031591 0
M  V30 43 H -2.268639 6.305980 -1.351641 0
M  V30 44 H -4.551717 5.641769 -1.050702 0
M  V30 45 H -3.417501 1.078688 -0.859988 0
M  V30 46 H -3.301564 1.660179 1.140317 0
M  V30 47 H -1.065505 -0.618737 -1.641223 0
M  V30 48 H -2.358387 -2.609763 -1.289873 0
M  V30 49 H -3.911833 -3.876091 -0.913552 0
M  V30 50 H -4.653438 -2.556239 -0.136903 0
M  V30 51 H -4.796597 -4.472439 2.242140 0
M  V30 52 H -3.658684 -3.380451 3.181698 0
M  V30 53 H -3.213227 -6.197767 2.310136 0
M  V30 54 H -1.929296 -5.012480 2.977459 0
M  V30 55 H -2.814785 -5.505357 0.067488 0
M  V30 56 H -1.349405 -4.571341 0.747812 0
M  V30 57 H -2.443089 -1.776811 2.884507 0
M  V30 58 H -1.087499 0.300292 2.470960 0
M  V30 59 H 6.033573 -0.587432 0.252247 0
M  V30 END ATOM
M  V30 BEGIN BOND
M  V30 1 1 1 2
M  V30 2 2 2 3
M  V30 3 1 3 4
M  V30 4 2 4 5
M  V30 5 1 5 6
M  V30 6 1 6 7
M  V30 7 2 7 8
M  V30 8 1 8 9
M  V30 9 2 9 10
M  V30 10 1 10 11
M  V30 11 2 11 12
M  V30 12 1 12 13
M  V30 13 2 13 14
M  V30 14 1 14 15
M  V30 15 2 15 16
M  V30 16 1 16 17
M  V30 17 2 17 18
M  V30 18 1 18 19
M  V30 19 1 12 20
M  V30 20 1 20 21
M  V30 21 2 21 22
M  V30 22 1 22 23
M  V30 23 2 23 24
M  V30 24 1 24 25
M  V30 25 1 25 26
M  V30 26 1 25 27
M  V30 27 1 27 28
M  V30 28 1 28 29
M  V30 29 1 24 30
M  V30 30 2 30 31
M  V30 31 1 20 32
M  V30 32 2 32 33
M  V30 33 2 6 34
M  V30 34 1 34 2
M  V30 35 1 33 7
M  V30 36 1 32 10
M  V30 37 1 18 13
M  V30 38 1 31 21
M  V30 39 1 29 25
M  V30 40 1 1 35
M  V30 41 1 1 36
M  V30 42 1 3 37
M  V30 43 1 4 38
M  V30 44 1 5 39
M  V30 45 1 8 40
M  V30 46 1 9 41
M  V30 47 1 14 42
M  V30 48 1 15 43
M  V30 49 1 16 44
M  V30 50 1 19 45
M  V30 51 1 19 46
M  V30 52 1 22 47
M  V30 53 1 23 48
M  V30 54 1 26 49
M  V30 55 1 26 50
M  V30 56 1 27 51
M  V30 57 1 27 52
M  V30 58 1 28 53
M  V30 59 1 28 54
M  V30 60 1 29 55
M  V30 61 1 29 56
M  V30 62 1 30 57
M  V30 63 1 31 58
M  V30 64 1 34 59
M  V30 END BOND
M  V30 END CTAB
M  END
>  <Dataset>  (14) 
ChEMBL_Kinases

>  <Ligand_Instance>  (14) 
nan

>  <PDB_ID>  (14) 
nan

>  <Standardized_SMILES>  (14) 
Nc1cccc(-c2ccc3nc(-c4cccnc4N)n(-c4ccc(C5(N)CCC5)cc4)c3n2)c1

>  <Name>  (14) 
nan

>  <Pocket>  (14) 
nan

>  <ATP_Site>  (14) 
nan

>  <Peripheral>  (14) 
nan

>  <Num_H_Atoms_ProtBoundConf>  (14) 
nan

>  <Num_Resolved_Atoms>  (14) 
nan

>  <Num_Not_Resolved_Atoms>  (14) 
nan

$$$$
CHEMBL4634326
     RDKit          3D

  0  0  0  0  0  0  0  0  0  0999 V3000
M  V30 BEGIN CTAB
M  V30 COUNTS 66 70 0 0 0
M  V30 BEGIN ATOM
M  V30 1 C 2.888634 1.311423 5.553965 0
M  V30 2 C 2.896794 2.543865 4.695467 0
M  V30 3 N 3.090652 2.302712 3.294772 0
M  V30 4 C 4.445523 2.289349 2.789935 0
M  V30 5 O 5.324263 2.366877 3.673218 0
M  V30 6 C 4.998048 2.202611 1.443337 0
M  V30 7 C 6.393489 2.139912 1.473880 0
M  V30 8 C 7.012538 2.056589 0.252829 0
M  V30 9 C 6.362002 2.031574 -0.966321 0
M  V30 10 C 4.979069 2.096376 -0.936543 0
M  V30 11 C 4.291148 2.181698 0.256587 0
M  V30 12 N 2.877749 2.241023 0.094263 0
M  V30 13 C 2.433018 2.555353 -1.247278 0
M  V30 14 C 1.840342 2.041629 1.050012 0
M  V30 15 N 0.631002 1.801139 0.479723 0
M  V30 16 C -0.473493 1.592997 1.257602 0
M  V30 17 N -1.711057 1.341931 0.596236 0
M  V30 18 C -2.183529 0.038854 0.310961 0
M  V30 19 C -1.424075 -1.050489 0.711003 0
M  V30 20 C -1.856945 -2.333393 0.453678 0
M  V30 21 C -3.044253 -2.562510 -0.201681 0
M  V30 22 N -3.512656 -3.878243 -0.469444 0
M  V30 23 C -4.636157 -4.285481 -1.281601 0
M  V30 24 C -4.125420 -5.086296 -2.462008 0
M  V30 25 N -3.272012 -6.174658 -2.110007 0
M  V30 26 C -3.910482 -7.447540 -1.974266 0
M  V30 27 C -2.306172 -5.880668 -1.099358 0
M  V30 28 C -2.959000 -5.121036 0.028724 0
M  V30 29 C -3.824715 -1.506922 -0.613602 0
M  V30 30 C -3.368037 -0.227106 -0.343398 0
M  V30 31 O -4.065421 0.925680 -0.709424 0
M  V30 32 C -5.300679 0.838396 -1.390875 0
M  V30 33 N -0.358876 1.627378 2.616322 0
M  V30 34 C 0.860515 1.869616 3.186596 0
M  V30 35 C 1.987582 2.082085 2.420425 0
M  V30 36 H 2.196684 1.452661 6.409633 0
M  V30 37 H 3.897021 1.047574 5.978034 0
M  V30 38 H 2.617986 0.376540 4.980146 0
M  V30 39 H 2.142927 3.309770 4.952652 0
M  V30 40 H 3.846816 3.076836 5.020568 0
M  V30 41 H 6.955200 2.155820 2.403271 0
M  V30 42 H 8.094903 2.009160 0.296606 0
M  V30 43 H 6.938319 1.964009 -1.886144 0
M  V30 44 H 4.419934 2.080004 -1.869526 0
M  V30 45 H 1.359327 2.907082 -1.186335 0
M  V30 46 H 2.412638 1.705534 -1.937342 0
M  V30 47 H 2.943233 3.472019 -1.666627 0
M  V30 48 H -2.201130 2.209011 0.360130 0
M  V30 49 H -0.490562 -0.864416 1.225858 0
M  V30 50 H -1.213292 -3.105756 0.793537 0
M  V30 51 H -5.398064 -4.875225 -0.692751 0
M  V30 52 H -5.140699 -3.403802 -1.714102 0
M  V30 53 H -3.528487 -4.372821 -3.078215 0
M  V30 54 H -4.959631 -5.471334 -3.076059 0
M  V30 55 H -5.017914 -7.346782 -1.989693 0
M  V30 56 H -3.531350 -8.227577 -2.666719 0
M  V30 57 H -3.671642 -7.827272 -0.939448 0
M  V30 58 H -1.899492 -6.825140 -0.682240 0
M  V30 59 H -1.505473 -5.253377 -1.549450 0
M  V30 60 H -3.723951 -5.749534 0.531657 0
M  V30 61 H -2.117314 -4.888615 0.747416 0
M  V30 62 H -4.751574 -1.533977 -1.120217 0
M  V30 63 H -5.290255 0.086167 -2.206450 0
M  V30 64 H -5.534237 1.808375 -1.912896 0
M  V30 65 H -6.170056 0.700073 -0.700344 0
M  V30 66 H 0.897531 1.885966 4.258557 0
M  V30 END ATOM
M  V30 BEGIN BOND
M  V30 1 1 1 2
M  V30 2 1 2 3
M  V30 3 1 3 4
M  V30 4 2 4 5
M  V30 5 1 4 6
M  V30 6 2 6 7
M  V30 7 1 7 8
M  V30 8 2 8 9
M  V30 9 1 9 10
M  V30 10 2 10 11
M  V30 11 1 11 12
M  V30 12 1 12 13
M  V30 13 1 12 14
M  V30 14 2 14 15
M  V30 15 1 15 16
M  V30 16 1 16 17
M  V30 17 1 17 18
M  V30 18 2 18 19
M  V30 19 1 19 20
M  V30 20 2 20 21
M  V30 21 1 21 22
M  V30 22 1 22 23
M  V30 23 1 23 24
M  V30 24 1 24 25
M  V30 25 1 25 26
M  V30 26 1 25 27
M  V30 27 1 27 28
M  V30 28 1 21 29
M  V30 29 2 29 30
M  V30 30 1 30 31
M  V30 31 1 31 32
M  V30 32 2 16 33
M  V30 33 1 33 34
M  V30 34 2 34 35
M  V30 35 1 35 3
M  V30 36 1 11 6
M  V30 37 1 35 14
M  V30 38 1 30 18
M  V30 39 1 28 22
M  V30 40 1 1 36
M  V30 41 1 1 37
M  V30 42 1 1 38
M  V30 43 1 2 39
M  V30 44 1 2 40
M  V30 45 1 7 41
M  V30 46 1 8 42
M  V30 47 1 9 43
M  V30 48 1 10 44
M  V30 49 1 13 45
M  V30 50 1 13 46
M  V30 51 1 13 47
M  V30 52 1 17 48
M  V30 53 1 19 49
M  V30 54 1 20 50
M  V30 55 1 23 51
M  V30 56 1 23 52
M  V30 57 1 24 53
M  V30 58 1 24 54
M  V30 59 1 26 55
M  V30 60 1 26 56
M  V30 61 1 26 57
M  V30 62 1 27 58
M  V30 63 1 27 59
M  V30 64 1 28 60
M  V30 65 1 28 61
M  V30 66 1 29 62
M  V30 67 1 32 63
M  V30 68 1 32 64
M  V30 69 1 32 65
M  V30 70 1 34 66
M  V30 END BOND
M  V30 END CTAB
M  END
>  <Dataset>  (15) 
ChEMBL_Kinases

>  <Ligand_Instance>  (15) 
nan

>  <PDB_ID>  (15) 
nan

>  <Standardized_SMILES>  (15) 
CCN1C(=O)c2ccccc2N(C)c2nc(Nc3ccc(N4CCN(C)CC4)cc3OC)ncc21

>  <Name>  (15) 
nan

>  <Pocket>  (15) 
nan

>  <ATP_Site>  (15) 
nan

>  <Peripheral>  (15) 
nan

>  <Num_H_Atoms_ProtBoundConf>  (15) 
nan

>  <Num_Resolved_Atoms>  (15) 
nan

>  <Num_Not_Resolved_Atoms>  (15) 
nan

$$$$
CHEMBL4574255
     RDKit          3D

  0  0  0  0  0  0  0  0  0  0999 V3000
M  V30 BEGIN CTAB
M  V30 COUNTS 70 74 0 0 0
M  V30 BEGIN ATOM
M  V30 1 C 5.282395 1.582607 4.158081 0
M  V30 2 C 4.401473 1.139644 3.017322 0
M  V30 3 C 3.186674 2.055794 2.879587 0 CFG=2
M  V30 4 C 2.486572 1.919556 4.216579 0
M  V30 5 O 2.276975 2.684178 5.209625 0
M  V30 6 N 1.911108 0.609975 4.434384 0
M  V30 7 C 1.645520 -0.040165 5.729016 0
M  V30 8 C 1.528476 -0.194888 3.294845 0
M  V30 9 C 0.970357 -1.453566 3.438251 0
M  V30 10 N 0.621770 -2.170240 2.329304 0
M  V30 11 C 0.824411 -1.645709 1.102614 0
M  V30 12 N 0.450668 -2.410156 -0.036531 0
M  V30 13 C -0.850393 -2.413794 -0.662837 0
M  V30 14 C -1.752424 -1.565781 -0.006153 0
M  V30 15 C -3.047378 -1.443494 -0.461557 0
M  V30 16 C -3.422135 -2.168187 -1.563948 0
M  V30 17 C -4.749264 -2.143014 -2.155630 0
M  V30 18 O -5.156767 -2.774521 -3.161942 0
M  V30 19 N -5.772961 -1.334242 -1.593778 0
M  V30 20 C -7.116946 -1.266075 -2.137832 0
M  V30 21 C -8.254642 -1.117889 -1.126896 0
M  V30 22 C -7.898087 0.017270 -2.014291 0
M  V30 23 C -2.545145 -2.997094 -2.208415 0
M  V30 24 C -1.241639 -3.151682 -1.789869 0
M  V30 25 O -0.169707 -3.886449 -2.222609 0
M  V30 26 C -0.054804 -4.763430 -3.279901 0
M  V30 27 C -0.933338 -5.968822 -3.264835 0
M  V30 28 O -0.721326 -6.776122 -2.144940 0
M  V30 29 N 1.368170 -0.422359 0.988032 0
M  V30 30 C 1.731331 0.331791 2.012596 0
M  V30 31 N 2.296070 1.620571 1.816057 0
M  V30 32 C 1.998366 2.443752 0.684255 0
M  V30 33 C 3.282990 2.825897 -0.000095 0
M  V30 34 C 3.062291 2.571674 -1.504924 0
M  V30 35 C 2.000128 1.454660 -1.478147 0
M  V30 36 C 1.149846 1.966612 -0.383559 0
M  V30 37 H 4.825632 2.507088 4.599095 0
M  V30 38 H 6.319447 1.838264 3.831954 0
M  V30 39 H 5.347451 0.852310 4.975744 0
M  V30 40 H 4.082635 0.104373 3.253356 0
M  V30 41 H 5.033104 1.095278 2.129929 0
M  V30 42 H 3.493746 3.097372 2.822740 0
M  V30 43 H 0.548234 -0.260263 5.693652 0
M  V30 44 H 2.227299 -0.952112 5.868815 0
M  V30 45 H 1.794742 0.724064 6.498389 0
M  V30 46 H 0.815331 -1.857571 4.428338 0
M  V30 47 H 1.275085 -2.969859 -0.345677 0
M  V30 48 H -1.513328 -0.978060 0.857823 0
M  V30 49 H -3.759113 -0.804997 0.018874 0
M  V30 50 H -5.635238 -0.733076 -0.754073 0
M  V30 51 H -7.383808 -1.861691 -3.032095 0
M  V30 52 H -7.925873 -1.044534 -0.071014 0
M  V30 53 H -9.187238 -1.675372 -1.274065 0
M  V30 54 H -8.566214 0.343544 -2.833668 0
M  V30 55 H -7.347328 0.882828 -1.550264 0
M  V30 56 H -2.750324 -3.585926 -3.065100 0
M  V30 57 H -0.246785 -4.211811 -4.231616 0
M  V30 58 H 1.010534 -5.136454 -3.276681 0
M  V30 59 H -0.601725 -6.608821 -4.135174 0
M  V30 60 H -1.999970 -5.785412 -3.440507 0
M  V30 61 H -1.081612 -6.264224 -1.366424 0
M  V30 62 H 1.578196 3.409150 1.154983 0
M  V30 63 H 4.152960 2.207459 0.247260 0
M  V30 64 H 3.490124 3.903422 0.172427 0
M  V30 65 H 2.602919 3.494314 -1.913421 0
M  V30 66 H 3.976079 2.269499 -2.019401 0
M  V30 67 H 2.520666 0.517582 -1.315340 0
M  V30 68 H 1.469416 1.491490 -2.471350 0
M  V30 69 H 0.278076 1.344697 -0.128494 0
M  V30 70 H 0.650017 2.896828 -0.822372 0
M  V30 END ATOM
M  V30 BEGIN BOND
M  V30 1 1 1 2
M  V30 2 1 2 3
M  V30 3 1 3 4
M  V30 4 2 4 5
M  V30 5 1 4 6
M  V30 6 1 6 7
M  V30 7 1 6 8
M  V30 8 2 8 9
M  V30 9 1 9 10
M  V30 10 2 10 11
M  V30 11 1 11 12
M  V30 12 1 12 13
M  V30 13 2 13 14
M  V30 14 1 14 15
M  V30 15 2 15 16
M  V30 16 1 16 17
M  V30 17 2 17 18
M  V30 18 1 17 19
M  V30 19 1 19 20
M  V30 20 1 20 21
M  V30 21 1 21 22
M  V30 22 1 16 23
M  V30 23 2 23 24
M  V30 24 1 24 25
M  V30 25 1 25 26
M  V30 26 1 26 27
M  V30 27 1 27 28
M  V30 28 1 11 29
M  V30 29 2 29 30
M  V30 30 1 30 31
M  V30 31 1 31 32
M  V30 32 1 32 33
M  V30 33 1 33 34
M  V30 34 1 34 35
M  V30 35 1 35 36
M  V30 36 1 31 3
M  V30 37 1 36 32
M  V30 38 1 30 8
M  V30 39 1 24 13
M  V30 40 1 22 20
M  V30 41 1 1 37
M  V30 42 1 1 38
M  V30 43 1 1 39
M  V30 44 1 2 40
M  V30 45 1 2 41
M  V30 46 1 3 42 CFG=3
M  V30 47 1 7 43
M  V30 48 1 7 44
M  V30 49 1 7 45
M  V30 50 1 9 46
M  V30 51 1 12 47
M  V30 52 1 14 48
M  V30 53 1 15 49
M  V30 54 1 19 50
M  V30 55 1 20 51
M  V30 56 1 21 52
M  V30 57 1 21 53
M  V30 58 1 22 54
M  V30 59 1 22 55
M  V30 60 1 23 56
M  V30 61 1 26 57
M  V30 62 1 26 58
M  V30 63 1 27 59
M  V30 64 1 27 60
M  V30 65 1 28 61
M  V30 66 1 32 62
M  V30 67 1 33 63
M  V30 68 1 33 64
M  V30 69 1 34 65
M  V30 70 1 34 66
M  V30 71 1 35 67
M  V30 72 1 35 68
M  V30 73 1 36 69
M  V30 74 1 36 70
M  V30 END BOND
M  V30 END CTAB
M  END
>  <Dataset>  (16) 
ChEMBL_Kinases

>  <Ligand_Instance>  (16) 
nan

>  <PDB_ID>  (16) 
nan

>  <Standardized_SMILES>  (16) 
CC[C@@H]1C(=O)N(C)c2cnc(Nc3ccc(C(=O)NC4CC4)cc3OCCO)nc2N1C1CCCC1

>  <Name>  (16) 
nan

>  <Pocket>  (16) 
nan

>  <ATP_Site>  (16) 
nan

>  <Peripheral>  (16) 
nan

>  <Num_H_Atoms_ProtBoundConf>  (16) 
nan

>  <Num_Resolved_Atoms>  (16) 
nan

>  <Num_Not_Resolved_Atoms>  (16) 
nan

$$$$
CHEMBL2178598
     RDKit          3D

  0  0  0  0  0  0  0  0  0  0999 V3000
M  V30 BEGIN CTAB
M  V30 COUNTS 71 74 0 0 0
M  V30 BEGIN ATOM
M  V30 1 C 3.755489 -2.593039 2.151012 0
M  V30 2 C 4.748067 -1.486059 2.122970 0 CFG=2
M  V30 3 C 5.798331 -1.594656 3.201522 0
M  V30 4 C 6.103033 -0.228089 3.712405 0 CFG=1
M  V30 5 O 7.319311 0.285159 3.286739 0
M  V30 6 C 4.940376 0.574272 3.251873 0
M  V30 7 N 4.642357 1.841697 3.642485 0
M  V30 8 C 3.538389 2.457263 3.134868 0
M  V30 9 N 2.759584 1.793590 2.250579 0
M  V30 10 C 3.050291 0.535295 1.858990 0
M  V30 11 N 2.183768 -0.121561 0.915912 0
M  V30 12 C 2.528225 -0.639054 -0.389622 0
M  V30 13 C 1.535025 -0.231753 -1.450750 0
M  V30 14 N 0.184329 -0.371506 -1.046941 0
M  V30 15 C -0.799951 -1.118012 -1.697388 0
M  V30 16 O 0.148298 -1.379297 -2.476045 0
M  V30 17 C -2.121334 -1.690192 -1.952938 0 CFG=2
M  V30 18 C -3.070712 -0.658469 -2.497546 0
M  V30 19 N -3.211555 0.405577 -1.557313 0
M  V30 20 C -4.138665 1.441210 -1.970689 0
M  V30 21 C -4.141621 2.458100 -0.821780 0
M  V30 22 C -5.518080 0.942065 -2.247236 0
M  V30 23 C -3.600400 2.175713 -3.177756 0
M  V30 24 O -2.371369 2.763260 -2.865491 0
M  V30 25 C -2.679183 -2.478548 -0.823311 0
M  V30 26 C -2.768139 -3.862493 -1.004561 0
M  V30 27 C -3.278053 -4.708924 -0.015335 0
M  V30 28 C -3.712944 -4.195972 1.181696 0
M  V30 29 C -4.271103 -4.979795 2.308128 0
M  V30 30 F -4.330152 -6.334024 2.057525 0
M  V30 31 F -5.593135 -4.553873 2.484716 0
M  V30 32 F -3.603487 -4.676587 3.478643 0
M  V30 33 C -3.624710 -2.840983 1.356374 0
M  V30 34 F -4.031708 -2.254317 2.506333 0
M  V30 35 C -3.124067 -2.003066 0.387028 0
M  V30 36 C -0.034544 0.386518 0.196633 0
M  V30 37 C 0.789300 -0.322360 1.250053 0
M  V30 38 C 4.173937 -0.138296 2.353096 0
M  V30 39 H 3.985678 -3.197598 3.078552 0
M  V30 40 H 3.972782 -3.296161 1.321443 0
M  V30 41 H 2.696298 -2.292305 2.181841 0
M  V30 42 H 5.236720 -1.467271 1.124417 0
M  V30 43 H 6.721907 -2.024199 2.760204 0
M  V30 44 H 5.379038 -2.261672 3.996583 0
M  V30 45 H 6.044741 -0.270508 4.832823 0
M  V30 46 H 7.946923 0.234768 4.073846 0
M  V30 47 H 3.366031 3.463101 3.492030 0
M  V30 48 H 2.524142 -1.745915 -0.337644 0
M  V30 49 H 3.548875 -0.319496 -0.668787 0
M  V30 50 H 1.709546 0.882048 -1.580813 0
M  V30 51 H 1.812143 -0.652742 -2.427182 0
M  V30 52 H -1.969119 -2.420489 -2.817304 0
M  V30 53 H -4.034715 -1.111405 -2.806360 0
M  V30 54 H -2.608806 -0.268712 -3.447811 0
M  V30 55 H -2.264032 0.901479 -1.551763 0
M  V30 56 H -5.002200 3.154545 -0.923745 0
M  V30 57 H -4.151100 1.949568 0.164880 0
M  V30 58 H -3.210252 3.050218 -0.948261 0
M  V30 59 H -5.834142 0.068692 -1.643851 0
M  V30 60 H -5.642605 0.749913 -3.338876 0
M  V30 61 H -6.235481 1.752988 -1.984343 0
M  V30 62 H -4.343475 2.935197 -3.500708 0
M  V30 63 H -3.442486 1.489205 -4.020674 0
M  V30 64 H -2.268376 3.643407 -3.332544 0
M  V30 65 H -2.458878 -4.392408 -1.902999 0
M  V30 66 H -3.347929 -5.777054 -0.152907 0
M  V30 67 H -3.060171 -0.945236 0.527761 0
M  V30 68 H -1.110477 0.418321 0.474230 0
M  V30 69 H 0.359604 1.400755 0.015868 0
M  V30 70 H 0.542451 0.028181 2.270219 0
M  V30 71 H 0.601437 -1.407437 1.246596 0
M  V30 END ATOM
M  V30 BEGIN BOND
M  V30 1 1 1 2
M  V30 2 1 2 3
M  V30 3 1 3 4
M  V30 4 1 4 5
M  V30 5 1 4 6
M  V30 6 2 6 7
M  V30 7 1 7 8
M  V30 8 2 8 9
M  V30 9 1 9 10
M  V30 10 1 10 11
M  V30 11 1 11 12
M  V30 12 1 12 13
M  V30 13 1 13 14
M  V30 14 1 14 15
M  V30 15 2 15 16
M  V30 16 1 15 17
M  V30 17 1 17 18
M  V30 18 1 18 19
M  V30 19 1 19 20
M  V30 20 1 20 21
M  V30 21 1 20 22
M  V30 22 1 20 23
M  V30 23 1 23 24
M  V30 24 1 17 25
M  V30 25 2 25 26
M  V30 26 1 26 27
M  V30 27 2 27 28
M  V30 28 1 28 29
M  V30 29 1 29 30
M  V30 30 1 29 31
M  V30 31 1 29 32
M  V30 32 1 28 33
M  V30 33 1 33 34
M  V30 34 2 33 35
M  V30 35 1 14 36
M  V30 36 1 36 37
M  V30 37 2 10 38
M  V30 38 1 38 2
M  V30 39 1 38 6
M  V30 40 1 37 11
M  V30 41 1 35 25
M  V30 42 1 1 39
M  V30 43 1 1 40
M  V30 44 1 1 41
M  V30 45 1 2 42 CFG=3
M  V30 46 1 3 43
M  V30 47 1 3 44
M  V30 48 1 4 45 CFG=1
M  V30 49 1 5 46
M  V30 50 1 8 47
M  V30 51 1 12 48
M  V30 52 1 12 49
M  V30 53 1 13 50
M  V30 54 1 13 51
M  V30 55 1 17 52 CFG=3
M  V30 56 1 18 53
M  V30 57 1 18 54
M  V30 58 1 19 55
M  V30 59 1 21 56
M  V30 60 1 21 57
M  V30 61 1 21 58
M  V30 62 1 22 59
M  V30 63 1 22 60
M  V30 64 1 22 61
M  V30 65 1 23 62
M  V30 66 1 23 63
M  V30 67 1 24 64
M  V30 68 1 26 65
M  V30 69 1 27 66
M  V30 70 1 35 67
M  V30 71 1 36 68
M  V30 72 1 36 69
M  V30 73 1 37 70
M  V30 74 1 37 71
M  V30 END BOND
M  V30 END CTAB
M  END
>  <Dataset>  (17) 
ChEMBL_Kinases

>  <Ligand_Instance>  (17) 
nan

>  <PDB_ID>  (17) 
nan

>  <Standardized_SMILES>  (17) 
C[C@@H]1C[C@@H](O)c2ncnc(N3CCN(C(=O)[C@H](CNC(C)(C)CO)c4ccc(C(F)(F)F)c(F)c4)CC3)c21

>  <Name>  (17) 
nan

>  <Pocket>  (17) 
nan

>  <ATP_Site>  (17) 
nan

>  <Peripheral>  (17) 
nan

>  <Num_H_Atoms_ProtBoundConf>  (17) 
nan

>  <Num_Resolved_Atoms>  (17) 
nan

>  <Num_Not_Resolved_Atoms>  (17) 
nan

$$$$
CHEMBL2178597
     RDKit          3D

  0  0  0  0  0  0  0  0  0  0999 V3000
M  V30 BEGIN CTAB
M  V30 COUNTS 70 73 0 0 0
M  V30 BEGIN ATOM
M  V30 1 C 2.164921 -1.026489 2.439043 0
M  V30 2 C 3.154485 -1.951375 1.767300 0 CFG=2
M  V30 3 C 3.919888 -2.668895 2.847805 0
M  V30 4 C 5.326173 -2.707725 2.366418 0 CFG=1
M  V30 5 O 5.558533 -3.974825 1.791002 0
M  V30 6 C 5.401470 -1.694260 1.306089 0
M  V30 7 N 6.485586 -1.176685 0.675513 0
M  V30 8 C 6.342993 -0.224181 -0.293141 0
M  V30 9 N 5.099154 0.191603 -0.609587 0
M  V30 10 C 3.999220 -0.301149 -0.002801 0
M  V30 11 N 2.816178 0.292633 -0.502137 0
M  V30 12 C 1.683845 -0.324157 -1.214812 0
M  V30 13 C 0.729599 0.811163 -1.645270 0
M  V30 14 N 0.336858 1.436363 -0.370125 0
M  V30 15 C -0.896629 1.415407 0.379321 0
M  V30 16 O -0.939600 2.058570 1.489536 0
M  V30 17 C -2.162165 0.689410 -0.038602 0 CFG=2
M  V30 18 C -3.155876 0.872245 1.077213 0
M  V30 19 N -4.423561 0.316906 0.952520 0
M  V30 20 C -5.393186 0.808849 0.074972 0
M  V30 21 C -5.066133 0.798760 -1.392700 0
M  V30 22 C -5.947071 2.173367 0.478084 0
M  V30 23 C -6.619908 -0.124013 0.211665 0
M  V30 24 C -1.848103 -0.766212 -0.220080 0
M  V30 25 C -2.005428 -1.485666 -1.384729 0
M  V30 26 C -1.720401 -2.816856 -1.548650 0
M  V30 27 C -1.233701 -3.519010 -0.474453 0
M  V30 28 C -0.927515 -4.954841 -0.653913 0
M  V30 29 F -1.706385 -5.680433 0.221353 0
M  V30 30 F 0.393230 -5.196019 -0.303005 0
M  V30 31 F -1.192400 -5.385176 -1.927873 0
M  V30 32 C -1.044300 -2.882244 0.728452 0
M  V30 33 F -0.562743 -3.579945 1.782531 0
M  V30 34 C -1.352424 -1.535578 0.827024 0
M  V30 35 C 1.418837 2.199528 0.207501 0
M  V30 36 C 2.753715 1.718766 -0.262077 0
M  V30 37 C 4.150556 -1.253502 0.964266 0
M  V30 38 H 2.405892 -0.945475 3.516383 0
M  V30 39 H 1.133593 -1.432084 2.301554 0
M  V30 40 H 2.183368 -0.014640 2.038446 0
M  V30 41 H 2.643877 -2.728983 1.161618 0
M  V30 42 H 3.503725 -3.693912 2.996700 0
M  V30 43 H 3.800724 -2.164255 3.832494 0
M  V30 44 H 6.070678 -2.524418 3.178627 0
M  V30 45 H 4.716497 -4.332907 1.438450 0
M  V30 46 H 7.239190 0.161752 -0.770302 0
M  V30 47 H 1.144254 -1.034580 -0.594302 0
M  V30 48 H 2.103497 -0.754820 -2.141216 0
M  V30 49 H 1.272699 1.592051 -2.214018 0
M  V30 50 H -0.105404 0.446448 -2.230106 0
M  V30 51 H -2.550238 1.106311 -0.965297 0
M  V30 52 H -2.657522 0.388391 1.980000 0
M  V30 53 H -3.133149 1.965722 1.316237 0
M  V30 54 H -4.614540 -0.582012 1.416733 0
M  V30 55 H -6.057623 0.696436 -1.946632 0
M  V30 56 H -4.499891 -0.083108 -1.675912 0
M  V30 57 H -4.650412 1.768805 -1.743733 0
M  V30 58 H -5.383387 2.924320 -0.143350 0
M  V30 59 H -5.866069 2.375911 1.554131 0
M  V30 60 H -7.011993 2.301617 0.196637 0
M  V30 61 H -6.684385 -0.348670 1.302323 0
M  V30 62 H -7.538354 0.414942 -0.052022 0
M  V30 63 H -6.448843 -1.068105 -0.308833 0
M  V30 64 H -2.377378 -0.968857 -2.244581 0
M  V30 65 H -1.875016 -3.308757 -2.500604 0
M  V30 66 H -1.195036 -1.049491 1.787320 0
M  V30 67 H 1.354636 2.098285 1.319123 0
M  V30 68 H 1.279259 3.294746 -0.040364 0
M  V30 69 H 2.956819 2.208171 -1.264296 0
M  V30 70 H 3.584587 2.102509 0.373647 0
M  V30 END ATOM
M  V30 BEGIN BOND
M  V30 1 1 1 2
M  V30 2 1 2 3
M  V30 3 1 3 4
M  V30 4 1 4 5
M  V30 5 1 4 6
M  V30 6 2 6 7
M  V30 7 1 7 8
M  V30 8 2 8 9
M  V30 9 1 9 10
M  V30 10 1 10 11
M  V30 11 1 11 12
M  V30 12 1 12 13
M  V30 13 1 13 14
M  V30 14 1 14 15
M  V30 15 2 15 16
M  V30 16 1 15 17
M  V30 17 1 17 18
M  V30 18 1 18 19
M  V30 19 1 19 20
M  V30 20 1 20 21
M  V30 21 1 20 22
M  V30 22 1 20 23
M  V30 23 1 17 24
M  V30 24 2 24 25
M  V30 25 1 25 26
M  V30 26 2 26 27
M  V30 27 1 27 28
M  V30 28 1 28 29
M  V30 29 1 28 30
M  V30 30 1 28 31
M  V30 31 1 27 32
M  V30 32 1 32 33
M  V30 33 2 32 34
M  V30 34 1 14 35
M  V30 35 1 35 36
M  V30 36 2 10 37
M  V30 37 1 37 2
M  V30 38 1 37 6
M  V30 39 1 36 11
M  V30 40 1 34 24
M  V30 41 1 1 38
M  V30 42 1 1 39
M  V30 43 1 1 40
M  V30 44 1 2 41 CFG=3
M  V30 45 1 3 42
M  V30 46 1 3 43
M  V30 47 1 4 44 CFG=1
M  V30 48 1 5 45
M  V30 49 1 8 46
M  V30 50 1 12 47
M  V30 51 1 12 48
M  V30 52 1 13 49
M  V30 53 1 13 50
M  V30 54 1 17 51 CFG=3
M  V30 55 1 18 52
M  V30 56 1 18 53
M  V30 57 1 19 54
M  V30 58 1 21 55
M  V30 59 1 21 56
M  V30 60 1 21 57
M  V30 61 1 22 58
M  V30 62 1 22 59
M  V30 63 1 22 60
M  V30 64 1 23 61
M  V30 65 1 23 62
M  V30 66 1 23 63
M  V30 67 1 25 64
M  V30 68 1 26 65
M  V30 69 1 34 66
M  V30 70 1 35 67
M  V30 71 1 35 68
M  V30 72 1 36 69
M  V30 73 1 36 70
M  V30 END BOND
M  V30 END CTAB
M  END
>  <Dataset>  (18) 
ChEMBL_Kinases

>  <Ligand_Instance>  (18) 
nan

>  <PDB_ID>  (18) 
nan

>  <Standardized_SMILES>  (18) 
C[C@@H]1C[C@@H](O)c2ncnc(N3CCN(C(=O)[C@H](CNC(C)(C)C)c4ccc(C(F)(F)F)c(F)c4)CC3)c21

>  <Name>  (18) 
nan

>  <Pocket>  (18) 
nan

>  <ATP_Site>  (18) 
nan

>  <Peripheral>  (18) 
nan

>  <Num_H_Atoms_ProtBoundConf>  (18) 
nan

>  <Num_Resolved_Atoms>  (18) 
nan

>  <Num_Not_Resolved_Atoms>  (18) 
nan

$$$$
CHEMBL2107832
     RDKit          3D

  0  0  0  0  0  0  0  0  0  0999 V3000
M  V30 BEGIN CTAB
M  V30 COUNTS 38 39 0 0 0
M  V30 BEGIN ATOM
M  V30 1 O 0.402632 -0.891047 1.098777 0
M  V30 2 C 0.374008 -0.617136 -0.128486 0
M  V30 3 N 0.223833 -1.766874 -0.946609 0
M  V30 4 C 0.105021 -3.154270 -0.632728 0
M  V30 5 C 1.241716 -3.782277 0.085061 0 CFG=2
M  V30 6 O 1.512750 -3.215727 1.320849 0
M  V30 7 C 2.506275 -3.868922 -0.730408 0
M  V30 8 O 2.235379 -4.445746 -1.990965 0
M  V30 9 C 0.485865 0.737698 -0.593237 0
M  V30 10 C 0.607280 1.063001 -1.927374 0
M  V30 11 C 0.772897 2.349110 -2.397935 0
M  V30 12 N 0.820752 3.370011 -1.492517 0
M  V30 13 C 0.697349 3.023393 -0.178537 0
M  V30 14 C 0.528032 1.736620 0.329997 0
M  V30 15 N 0.424874 1.646845 1.738712 0
M  V30 16 C -0.618461 1.252240 2.622825 0
M  V30 17 C -1.898529 0.867880 2.285447 0
M  V30 18 C -2.880393 0.492307 3.169728 0
M  V30 19 C -2.553054 0.502453 4.503680 0
M  V30 20 I -4.045357 -0.069843 5.868260 0
M  V30 21 C -1.280760 0.881988 4.874343 0
M  V30 22 C -0.315409 1.253953 3.966594 0
M  V30 23 F 0.916084 1.612802 4.446143 0
M  V30 24 H 0.200418 -1.492082 -1.979671 0
M  V30 25 H -0.104070 -3.719418 -1.548476 0
M  V30 26 H -0.814961 -3.328195 0.010384 0
M  V30 27 H 0.955386 -4.847660 0.309094 0
M  V30 28 H 2.459424 -2.924492 1.348798 0
M  V30 29 H 3.211834 -4.560518 -0.226703 0
M  V30 30 H 3.000452 -2.916688 -0.915573 0
M  V30 31 H 1.760203 -3.774918 -2.533799 0
M  V30 32 H 0.582818 0.334517 -2.709137 0
M  V30 33 H 0.867892 2.601437 -3.446243 0
M  V30 34 H 0.748083 3.909292 0.467395 0
M  V30 35 H 1.350216 1.948623 2.110051 0
M  V30 36 H -2.116966 0.873800 1.215681 0
M  V30 37 H -3.852238 0.212663 2.741322 0
M  V30 38 H -1.036554 0.884048 5.947434 0
M  V30 END ATOM
M  V30 BEGIN BOND
M  V30 1 2 1 2
M  V30 2 1 2 3
M  V30 3 1 3 4
M  V30 4 1 4 5
M  V30 5 1 5 6
M  V30 6 1 5 7
M  V30 7 1 7 8
M  V30 8 1 2 9
M  V30 9 2 9 10
M  V30 10 1 10 11
M  V30 11 2 11 12
M  V30 12 1 12 13
M  V30 13 2 13 14
M  V30 14 1 14 15
M  V30 15 1 15 16
M  V30 16 2 16 17
M  V30 17 1 17 18
M  V30 18 2 18 19
M  V30 19 1 19 20
M  V30 20 1 19 21
M  V30 21 2 21 22
M  V30 22 1 22 23
M  V30 23 1 14 9
M  V30 24 1 22 16
M  V30 25 1 3 24
M  V30 26 1 4 25
M  V30 27 1 4 26
M  V30 28 1 5 27 CFG=1
M  V30 29 1 6 28
M  V30 30 1 7 29
M  V30 31 1 7 30
M  V30 32 1 8 31
M  V30 33 1 10 32
M  V30 34 1 11 33
M  V30 35 1 13 34
M  V30 36 1 15 35
M  V30 37 1 17 36
M  V30 38 1 18 37
M  V30 39 1 21 38
M  V30 END BOND
M  V30 END CTAB
M  END
>  <Dataset>  (19) 
ChEMBL_Kinases

>  <Ligand_Instance>  (19) 
nan

>  <PDB_ID>  (19) 
nan

>  <Standardized_SMILES>  (19) 
O=C(NC[C@H](O)CO)c1ccncc1Nc1ccc(I)cc1F

>  <Name>  (19) 
PIMASERTIB

>  <Pocket>  (19) 
nan

>  <ATP_Site>  (19) 
nan

>  <Peripheral>  (19) 
nan

>  <Num_H_Atoms_ProtBoundConf>  (19) 
nan

>  <Num_Resolved_Atoms>  (19) 
nan

>  <Num_Not_Resolved_Atoms>  (19) 
nan

$$$$
CHEMBL210928
     RDKit          3D

  0  0  0  0  0  0  0  0  0  0999 V3000
M  V30 BEGIN CTAB
M  V30 COUNTS 51 52 0 0 0
M  V30 BEGIN ATOM
M  V30 1 C -2.326054 -4.172538 5.689854 0
M  V30 2 C -1.245691 -3.808926 4.718732 0
M  V30 3 O -1.469724 -4.402663 3.464717 0
M  V30 4 C -0.624396 -4.234367 2.379154 0
M  V30 5 N 0.503409 -3.498212 2.367426 0
M  V30 6 C 1.284584 -3.368917 1.290631 0
M  V30 7 N 2.472082 -2.579731 1.316449 0
M  V30 8 C 2.127116 -1.260473 0.939057 0
M  V30 9 O 0.987847 -0.775026 0.617498 0
M  V30 10 C 2.790102 0.035485 0.749194 0
M  V30 11 C 1.708712 0.992925 0.325198 0
M  V30 12 C 1.142937 1.947283 1.155648 0
M  V30 13 C 0.156217 2.770652 0.651814 0
M  V30 14 O -0.403945 3.715275 1.473621 0
M  V30 15 C -0.031519 3.900853 2.816010 0
M  V30 16 C -0.274767 2.660733 -0.658138 0
M  V30 17 S -1.518459 3.698171 -1.293403 0
M  V30 18 C -1.876851 3.343765 -2.993245 0
M  V30 19 O -2.784817 3.400074 -0.510840 0
M  V30 20 O -1.174375 5.130751 -1.076738 0
M  V30 21 C 0.316170 1.698949 -1.444196 0
M  V30 22 C 1.317075 0.834888 -1.000122 0
M  V30 23 O 1.870454 -0.114228 -1.848757 0
M  V30 24 C 1.390077 -0.185137 -3.189081 0
M  V30 25 C 0.982382 -3.996046 0.086918 0
M  V30 26 C -0.149635 -4.755126 0.042077 0
M  V30 27 N -0.488265 -5.411767 -1.176752 0
M  V30 28 C -0.916162 -4.850804 1.186139 0
M  V30 29 Cl -2.360801 -5.834983 1.084737 0
M  V30 30 H -1.969727 -4.139691 6.729514 0
M  V30 31 H -3.182183 -3.467950 5.600894 0
M  V30 32 H -2.723168 -5.195225 5.455168 0
M  V30 33 H -1.107248 -2.707734 4.643141 0
M  V30 34 H -0.272586 -4.205738 5.096545 0
M  V30 35 H 3.501885 -2.540123 1.492669 0
M  V30 36 H 3.557352 0.059278 -0.026265 0
M  V30 37 H 3.212873 0.425308 1.696909 0
M  V30 38 H 1.504141 1.996062 2.153089 0
M  V30 39 H 0.956744 4.422454 2.892598 0
M  V30 40 H -0.813871 4.486455 3.341315 0
M  V30 41 H 0.067670 2.907335 3.299888 0
M  V30 42 H -2.620320 2.506603 -3.092372 0
M  V30 43 H -0.989900 3.055758 -3.574776 0
M  V30 44 H -2.336141 4.214482 -3.504528 0
M  V30 45 H -0.040936 1.636856 -2.462311 0
M  V30 46 H 0.288541 -0.399321 -3.137256 0
M  V30 47 H 1.874411 -0.970030 -3.766613 0
M  V30 48 H 1.449140 0.829769 -3.659391 0
M  V30 49 H 1.625102 -3.875394 -0.758798 0
M  V30 50 H -0.086670 -6.351305 -1.181558 0
M  V30 51 H -1.051111 -4.695414 -1.676806 0
M  V30 END ATOM
M  V30 BEGIN BOND
M  V30 1 1 1 2
M  V30 2 1 2 3
M  V30 3 1 3 4
M  V30 4 2 4 5
M  V30 5 1 5 6
M  V30 6 1 6 7
M  V30 7 1 7 8
M  V30 8 2 8 9
M  V30 9 1 8 10
M  V30 10 1 10 11
M  V30 11 2 11 12
M  V30 12 1 12 13
M  V30 13 1 13 14
M  V30 14 1 14 15
M  V30 15 2 13 16
M  V30 16 1 16 17
M  V30 17 1 17 18
M  V30 18 2 17 19
M  V30 19 2 17 20
M  V30 20 1 16 21
M  V30 21 2 21 22
M  V30 22 1 22 23
M  V30 23 1 23 24
M  V30 24 2 6 25
M  V30 25 1 25 26
M  V30 26 1 26 27
M  V30 27 2 26 28
M  V30 28 1 28 29
M  V30 29 1 28 4
M  V30 30 1 22 11
M  V30 31 1 1 30
M  V30 32 1 1 31
M  V30 33 1 1 32
M  V30 34 1 2 33
M  V30 35 1 2 34
M  V30 36 1 7 35
M  V30 37 1 10 36
M  V30 38 1 10 37
M  V30 39 1 12 38
M  V30 40 1 15 39
M  V30 41 1 15 40
M  V30 42 1 15 41
M  V30 43 1 18 42
M  V30 44 1 18 43
M  V30 45 1 18 44
M  V30 46 1 21 45
M  V30 47 1 24 46
M  V30 48 1 24 47
M  V30 49 1 24 48
M  V30 50 1 25 49
M  V30 51 1 27 50
M  V30 52 1 27 51
M  V30 END BOND
M  V30 END CTAB
M  END
>  <Dataset>  (20) 
ChEMBL_Kinases

>  <Ligand_Instance>  (20) 
nan

>  <PDB_ID>  (20) 
nan

>  <Standardized_SMILES>  (20) 
CCOc1nc(NC(=O)Cc2cc(OC)c(S(C)(=O)=O)cc2OC)cc(N)c1Cl

>  <Name>  (20) 
nan

>  <Pocket>  (20) 
nan

>  <ATP_Site>  (20) 
nan

>  <Peripheral>  (20) 
nan

>  <Num_H_Atoms_ProtBoundConf>  (20) 
nan

>  <Num_Resolved_Atoms>  (20) 
nan

>  <Num_Not_Resolved_Atoms>  (20) 
nan

$$$$
CHEMBL4575900
     RDKit          3D

  0  0  0  0  0  0  0  0  0  0999 V3000
M  V30 BEGIN CTAB
M  V30 COUNTS 50 53 0 0 0
M  V30 BEGIN ATOM
M  V30 1 C -0.210728 -4.226554 2.755117 0
M  V30 2 C 0.257489 -2.800830 2.804856 0
M  V30 3 N 0.516507 -2.151714 3.977919 0
M  V30 4 C 0.914889 -0.899969 3.709380 0
M  V30 5 C 1.300027 0.186522 4.462480 0
M  V30 6 C 1.655160 1.353215 3.809040 0
M  V30 7 C 1.632933 1.453323 2.433486 0
M  V30 8 C 2.001925 2.669884 1.720749 0
M  V30 9 C 1.944027 2.660790 0.343111 0
M  V30 10 C 2.285210 3.793549 -0.378064 0
M  V30 11 N 2.211013 3.740259 -1.805084 0
M  V30 12 N 2.682930 4.933437 0.260061 0
M  V30 13 C 2.748575 4.970515 1.603723 0
M  V30 14 N 3.159298 6.139884 2.327276 0
M  V30 15 C 2.406324 3.835346 2.317995 0
M  V30 16 N 1.256430 0.390845 1.699334 0
M  V30 17 C 0.901490 -0.770836 2.317774 0
M  V30 18 N 0.499334 -1.935063 1.776678 0
M  V30 19 C 0.314325 -2.331444 0.396235 0
M  V30 20 C -1.094384 -2.050612 -0.090518 0 CFG=1
M  V30 21 C -1.420852 -0.572872 0.002100 0
M  V30 22 O -1.170422 -2.526871 -1.403536 0
M  V30 23 C -2.073683 -3.500672 -1.766437 0
M  V30 24 C -3.044138 -4.229273 -1.124508 0
M  V30 25 C -3.801228 -5.159383 -1.798554 0
M  V30 26 C -3.637334 -5.417081 -3.143504 0
M  V30 27 C -2.669749 -4.699292 -3.811568 0
M  V30 28 C -1.894568 -3.750980 -3.134645 0
M  V30 29 H 0.213418 -4.759862 3.644635 0
M  V30 30 H 0.047336 -4.699878 1.809913 0
M  V30 31 H -1.310654 -4.235077 2.930964 0
M  V30 32 H 1.303965 0.067096 5.537087 0
M  V30 33 H 1.955833 2.199646 4.411696 0
M  V30 34 H 1.638535 1.791819 -0.204033 0
M  V30 35 H 3.104470 3.519509 -2.329484 0
M  V30 36 H 1.550944 3.845373 -2.602494 0
M  V30 37 H 3.904113 5.952137 3.063126 0
M  V30 38 H 2.791591 7.121432 2.185854 0
M  V30 39 H 2.462820 3.879106 3.376245 0
M  V30 40 H 1.074173 -1.851004 -0.252453 0
M  V30 41 H 0.479221 -3.422173 0.278772 0
M  V30 42 H -1.833067 -2.561024 0.549280 0
M  V30 43 H -2.363932 -0.352612 -0.532266 0
M  V30 44 H -0.600395 0.000158 -0.513164 0
M  V30 45 H -1.492443 -0.223402 1.029521 0
M  V30 46 H -3.100348 -3.962013 -0.082390 0
M  V30 47 H -4.524979 -5.642101 -1.122754 0
M  V30 48 H -4.286696 -6.169480 -3.574347 0
M  V30 49 H -2.589296 -4.944812 -4.858590 0
M  V30 50 H -1.193884 -3.298399 -3.836748 0
M  V30 END ATOM
M  V30 BEGIN BOND
M  V30 1 1 1 2
M  V30 2 2 2 3
M  V30 3 1 3 4
M  V30 4 2 4 5
M  V30 5 1 5 6
M  V30 6 2 6 7
M  V30 7 1 7 8
M  V30 8 2 8 9
M  V30 9 1 9 10
M  V30 10 1 10 11
M  V30 11 2 10 12
M  V30 12 1 12 13
M  V30 13 1 13 14
M  V30 14 2 13 15
M  V30 15 1 7 16
M  V30 16 2 16 17
M  V30 17 1 17 18
M  V30 18 1 18 19
M  V30 19 1 19 20
M  V30 20 1 20 21
M  V30 21 1 20 22
M  V30 22 1 22 23
M  V30 23 2 23 24
M  V30 24 1 24 25
M  V30 25 2 25 26
M  V30 26 1 26 27
M  V30 27 2 27 28
M  V30 28 1 18 2
M  V30 29 1 28 23
M  V30 30 1 17 4
M  V30 31 1 15 8
M  V30 32 1 1 29
M  V30 33 1 1 30
M  V30 34 1 1 31
M  V30 35 1 5 32
M  V30 36 1 6 33
M  V30 37 1 9 34
M  V30 38 1 11 35
M  V30 39 1 11 36
M  V30 40 1 14 37
M  V30 41 1 14 38
M  V30 42 1 15 39
M  V30 43 1 19 40
M  V30 44 1 19 41
M  V30 45 1 20 42 CFG=1
M  V30 46 1 21 43
M  V30 47 1 21 44
M  V30 48 1 21 45
M  V30 49 1 24 46
M  V30 50 1 25 47
M  V30 51 1 26 48
M  V30 52 1 27 49
M  V30 53 1 28 50
M  V30 END BOND
M  V30 END CTAB
M  END
>  <Dataset>  (21) 
ChEMBL_Kinases

>  <Ligand_Instance>  (21) 
nan

>  <PDB_ID>  (21) 
nan

>  <Standardized_SMILES>  (21) 
Cc1nc2ccc(-c3cc(N)nc(N)c3)nc2n1C[C@@H](C)Oc1ccccc1

>  <Name>  (21) 
nan

>  <Pocket>  (21) 
nan

>  <ATP_Site>  (21) 
nan

>  <Peripheral>  (21) 
nan

>  <Num_H_Atoms_ProtBoundConf>  (21) 
nan

>  <Num_Resolved_Atoms>  (21) 
nan

>  <Num_Not_Resolved_Atoms>  (21) 
nan

$$$$
CHEMBL4576165
     RDKit          3D

  0  0  0  0  0  0  0  0  0  0999 V3000
M  V30 BEGIN CTAB
M  V30 COUNTS 58 62 0 0 0
M  V30 BEGIN ATOM
M  V30 1 C 6.029389 -1.950668 5.315798 0
M  V30 2 C 5.156836 -2.969360 5.980986 0
M  V30 3 O 3.822878 -2.488445 6.091133 0
M  V30 4 C 3.110976 -2.154893 4.949364 0
M  V30 5 C 1.811886 -1.683693 5.012379 0
M  V30 6 C 1.066191 -1.339639 3.899520 0
M  V30 7 C 1.711317 -1.499549 2.711093 0
M  V30 8 C 1.099525 -1.198708 1.502474 0
M  V30 9 C 1.659672 -1.322355 0.230195 0
M  V30 10 C 0.826520 -0.927509 -0.890728 0
M  V30 11 N 0.205738 0.288160 -0.818480 0
M  V30 12 N -0.518556 0.500263 -1.907438 0
M  V30 13 C -1.331972 1.656943 -2.239055 0
M  V30 14 C -2.730639 1.409015 -1.710015 0
M  V30 15 C -2.728977 1.212738 -0.211366 0
M  V30 16 C -4.118196 0.936152 0.234671 0
M  V30 17 N -5.157546 1.093849 -0.710091 0
M  V30 18 C -5.769583 -0.117408 -1.167357 0
M  V30 19 C -5.047319 2.134136 -1.659782 0
M  V30 20 C -3.648029 2.570968 -1.981458 0
M  V30 21 C -0.407412 -0.568896 -2.747347 0
M  V30 22 N -0.867156 -0.965662 -3.944689 0
M  V30 23 C -0.503332 -2.173040 -4.455252 0
M  V30 24 N 0.328112 -3.035979 -3.804148 0
M  V30 25 C 0.791567 -2.643105 -2.604397 0
M  V30 26 N 1.643866 -3.563155 -1.937168 0
M  V30 27 C 0.432082 -1.435321 -2.087727 0
M  V30 28 C 2.951430 -1.794337 0.234652 0
M  V30 29 C 3.618039 -2.112650 1.397010 0
M  V30 30 C 3.004213 -1.966810 2.622115 0
M  V30 31 N 3.680944 -2.285962 3.740113 0
M  V30 32 H 6.188582 -2.270830 4.248727 0
M  V30 33 H 5.512145 -0.973613 5.347462 0
M  V30 34 H 7.000200 -1.886874 5.825289 0
M  V30 35 H 5.572343 -3.241112 6.969652 0
M  V30 36 H 5.083355 -3.911574 5.371864 0
M  V30 37 H 1.385121 -1.590965 6.002605 0
M  V30 38 H 0.054125 -0.972847 3.953361 0
M  V30 39 H 0.067231 -0.827402 1.599909 0
M  V30 40 H -1.338467 1.796951 -3.336774 0
M  V30 41 H -0.894089 2.582143 -1.826075 0
M  V30 42 H -3.176650 0.496596 -2.153682 0
M  V30 43 H -2.013084 0.395191 0.032025 0
M  V30 44 H -2.359285 2.158836 0.272271 0
M  V30 45 H -4.305624 1.480943 1.183272 0
M  V30 46 H -4.138721 -0.149787 0.549355 0
M  V30 47 H -6.419988 -0.553235 -0.381154 0
M  V30 48 H -6.372919 0.110595 -2.073403 0
M  V30 49 H -4.982091 -0.870273 -1.352422 0
M  V30 50 H -5.630913 3.017813 -1.327538 0
M  V30 51 H -5.510721 1.801006 -2.612694 0
M  V30 52 H -3.519251 2.899386 -3.024670 0
M  V30 53 H -3.348095 3.400082 -1.308114 0
M  V30 54 H -0.961262 -2.342522 -5.432054 0
M  V30 55 H 1.007456 -3.951772 -1.187334 0
M  V30 56 H 2.656293 -3.867528 -2.059502 0
M  V30 57 H 3.425639 -1.892599 -0.724999 0
M  V30 58 H 4.640811 -2.479543 1.286884 0
M  V30 END ATOM
M  V30 BEGIN BOND
M  V30 1 1 1 2
M  V30 2 1 2 3
M  V30 3 1 3 4
M  V30 4 2 4 5
M  V30 5 1 5 6
M  V30 6 2 6 7
M  V30 7 1 7 8
M  V30 8 2 8 9
M  V30 9 1 9 10
M  V30 10 2 10 11
M  V30 11 1 11 12
M  V30 12 1 12 13
M  V30 13 1 13 14
M  V30 14 1 14 15
M  V30 15 1 15 16
M  V30 16 1 16 17
M  V30 17 1 17 18
M  V30 18 1 17 19
M  V30 19 1 19 20
M  V30 20 1 12 21
M  V30 21 2 21 22
M  V30 22 1 22 23
M  V30 23 2 23 24
M  V30 24 1 24 25
M  V30 25 1 25 26
M  V30 26 2 25 27
M  V30 27 1 9 28
M  V30 28 2 28 29
M  V30 29 1 29 30
M  V30 30 2 30 31
M  V30 31 1 31 4
M  V30 32 1 30 7
M  V30 33 1 27 10
M  V30 34 1 20 14
M  V30 35 1 27 21
M  V30 36 1 1 32
M  V30 37 1 1 33
M  V30 38 1 1 34
M  V30 39 1 2 35
M  V30 40 1 2 36
M  V30 41 1 5 37
M  V30 42 1 6 38
M  V30 43 1 8 39
M  V30 44 1 13 40
M  V30 45 1 13 41
M  V30 46 1 14 42
M  V30 47 1 15 43
M  V30 48 1 15 44
M  V30 49 1 16 45
M  V30 50 1 16 46
M  V30 51 1 18 47
M  V30 52 1 18 48
M  V30 53 1 18 49
M  V30 54 1 19 50
M  V30 55 1 19 51
M  V30 56 1 20 52
M  V30 57 1 20 53
M  V30 58 1 23 54
M  V30 59 1 26 55
M  V30 60 1 26 56
M  V30 61 1 28 57
M  V30 62 1 29 58
M  V30 END BOND
M  V30 END CTAB
M  END
>  <Dataset>  (22) 
ChEMBL_Kinases

>  <Ligand_Instance>  (22) 
nan

>  <PDB_ID>  (22) 
nan

>  <Standardized_SMILES>  (22) 
CCOc1ccc2cc(-c3nn(CC4CCN(C)CC4)c4ncnc(N)c34)ccc2n1

>  <Name>  (22) 
nan

>  <Pocket>  (22) 
nan

>  <ATP_Site>  (22) 
nan

>  <Peripheral>  (22) 
nan

>  <Num_H_Atoms_ProtBoundConf>  (22) 
nan

>  <Num_Resolved_Atoms>  (22) 
nan

>  <Num_Not_Resolved_Atoms>  (22) 
nan

$$$$
CHEMBL4576509
     RDKit          3D

  0  0  0  0  0  0  0  0  0  0999 V3000
M  V30 BEGIN CTAB
M  V30 COUNTS 58 63 0 0 0
M  V30 BEGIN ATOM
M  V30 1 C 3.455349 -4.032588 0.263083 0
M  V30 2 N 4.232185 -2.903369 -0.226405 0
M  V30 3 C 5.609902 -3.126772 -0.560889 0
M  V30 4 C 6.258643 -1.990537 -1.272285 0
M  V30 5 O 5.578025 -0.767417 -1.218259 0
M  V30 6 C 4.263989 -0.580834 -0.843618 0
M  V30 7 C 3.573589 -1.662760 -0.338402 0
M  V30 8 C 2.268420 -1.440957 0.024110 0
M  V30 9 N 1.643973 -0.242576 -0.087920 0
M  V30 10 N 2.336144 0.790332 -0.580839 0
M  V30 11 C 1.953349 2.064262 -0.790162 0
M  V30 12 C 0.637134 2.632870 -0.514573 0
M  V30 13 C 0.408705 3.966185 -0.789122 0
M  V30 14 C -0.843240 4.499554 -0.525103 0
M  V30 15 C -1.892704 3.774077 0.002404 0
M  V30 16 C -3.121895 4.351289 0.247839 0
M  V30 17 C -4.086667 3.516497 0.776778 0
M  V30 18 C -3.841491 2.181280 1.046455 0
M  V30 19 C -2.596452 1.642763 0.785819 0
M  V30 20 N -2.363233 0.267731 1.069651 0
M  V30 21 C -3.360377 -0.622643 1.623732 0
M  V30 22 C -2.817216 -2.022641 1.812004 0
M  V30 23 F -1.760774 -1.937321 2.665766 0
M  V30 24 C -2.346998 -2.558763 0.499340 0
M  V30 25 C -2.633467 -4.048518 0.416147 0
M  V30 26 N -2.399739 -4.712533 1.667883 0
M  V30 27 C -3.263367 -4.266183 2.721389 0
M  V30 28 C -3.874171 -2.907976 2.413222 0
M  V30 29 C -1.597251 2.434813 0.256920 0
M  V30 30 N -0.381334 1.918400 0.000056 0
M  V30 31 N 3.018988 2.705719 -1.300944 0
M  V30 32 N 4.047864 1.849914 -1.408949 0
M  V30 33 C 3.637642 0.656037 -0.965060 0
M  V30 34 H 2.488392 -4.130866 -0.249146 0
M  V30 35 H 3.220879 -3.888489 1.343751 0
M  V30 36 H 3.992579 -4.998880 0.154684 0
M  V30 37 H 5.636749 -4.069057 -1.150611 0
M  V30 38 H 6.182648 -3.387687 0.376595 0
M  V30 39 H 6.338390 -2.266936 -2.364008 0
M  V30 40 H 7.328497 -1.827736 -0.965534 0
M  V30 41 H 1.729890 -2.302461 0.422738 0
M  V30 42 H 1.205562 4.574688 -1.204720 0
M  V30 43 H -1.003336 5.543246 -0.746137 0
M  V30 44 H -3.294542 5.402955 0.028917 0
M  V30 45 H -5.053389 4.008773 0.959791 0
M  V30 46 H -4.655371 1.576146 1.466799 0
M  V30 47 H -1.411382 -0.137298 0.868458 0
M  V30 48 H -3.603946 -0.249482 2.649496 0
M  V30 49 H -4.257689 -0.639064 0.993308 0
M  V30 50 H -2.902803 -2.008573 -0.306779 0
M  V30 51 H -1.259507 -2.362950 0.403658 0
M  V30 52 H -3.684565 -4.225991 0.087363 0
M  V30 53 H -1.975905 -4.479046 -0.346060 0
M  V30 54 H -1.406792 -4.798384 1.904713 0
M  V30 55 H -2.636972 -4.235873 3.653545 0
M  V30 56 H -4.051389 -5.017469 2.893573 0
M  V30 57 H -4.193476 -2.497755 3.391145 0
M  V30 58 H -4.731440 -3.047001 1.751658 0
M  V30 END ATOM
M  V30 BEGIN BOND
M  V30 1 1 1 2
M  V30 2 1 2 3
M  V30 3 1 3 4
M  V30 4 1 4 5
M  V30 5 1 5 6
M  V30 6 2 6 7
M  V30 7 1 7 8
M  V30 8 2 8 9
M  V30 9 1 9 10
M  V30 10 1 10 11
M  V30 11 1 11 12
M  V30 12 2 12 13
M  V30 13 1 13 14
M  V30 14 2 14 15
M  V30 15 1 15 16
M  V30 16 2 16 17
M  V30 17 1 17 18
M  V30 18 2 18 19
M  V30 19 1 19 20
M  V30 20 1 20 21
M  V30 21 1 21 22
M  V30 22 1 22 23
M  V30 23 1 22 24
M  V30 24 1 24 25
M  V30 25 1 25 26
M  V30 26 1 26 27
M  V30 27 1 27 28
M  V30 28 1 19 29
M  V30 29 2 29 30
M  V30 30 2 11 31
M  V30 31 1 31 32
M  V30 32 2 32 33
M  V30 33 1 7 2
M  V30 34 1 33 10
M  V30 35 1 33 6
M  V30 36 1 30 12
M  V30 37 1 29 15
M  V30 38 1 28 22
M  V30 39 1 1 34
M  V30 40 1 1 35
M  V30 41 1 1 36
M  V30 42 1 3 37
M  V30 43 1 3 38
M  V30 44 1 4 39
M  V30 45 1 4 40
M  V30 46 1 8 41
M  V30 47 1 13 42
M  V30 48 1 14 43
M  V30 49 1 16 44
M  V30 50 1 17 45
M  V30 51 1 18 46
M  V30 52 1 20 47
M  V30 53 1 21 48
M  V30 54 1 21 49
M  V30 55 1 24 50
M  V30 56 1 24 51
M  V30 57 1 25 52
M  V30 58 1 25 53
M  V30 59 1 26 54
M  V30 60 1 27 55
M  V30 61 1 27 56
M  V30 62 1 28 57
M  V30 63 1 28 58
M  V30 END BOND
M  V30 END CTAB
M  END
>  <Dataset>  (23) 
ChEMBL_Kinases

>  <Ligand_Instance>  (23) 
nan

>  <PDB_ID>  (23) 
nan

>  <Standardized_SMILES>  (23) 
CN1CCOc2c1cnn1c(-c3ccc4cccc(NCC5(F)CCNCC5)c4n3)nnc21

>  <Name>  (23) 
nan

>  <Pocket>  (23) 
nan

>  <ATP_Site>  (23) 
nan

>  <Peripheral>  (23) 
nan

>  <Num_H_Atoms_ProtBoundConf>  (23) 
nan

>  <Num_Resolved_Atoms>  (23) 
nan

>  <Num_Not_Resolved_Atoms>  (23) 
nan

$$$$
CHEMBL4576518
     RDKit          3D

  0  0  0  0  0  0  0  0  0  0999 V3000
M  V30 BEGIN CTAB
M  V30 COUNTS 47 51 0 0 0
M  V30 BEGIN ATOM
M  V30 1 N -2.194990 0.253894 5.809784 0
M  V30 2 C -1.563073 1.433427 5.213555 0
M  V30 3 C -1.089791 1.022989 3.865463 0
M  V30 4 C 0.189362 0.516834 3.793346 0
M  V30 5 C 0.765372 0.094480 2.609133 0
M  V30 6 C -0.050714 0.218391 1.476376 0
M  V30 7 N 0.475518 -0.204752 0.249120 0
M  V30 8 C 1.162949 0.538970 -0.625946 0
M  V30 9 C 1.583791 1.925368 -0.638899 0
M  V30 10 C 1.353303 2.872604 0.326593 0
M  V30 11 C 1.773284 4.178875 0.269947 0
M  V30 12 C 2.484818 4.596414 -0.834188 0
M  V30 13 N 2.724980 3.688306 -1.795855 0
M  V30 14 C 2.294879 2.397153 -1.711680 0
M  V30 15 N 2.645088 1.580192 -2.828948 0
M  V30 16 N 1.452623 -0.294782 -1.639107 0
M  V30 17 C 0.960854 -1.519013 -1.401964 0
M  V30 18 C 1.053192 -2.637631 -2.204091 0
M  V30 19 C 0.451687 -3.810302 -1.731490 0
M  V30 20 C -0.186063 -3.753361 -0.500061 0
M  V30 21 C -0.834476 -4.960925 0.041762 0
M  V30 22 C -1.489470 -4.991452 1.256927 0
M  V30 23 N -1.932883 -6.272913 1.372106 0
M  V30 24 N -1.565381 -6.955239 0.297811 0
M  V30 25 C -0.875224 -6.192357 -0.572589 0
M  V30 26 N -0.239495 -2.615050 0.239845 0
M  V30 27 C 0.325780 -1.469397 -0.179710 0
M  V30 28 C -1.346468 0.720614 1.487314 0
M  V30 29 C -1.840788 1.118747 2.714852 0
M  V30 30 H -3.054485 0.081646 5.236001 0
M  V30 31 H -2.488628 0.413738 6.783245 0
M  V30 32 H -2.372972 2.197795 5.149181 0
M  V30 33 H -0.724597 1.757404 5.852921 0
M  V30 34 H 0.816432 0.422946 4.671949 0
M  V30 35 H 1.763319 -0.308583 2.504236 0
M  V30 36 H 0.801015 2.588606 1.206680 0
M  V30 37 H 1.552849 4.863582 1.069219 0
M  V30 38 H 2.814229 5.622783 -0.877733 0
M  V30 39 H 1.940433 1.311967 -3.577500 0
M  V30 40 H 3.652870 1.310841 -2.781640 0
M  V30 41 H 1.566863 -2.605471 -3.152178 0
M  V30 42 H 0.494417 -4.720360 -2.323117 0
M  V30 43 H -1.643876 -4.203749 1.989501 0
M  V30 44 H -1.787529 -7.975624 0.143377 0
M  V30 45 H -0.458909 -6.496103 -1.526343 0
M  V30 46 H -1.918795 0.790155 0.589807 0
M  V30 47 H -2.851217 1.524075 2.804586 0
M  V30 END ATOM
M  V30 BEGIN BOND
M  V30 1 1 1 2
M  V30 2 1 2 3
M  V30 3 2 3 4
M  V30 4 1 4 5
M  V30 5 2 5 6
M  V30 6 1 6 7
M  V30 7 1 7 8
M  V30 8 1 8 9
M  V30 9 2 9 10
M  V30 10 1 10 11
M  V30 11 2 11 12
M  V30 12 1 12 13
M  V30 13 2 13 14
M  V30 14 1 14 15
M  V30 15 2 8 16
M  V30 16 1 16 17
M  V30 17 2 17 18
M  V30 18 1 18 19
M  V30 19 2 19 20
M  V30 20 1 20 21
M  V30 21 1 21 22
M  V30 22 2 22 23
M  V30 23 1 23 24
M  V30 24 1 24 25
M  V30 25 1 20 26
M  V30 26 2 26 27
M  V30 27 1 6 28
M  V30 28 2 28 29
M  V30 29 1 29 3
M  V30 30 1 27 7
M  V30 31 1 14 9
M  V30 32 1 27 17
M  V30 33 2 25 21
M  V30 34 1 1 30
M  V30 35 1 1 31
M  V30 36 1 2 32
M  V30 37 1 2 33
M  V30 38 1 4 34
M  V30 39 1 5 35
M  V30 40 1 10 36
M  V30 41 1 11 37
M  V30 42 1 12 38
M  V30 43 1 15 39
M  V30 44 1 15 40
M  V30 45 1 18 41
M  V30 46 1 19 42
M  V30 47 1 22 43
M  V30 48 1 24 44
M  V30 49 1 25 45
M  V30 50 1 28 46
M  V30 51 1 29 47
M  V30 END BOND
M  V30 END CTAB
M  END
>  <Dataset>  (24) 
ChEMBL_Kinases

>  <Ligand_Instance>  (24) 
nan

>  <PDB_ID>  (24) 
nan

>  <Standardized_SMILES>  (24) 
NCc1ccc(-n2c(-c3cccnc3N)nc3ccc(-c4cn[nH]c4)nc32)cc1

>  <Name>  (24) 
nan

>  <Pocket>  (24) 
nan

>  <ATP_Site>  (24) 
nan

>  <Peripheral>  (24) 
nan

>  <Num_H_Atoms_ProtBoundConf>  (24) 
nan

>  <Num_Resolved_Atoms>  (24) 
nan

>  <Num_Not_Resolved_Atoms>  (24) 
nan

$$$$
CHEMBL4576641
     RDKit          3D

  0  0  0  0  0  0  0  0  0  0999 V3000
M  V30 BEGIN CTAB
M  V30 COUNTS 86 90 0 0 0
M  V30 BEGIN ATOM
M  V30 1 C 2.992829 -0.425549 5.670343 0
M  V30 2 C 4.224919 -0.943008 5.007763 0
M  V30 3 C 4.095123 -1.288528 3.545531 0 CFG=2
M  V30 4 C 5.465251 -1.813243 3.172958 0
M  V30 5 O 6.443495 -1.926496 3.995385 0
M  V30 6 N 5.664727 -2.201102 1.820093 0
M  V30 7 C 6.599433 -3.244573 1.465571 0
M  V30 8 C 4.878506 -1.477948 0.876389 0
M  V30 9 C 5.056419 -1.849046 -0.435612 0
M  V30 10 N 4.333688 -1.203027 -1.368733 0
M  V30 11 C 3.463714 -0.220818 -1.004338 0
M  V30 12 N 2.594381 0.608697 -1.762693 0
M  V30 13 C 1.281648 0.159906 -2.075952 0
M  V30 14 C 0.867599 -1.102522 -1.702878 0
M  V30 15 C -0.395538 -1.504024 -2.023520 0
M  V30 16 C -1.324811 -0.758489 -2.699144 0
M  V30 17 C -2.668831 -1.149601 -3.057900 0
M  V30 18 O -3.435626 -0.316401 -3.633476 0
M  V30 19 N -3.201239 -2.433650 -2.803539 0
M  V30 20 C -4.547995 -2.903400 -3.128614 0
M  V30 21 C -5.540555 -2.060470 -2.398601 0
M  V30 22 N -6.924919 -2.426763 -2.633806 0
M  V30 23 C -7.727505 -1.509504 -1.838141 0
M  V30 24 C -7.464384 -1.677795 -0.363218 0
M  V30 25 N -7.531393 -3.049094 0.043849 0
M  V30 26 C -7.040610 -3.229422 1.379461 0
M  V30 27 C -6.828474 -3.970080 -0.814327 0
M  V30 28 C -7.253909 -3.762969 -2.242710 0
M  V30 29 C -0.875001 0.515993 -3.063651 0
M  V30 30 C 0.393716 0.962524 -2.760118 0
M  V30 31 O 0.855316 2.210834 -3.108637 0
M  V30 32 C 0.064771 3.158590 -3.814795 0
M  V30 33 C 0.919560 4.398891 -4.005886 0
M  V30 34 O 1.308738 4.921997 -2.775522 0
M  V30 35 N 3.361454 0.067683 0.289877 0
M  V30 36 C 4.001820 -0.476410 1.318418 0
M  V30 37 N 3.828457 -0.107657 2.695819 0
M  V30 38 C 3.443689 1.229846 2.921242 0
M  V30 39 C 3.739284 2.214511 1.789144 0
M  V30 40 C 3.297574 3.493752 2.557592 0
M  V30 41 C 2.012861 3.021240 3.258345 0
M  V30 42 C 1.950027 1.501350 3.010546 0
M  V30 43 H 2.926411 0.679092 5.709796 0
M  V30 44 H 2.069484 -0.866970 5.201530 0
M  V30 45 H 2.919330 -0.787824 6.743401 0
M  V30 46 H 4.530764 -1.857985 5.597507 0
M  V30 47 H 5.101192 -0.245851 5.173633 0
M  V30 48 H 3.366783 -2.080174 3.379835 0
M  V30 49 H 6.120388 -4.084197 0.933213 0
M  V30 50 H 7.472661 -2.844856 0.893186 0
M  V30 51 H 7.014996 -3.660492 2.405830 0
M  V30 52 H 5.733043 -2.617158 -0.743612 0
M  V30 53 H 2.911309 1.545115 -2.092716 0
M  V30 54 H 1.542386 -1.776659 -1.154118 0
M  V30 55 H -0.680109 -2.489970 -1.718281 0
M  V30 56 H -2.513389 -3.078778 -2.329599 0
M  V30 57 H -4.584681 -3.970744 -2.891708 0
M  V30 58 H -4.650832 -2.822825 -4.241783 0
M  V30 59 H -5.274422 -2.072919 -1.323594 0
M  V30 60 H -5.444761 -1.013420 -2.730471 0
M  V30 61 H -8.799086 -1.714377 -1.999133 0
M  V30 62 H -7.492209 -0.493487 -2.167991 0
M  V30 63 H -8.298904 -1.150496 0.176276 0
M  V30 64 H -6.546812 -1.158925 -0.018981 0
M  V30 65 H -7.403436 -4.234719 1.738156 0
M  V30 66 H -5.930522 -3.306769 1.426023 0
M  V30 67 H -7.378897 -2.441866 2.098299 0
M  V30 68 H -7.186515 -4.997645 -0.528259 0
M  V30 69 H -5.739488 -3.951759 -0.684403 0
M  V30 70 H -6.917505 -4.556044 -2.922692 0
M  V30 71 H -8.380268 -3.810398 -2.223970 0
M  V30 72 H -1.491327 1.220255 -3.601450 0
M  V30 73 H -0.334091 2.798465 -4.762033 0
M  V30 74 H -0.766506 3.437345 -3.126226 0
M  V30 75 H 0.349247 5.113600 -4.611818 0
M  V30 76 H 1.846054 4.181290 -4.573505 0
M  V30 77 H 2.284776 5.044387 -2.711987 0
M  V30 78 H 3.908695 1.680294 3.811068 0
M  V30 79 H 4.776352 2.253185 1.486604 0
M  V30 80 H 2.998751 2.175620 0.969217 0
M  V30 81 H 4.105067 3.699476 3.287575 0
M  V30 82 H 3.109539 4.314893 1.845615 0
M  V30 83 H 2.164937 3.143604 4.352140 0
M  V30 84 H 1.131135 3.534853 2.868855 0
M  V30 85 H 1.467845 1.341824 2.006510 0
M  V30 86 H 1.471883 0.961788 3.798919 0
M  V30 END ATOM
M  V30 BEGIN BOND
M  V30 1 1 1 2
M  V30 2 1 2 3
M  V30 3 1 3 4
M  V30 4 2 4 5
M  V30 5 1 4 6
M  V30 6 1 6 7
M  V30 7 1 6 8
M  V30 8 2 8 9
M  V30 9 1 9 10
M  V30 10 2 10 11
M  V30 11 1 11 12
M  V30 12 1 12 13
M  V30 13 2 13 14
M  V30 14 1 14 15
M  V30 15 2 15 16
M  V30 16 1 16 17
M  V30 17 2 17 18
M  V30 18 1 17 19
M  V30 19 1 19 20
M  V30 20 1 20 21
M  V30 21 1 21 22
M  V30 22 1 22 23
M  V30 23 1 23 24
M  V30 24 1 24 25
M  V30 25 1 25 26
M  V30 26 1 25 27
M  V30 27 1 27 28
M  V30 28 1 16 29
M  V30 29 2 29 30
M  V30 30 1 30 31
M  V30 31 1 31 32
M  V30 32 1 32 33
M  V30 33 1 33 34
M  V30 34 1 11 35
M  V30 35 2 35 36
M  V30 36 1 36 37
M  V30 37 1 37 38
M  V30 38 1 38 39
M  V30 39 1 39 40
M  V30 40 1 40 41
M  V30 41 1 41 42
M  V30 42 1 37 3
M  V30 43 1 42 38
M  V30 44 1 36 8
M  V30 45 1 30 13
M  V30 46 1 28 22
M  V30 47 1 1 43
M  V30 48 1 1 44
M  V30 49 1 1 45
M  V30 50 1 2 46
M  V30 51 1 2 47
M  V30 52 1 3 48 CFG=1
M  V30 53 1 7 49
M  V30 54 1 7 50
M  V30 55 1 7 51
M  V30 56 1 9 52
M  V30 57 1 12 53
M  V30 58 1 14 54
M  V30 59 1 15 55
M  V30 60 1 19 56
M  V30 61 1 20 57
M  V30 62 1 20 58
M  V30 63 1 21 59
M  V30 64 1 21 60
M  V30 65 1 23 61
M  V30 66 1 23 62
M  V30 67 1 24 63
M  V30 68 1 24 64
M  V30 69 1 26 65
M  V30 70 1 26 66
M  V30 71 1 26 67
M  V30 72 1 27 68
M  V30 73 1 27 69
M  V30 74 1 28 70
M  V30 75 1 28 71
M  V30 76 1 29 72
M  V30 77 1 32 73
M  V30 78 1 32 74
M  V30 79 1 33 75
M  V30 80 1 33 76
M  V30 81 1 34 77
M  V30 82 1 38 78
M  V30 83 1 39 79
M  V30 84 1 39 80
M  V30 85 1 40 81
M  V30 86 1 40 82
M  V30 87 1 41 83
M  V30 88 1 41 84
M  V30 89 1 42 85
M  V30 90 1 42 86
M  V30 END BOND
M  V30 END CTAB
M  END
>  <Dataset>  (25) 
ChEMBL_Kinases

>  <Ligand_Instance>  (25) 
nan

>  <PDB_ID>  (25) 
nan

>  <Standardized_SMILES>  (25) 
CC[C@@H]1C(=O)N(C)c2cnc(Nc3ccc(C(=O)NCCN4CCN(C)CC4)cc3OCCO)nc2N1C1CCCC1

>  <Name>  (25) 
nan

>  <Pocket>  (25) 
nan

>  <ATP_Site>  (25) 
nan

>  <Peripheral>  (25) 
nan

>  <Num_H_Atoms_ProtBoundConf>  (25) 
nan

>  <Num_Resolved_Atoms>  (25) 
nan

>  <Num_Not_Resolved_Atoms>  (25) 
nan

$$$$
CHEMBL2111784
     RDKit          3D

  0  0  0  0  0  0  0  0  0  0999 V3000
M  V30 BEGIN CTAB
M  V30 COUNTS 63 67 0 0 0
M  V30 BEGIN ATOM
M  V30 1 C 1.214547 -1.140474 4.894790 0
M  V30 2 C 0.069678 -2.089751 4.947732 0 CFG=2
M  V30 3 N 0.455065 -3.391788 4.414349 0
M  V30 4 C 0.931705 -3.545286 3.072305 0
M  V30 5 C 1.030760 -2.523803 2.181744 0
M  V30 6 C 1.505103 -2.645275 0.879270 0
M  V30 7 C 1.565359 -1.462291 -0.010077 0
M  V30 8 S 3.029836 -0.436175 -0.617278 0
M  V30 9 C 1.864123 0.688786 -1.583171 0
M  V30 10 C 2.449530 1.835345 -2.373189 0
M  V30 11 C 1.827338 3.146522 -2.003979 0
M  V30 12 C 0.436152 3.350848 -2.516523 0
M  V30 13 N 0.013596 2.224934 -3.284705 0
M  V30 14 C -1.356361 2.321051 -3.738752 0
M  V30 15 C 0.917621 1.903042 -4.367279 0
M  V30 16 C 2.250677 1.527874 -3.819908 0
M  V30 17 N 0.845786 0.242009 -1.360482 0
M  V30 18 C 0.501281 -0.801198 -0.619255 0
M  V30 19 C -0.895943 -1.194653 -0.484813 0
M  V30 20 C -1.920506 -0.447084 0.056922 0
M  V30 21 C -3.152557 -1.059909 0.056678 0
M  V30 22 C -3.438579 -2.317586 -0.423610 0
M  V30 23 F -4.683839 -2.831903 -0.377996 0
M  V30 24 C -2.377031 -3.048861 -0.965933 0
M  V30 25 C -1.128676 -2.460167 -0.979883 0
M  V30 26 C 1.908661 -3.890495 0.444984 0
M  V30 27 C 1.801938 -4.917330 1.359703 0
M  V30 28 N 1.334648 -4.736176 2.606463 0
M  V30 29 C -1.197431 -1.598725 4.369506 0
M  V30 30 C -2.118543 -2.652838 4.350877 0
M  V30 31 C -3.407940 -2.478353 3.861777 0
M  V30 32 C -3.809985 -1.248521 3.379163 0
M  V30 33 C -2.895771 -0.223130 3.403534 0
M  V30 34 C -1.616564 -0.387830 3.886382 0
M  V30 35 H 1.019314 -0.177305 4.413579 0
M  V30 36 H 2.111942 -1.643147 4.436562 0
M  V30 37 H 1.583721 -0.880442 5.931806 0
M  V30 38 H -0.120877 -2.293539 6.041500 0
M  V30 39 H 0.402073 -4.285668 4.988306 0
M  V30 40 H 0.729302 -1.523335 2.462079 0
M  V30 41 H 3.542512 1.846056 -2.172037 0
M  V30 42 H 2.467613 3.944534 -2.447189 0
M  V30 43 H 1.887985 3.286577 -0.900592 0
M  V30 44 H -0.244892 3.391166 -1.622186 0
M  V30 45 H 0.292891 4.321713 -3.030070 0
M  V30 46 H -1.971316 1.809424 -2.953263 0
M  V30 47 H -1.714123 3.348572 -3.821544 0
M  V30 48 H -1.526517 1.752247 -4.676130 0
M  V30 49 H 0.482212 1.054168 -4.930305 0
M  V30 50 H 1.024046 2.738103 -5.098578 0
M  V30 51 H 3.088946 1.992186 -4.411162 0
M  V30 52 H 2.417021 0.423686 -3.954704 0
M  V30 53 H -1.663495 0.517390 0.418514 0
M  V30 54 H -3.975385 -0.487832 0.478827 0
M  V30 55 H -2.620168 -4.031951 -1.337391 0
M  V30 56 H -0.388800 -3.120978 -1.422668 0
M  V30 57 H 2.281884 -4.022861 -0.562144 0
M  V30 58 H 2.100472 -5.914247 1.081782 0
M  V30 59 H -1.993052 -3.680681 4.681828 0
M  V30 60 H -4.177374 -3.236297 3.812941 0
M  V30 61 H -4.749291 -0.927140 2.968198 0
M  V30 62 H -3.056125 0.799253 3.060763 0
M  V30 63 H -0.839660 0.356969 3.944229 0
M  V30 END ATOM
M  V30 BEGIN BOND
M  V30 1 1 1 2
M  V30 2 1 2 3
M  V30 3 1 3 4
M  V30 4 2 4 5
M  V30 5 1 5 6
M  V30 6 1 6 7
M  V30 7 1 7 8
M  V30 8 1 8 9
M  V30 9 1 9 10
M  V30 10 1 10 11
M  V30 11 1 11 12
M  V30 12 1 12 13
M  V30 13 1 13 14
M  V30 14 1 13 15
M  V30 15 1 15 16
M  V30 16 2 9 17
M  V30 17 1 17 18
M  V30 18 1 18 19
M  V30 19 2 19 20
M  V30 20 1 20 21
M  V30 21 2 21 22
M  V30 22 1 22 23
M  V30 23 1 22 24
M  V30 24 2 24 25
M  V30 25 2 6 26
M  V30 26 1 26 27
M  V30 27 2 27 28
M  V30 28 1 2 29
M  V30 29 2 29 30
M  V30 30 1 30 31
M  V30 31 2 31 32
M  V30 32 1 32 33
M  V30 33 2 33 34
M  V30 34 1 28 4
M  V30 35 1 34 29
M  V30 36 2 18 7
M  V30 37 1 25 19
M  V30 38 1 16 10
M  V30 39 1 1 35
M  V30 40 1 1 36
M  V30 41 1 1 37
M  V30 42 1 2 38 CFG=1
M  V30 43 1 3 39
M  V30 44 1 5 40
M  V30 45 1 10 41
M  V30 46 1 11 42
M  V30 47 1 11 43
M  V30 48 1 12 44
M  V30 49 1 12 45
M  V30 50 1 14 46
M  V30 51 1 14 47
M  V30 52 1 14 48
M  V30 53 1 15 49
M  V30 54 1 15 50
M  V30 55 1 16 51
M  V30 56 1 16 52
M  V30 57 1 20 53
M  V30 58 1 21 54
M  V30 59 1 24 55
M  V30 60 1 25 56
M  V30 61 1 26 57
M  V30 62 1 27 58
M  V30 63 1 30 59
M  V30 64 1 31 60
M  V30 65 1 32 61
M  V30 66 1 33 62
M  V30 67 1 34 63
M  V30 END BOND
M  V30 END CTAB
M  END
>  <Dataset>  (26) 
ChEMBL_Kinases

>  <Ligand_Instance>  (26) 
nan

>  <PDB_ID>  (26) 
nan

>  <Standardized_SMILES>  (26) 
C[C@H](Nc1cc(-c2sc(C3CCN(C)CC3)nc2-c2ccc(F)cc2)ccn1)c1ccccc1

>  <Name>  (26) 
nan

>  <Pocket>  (26) 
nan

>  <ATP_Site>  (26) 
nan

>  <Peripheral>  (26) 
nan

>  <Num_H_Atoms_ProtBoundConf>  (26) 
nan

>  <Num_Resolved_Atoms>  (26) 
nan

>  <Num_Not_Resolved_Atoms>  (26) 
nan

$$$$
CHEMBL211243
     RDKit          3D

  0  0  0  0  0  0  0  0  0  0999 V3000
M  V30 BEGIN CTAB
M  V30 COUNTS 35 38 0 0 0
M  V30 BEGIN ATOM
M  V30 1 C 1.656147 -2.901761 2.858336 0
M  V30 2 O 1.194238 -1.665540 2.292409 0
M  V30 3 N -0.087259 -1.331187 2.665082 0
M  V30 4 C -0.841423 -0.824185 1.748379 0
M  V30 5 C -0.505095 -0.557773 0.353692 0
M  V30 6 C 0.775051 -0.813353 -0.305764 0
M  V30 7 C 1.467944 -1.974856 -0.665382 0
M  V30 8 O 0.902513 -3.213316 -0.377641 0
M  V30 9 N 2.622078 -1.623662 -1.258410 0
M  V30 10 C 2.742098 -0.285825 -1.316676 0
M  V30 11 C 3.747925 0.513704 -1.832219 0
M  V30 12 C 3.613846 1.883422 -1.759646 0
M  V30 13 C 2.495308 2.442398 -1.182556 0
M  V30 14 C 1.510215 1.606410 -0.677776 0
M  V30 15 C 1.593327 0.224383 -0.724155 0
M  V30 16 N -1.542084 -0.049383 -0.215581 0
M  V30 17 C -2.629828 0.076707 0.678274 0
M  V30 18 C -3.928689 0.544157 0.585256 0
M  V30 19 C -4.764340 0.526675 1.690686 0
M  V30 20 C -4.350447 0.050521 2.918443 0
M  V30 21 C -3.053334 -0.424323 3.040719 0
M  V30 22 C -2.244112 -0.393993 1.921182 0
M  V30 23 H 1.132084 -3.715516 2.316602 0
M  V30 24 H 1.276538 -2.976149 3.918180 0
M  V30 25 H 2.740871 -2.986433 2.889434 0
M  V30 26 H 0.725181 -3.909967 -1.071476 0
M  V30 27 H 3.278869 -2.359361 -1.598328 0
M  V30 28 H 4.626367 0.071944 -2.285435 0
M  V30 29 H 4.402695 2.529362 -2.163923 0
M  V30 30 H 2.433613 3.520086 -1.147983 0
M  V30 31 H 0.652102 2.087093 -0.234908 0
M  V30 32 H -4.267637 0.921681 -0.374737 0
M  V30 33 H -5.784006 0.895476 1.611026 0
M  V30 34 H -5.020627 0.051353 3.750629 0
M  V30 35 H -2.675964 -0.810243 3.983559 0
M  V30 END ATOM
M  V30 BEGIN BOND
M  V30 1 1 1 2
M  V30 2 1 2 3
M  V30 3 2 3 4
M  V30 4 1 4 5
M  V30 5 1 5 6
M  V30 6 2 6 7
M  V30 7 1 7 8
M  V30 8 1 7 9
M  V30 9 1 9 10
M  V30 10 2 10 11
M  V30 11 1 11 12
M  V30 12 2 12 13
M  V30 13 1 13 14
M  V30 14 2 14 15
M  V30 15 2 5 16
M  V30 16 1 16 17
M  V30 17 2 17 18
M  V30 18 1 18 19
M  V30 19 2 19 20
M  V30 20 1 20 21
M  V30 21 2 21 22
M  V30 22 1 22 4
M  V30 23 1 15 6
M  V30 24 1 22 17
M  V30 25 1 15 10
M  V30 26 1 1 23
M  V30 27 1 1 24
M  V30 28 1 1 25
M  V30 29 1 8 26
M  V30 30 1 9 27
M  V30 31 1 11 28
M  V30 32 1 12 29
M  V30 33 1 13 30
M  V30 34 1 14 31
M  V30 35 1 18 32
M  V30 36 1 19 33
M  V30 37 1 20 34
M  V30 38 1 21 35
M  V30 END BOND
M  V30 END CTAB
M  END
>  <Dataset>  (27) 
ChEMBL_Kinases

>  <Ligand_Instance>  (27) 
nan

>  <PDB_ID>  (27) 
nan

>  <Standardized_SMILES>  (27) 
CO/N=C1\C(c2c(O)[nH]c3ccccc23)=Nc2ccccc21

>  <Name>  (27) 
nan

>  <Pocket>  (27) 
nan

>  <ATP_Site>  (27) 
nan

>  <Peripheral>  (27) 
nan

>  <Num_H_Atoms_ProtBoundConf>  (27) 
nan

>  <Num_Resolved_Atoms>  (27) 
nan

>  <Num_Not_Resolved_Atoms>  (27) 
nan

$$$$
CHEMBL2177390
     RDKit          3D

  0  0  0  0  0  0  0  0  0  0999 V3000
M  V30 BEGIN CTAB
M  V30 COUNTS 64 67 0 0 0
M  V30 BEGIN ATOM
M  V30 1 C 3.867462 2.717484 1.410973 0
M  V30 2 C 4.054097 1.513835 2.277903 0
M  V30 3 C 4.285691 1.804301 3.722842 0
M  V30 4 N 2.918323 0.625596 2.076183 0
M  V30 5 C 2.829888 0.212918 0.689157 0
M  V30 6 C 1.650496 -0.701824 0.519798 0 CFG=1
M  V30 7 C 0.396056 -0.012247 0.897495 0
M  V30 8 O 0.109454 1.188502 1.148960 0
M  V30 9 N -0.844001 -0.690937 1.055768 0
M  V30 10 C -1.960715 0.154636 1.425931 0
M  V30 11 C -3.246462 -0.332148 0.813630 0
M  V30 12 N -3.016905 -1.106319 -0.389223 0
M  V30 13 C -3.578997 -1.092867 -1.715212 0
M  V30 14 N -4.411782 -2.149297 -1.825049 0
M  V30 15 C -5.120007 -2.398268 -2.941632 0
M  V30 16 N -4.973490 -1.544241 -3.975159 0
M  V30 17 C -4.134614 -0.476149 -3.871998 0
M  V30 18 C -3.392625 -0.207914 -2.715221 0
M  V30 19 C -2.558210 0.965034 -2.857917 0 CFG=2
M  V30 20 C -2.285465 1.802326 -1.674708 0
M  V30 21 C -3.336980 1.730163 -3.944690 0
M  V30 22 C -3.813003 0.589115 -4.855888 0 CFG=1
M  V30 23 O -2.831370 0.224534 -5.765190 0
M  V30 24 C -2.004765 -2.174837 -0.368056 0
M  V30 25 C -1.220509 -2.086197 0.920847 0
M  V30 26 C 1.593875 -1.373648 -0.779674 0
M  V30 27 C 1.403651 -0.523828 -1.851871 0
M  V30 28 C 1.325532 -0.986993 -3.164520 0
M  V30 29 C 1.443777 -2.358252 -3.403473 0
M  V30 30 Cl 1.368909 -3.105844 -4.988716 0
M  V30 31 C 1.636270 -3.232268 -2.333824 0
M  V30 32 C 1.705673 -2.717247 -1.056660 0
M  V30 33 H 2.783734 2.858942 1.232921 0
M  V30 34 H 4.366221 2.585401 0.423933 0
M  V30 35 H 4.288191 3.639028 1.859839 0
M  V30 36 H 4.948806 0.944273 1.909635 0
M  V30 37 H 3.771522 1.119040 4.427835 0
M  V30 38 H 3.978823 2.866842 3.939321 0
M  V30 39 H 5.372475 1.766119 3.972870 0
M  V30 40 H 2.088293 1.150944 2.385052 0
M  V30 41 H 2.748560 1.124510 0.042929 0
M  V30 42 H 3.783013 -0.242925 0.429910 0
M  V30 43 H 1.794791 -1.522130 1.283536 0
M  V30 44 H -1.813678 1.226907 1.187820 0
M  V30 45 H -2.045193 0.148948 2.557420 0
M  V30 46 H -3.903887 0.541564 0.570499 0
M  V30 47 H -3.784240 -1.002483 1.553568 0
M  V30 48 H -5.801646 -3.221155 -3.096810 0
M  V30 49 H -1.594641 0.709056 -3.355285 0
M  V30 50 H -3.125174 2.065041 -1.041927 0
M  V30 51 H -1.401057 1.367664 -1.135657 0
M  V30 52 H -1.886939 2.798975 -2.051644 0
M  V30 53 H -2.669218 2.431797 -4.462049 0
M  V30 54 H -4.251982 2.202484 -3.529455 0
M  V30 55 H -4.783347 0.855390 -5.360162 0
M  V30 56 H -2.931391 0.684373 -6.619996 0
M  V30 57 H -2.563966 -3.132205 -0.370719 0
M  V30 58 H -1.342540 -2.142163 -1.256686 0
M  V30 59 H -1.882493 -2.359124 1.767584 0
M  V30 60 H -0.374174 -2.768294 0.957586 0
M  V30 61 H 1.299271 0.552713 -1.785708 0
M  V30 62 H 1.178039 -0.360289 -4.029607 0
M  V30 63 H 1.734439 -4.303854 -2.461118 0
M  V30 64 H 1.855093 -3.335387 -0.160927 0
M  V30 END ATOM
M  V30 BEGIN BOND
M  V30 1 1 1 2
M  V30 2 1 2 3
M  V30 3 1 2 4
M  V30 4 1 4 5
M  V30 5 1 5 6
M  V30 6 1 6 7
M  V30 7 2 7 8
M  V30 8 1 7 9
M  V30 9 1 9 10
M  V30 10 1 10 11
M  V30 11 1 11 12
M  V30 12 1 12 13
M  V30 13 2 13 14
M  V30 14 1 14 15
M  V30 15 2 15 16
M  V30 16 1 16 17
M  V30 17 2 17 18
M  V30 18 1 18 19
M  V30 19 1 19 20
M  V30 20 1 19 21
M  V30 21 1 21 22
M  V30 22 1 22 23
M  V30 23 1 12 24
M  V30 24 1 24 25
M  V30 25 1 6 26
M  V30 26 2 26 27
M  V30 27 1 27 28
M  V30 28 2 28 29
M  V30 29 1 29 30
M  V30 30 1 29 31
M  V30 31 2 31 32
M  V30 32 1 25 9
M  V30 33 1 32 26
M  V30 34 1 18 13
M  V30 35 1 22 17
M  V30 36 1 1 33
M  V30 37 1 1 34
M  V30 38 1 1 35
M  V30 39 1 2 36
M  V30 40 1 3 37
M  V30 41 1 3 38
M  V30 42 1 3 39
M  V30 43 1 4 40
M  V30 44 1 5 41
M  V30 45 1 5 42
M  V30 46 1 6 43 CFG=1
M  V30 47 1 10 44
M  V30 48 1 10 45
M  V30 49 1 11 46
M  V30 50 1 11 47
M  V30 51 1 15 48
M  V30 52 1 19 49 CFG=3
M  V30 53 1 20 50
M  V30 54 1 20 51
M  V30 55 1 20 52
M  V30 56 1 21 53
M  V30 57 1 21 54
M  V30 58 1 22 55 CFG=3
M  V30 59 1 23 56
M  V30 60 1 24 57
M  V30 61 1 24 58
M  V30 62 1 25 59
M  V30 63 1 25 60
M  V30 64 1 27 61
M  V30 65 1 28 62
M  V30 66 1 31 63
M  V30 67 1 32 64
M  V30 END BOND
M  V30 END CTAB
M  END
>  <Dataset>  (28) 
ChEMBL_Kinases

>  <Ligand_Instance>  (28) 
nan

>  <PDB_ID>  (28) 
nan

>  <Standardized_SMILES>  (28) 
CC(C)NC[C@@H](C(=O)N1CCN(c2ncnc3c2[C@H](C)C[C@H]3O)CC1)c1ccc(Cl)cc1

>  <Name>  (28) 
IPATASERTIB

>  <Pocket>  (28) 
nan

>  <ATP_Site>  (28) 
nan

>  <Peripheral>  (28) 
nan

>  <Num_H_Atoms_ProtBoundConf>  (28) 
nan

>  <Num_Resolved_Atoms>  (28) 
nan

>  <Num_Not_Resolved_Atoms>  (28) 
nan

$$$$
CHEMBL2177372
     RDKit          3D

  0  0  0  0  0  0  0  0  0  0999 V3000
M  V30 BEGIN CTAB
M  V30 COUNTS 64 67 0 0 0
M  V30 BEGIN ATOM
M  V30 1 C 1.210575 -2.027761 4.948898 0
M  V30 2 C -0.235144 -2.400869 4.866465 0
M  V30 3 C -1.085935 -1.518471 5.728042 0
M  V30 4 N -0.760248 -2.308337 3.497809 0
M  V30 5 C -0.578126 -0.922636 3.121487 0
M  V30 6 C -1.052984 -0.766061 1.686820 0 CFG=1
M  V30 7 C -0.329916 -1.590516 0.722634 0
M  V30 8 O -0.862103 -2.450057 -0.026345 0
M  V30 9 N 1.052093 -1.629125 0.408070 0
M  V30 10 C 1.451080 -2.582058 -0.607278 0
M  V30 11 C 2.448619 -2.017621 -1.557906 0
M  V30 12 N 2.676074 -0.612365 -1.291776 0
M  V30 13 C 2.493037 0.509066 -2.135653 0
M  V30 14 N 3.626020 1.228547 -2.369969 0
M  V30 15 C 3.589581 2.333093 -3.167779 0
M  V30 16 N 2.446851 2.768715 -3.760822 0
M  V30 17 C 1.324518 2.038879 -3.516438 0
M  V30 18 C 1.316183 0.915087 -2.715931 0
M  V30 19 C -0.027730 0.325111 -2.624883 0 CFG=2
M  V30 20 C -0.216506 -0.908024 -3.480748 0
M  V30 21 C -0.934729 1.385964 -3.220553 0
M  V30 22 C -0.034520 2.289679 -4.030921 0 CFG=1
M  V30 23 O -0.407103 3.602769 -3.760776 0
M  V30 24 C 3.166653 -0.394694 0.056522 0
M  V30 25 C 2.068494 -0.801341 1.014828 0
M  V30 26 C -2.508012 -1.007021 1.687896 0
M  V30 27 C -3.363786 0.090102 1.838376 0
M  V30 28 C -4.744870 0.023611 1.844680 0
M  V30 29 C -5.325217 -1.213441 1.691631 0
M  V30 30 Cl -7.072656 -1.355498 1.692393 0
M  V30 31 C -4.530792 -2.323192 1.539951 0
M  V30 32 F -5.124408 -3.530425 1.390804 0
M  V30 33 C -3.157668 -2.195608 1.541420 0
M  V30 34 H 1.696302 -2.665258 5.708969 0
M  V30 35 H 1.403474 -0.983350 5.265942 0
M  V30 36 H 1.736605 -2.245232 3.995400 0
M  V30 37 H -0.347846 -3.454459 5.192560 0
M  V30 38 H -2.139027 -1.605603 5.335198 0
M  V30 39 H -1.089701 -1.943958 6.750810 0
M  V30 40 H -0.760462 -0.467810 5.785584 0
M  V30 41 H -1.780741 -2.563868 3.547241 0
M  V30 42 H -1.274162 -0.299928 3.737040 0
M  V30 43 H 0.469165 -0.686314 3.285763 0
M  V30 44 H -0.943331 0.322616 1.379845 0
M  V30 45 H 0.586633 -3.069716 -1.117470 0
M  V30 46 H 1.917612 -3.431674 -0.024258 0
M  V30 47 H 3.454715 -2.501773 -1.383580 0
M  V30 48 H 2.224503 -2.213746 -2.622800 0
M  V30 49 H 4.541133 2.867126 -3.314461 0
M  V30 50 H -0.356946 0.175970 -1.570879 0
M  V30 51 H -0.489403 -1.748993 -2.813932 0
M  V30 52 H 0.677634 -1.115317 -4.096005 0
M  V30 53 H -1.059372 -0.821011 -4.196941 0
M  V30 54 H -1.507437 1.933825 -2.440269 0
M  V30 55 H -1.683792 0.969160 -3.925146 0
M  V30 56 H -0.110504 2.056525 -5.122672 0
M  V30 57 H -1.289747 3.666789 -3.288637 0
M  V30 58 H 3.503141 0.651297 0.208751 0
M  V30 59 H 4.023383 -1.096442 0.228582 0
M  V30 60 H 1.647227 0.164838 1.389119 0
M  V30 61 H 2.474707 -1.372434 1.888001 0
M  V30 62 H -2.925301 1.092093 1.962734 0
M  V30 63 H -5.324831 0.928303 1.967405 0
M  V30 64 H -2.580488 -3.082538 1.410867 0
M  V30 END ATOM
M  V30 BEGIN BOND
M  V30 1 1 1 2
M  V30 2 1 2 3
M  V30 3 1 2 4
M  V30 4 1 4 5
M  V30 5 1 5 6
M  V30 6 1 6 7
M  V30 7 2 7 8
M  V30 8 1 7 9
M  V30 9 1 9 10
M  V30 10 1 10 11
M  V30 11 1 11 12
M  V30 12 1 12 13
M  V30 13 2 13 14
M  V30 14 1 14 15
M  V30 15 2 15 16
M  V30 16 1 16 17
M  V30 17 2 17 18
M  V30 18 1 18 19
M  V30 19 1 19 20
M  V30 20 1 19 21
M  V30 21 1 21 22
M  V30 22 1 22 23
M  V30 23 1 12 24
M  V30 24 1 24 25
M  V30 25 1 6 26
M  V30 26 2 26 27
M  V30 27 1 27 28
M  V30 28 2 28 29
M  V30 29 1 29 30
M  V30 30 1 29 31
M  V30 31 1 31 32
M  V30 32 2 31 33
M  V30 33 1 25 9
M  V30 34 1 33 26
M  V30 35 1 18 13
M  V30 36 1 22 17
M  V30 37 1 1 34
M  V30 38 1 1 35
M  V30 39 1 1 36
M  V30 40 1 2 37
M  V30 41 1 3 38
M  V30 42 1 3 39
M  V30 43 1 3 40
M  V30 44 1 4 41
M  V30 45 1 5 42
M  V30 46 1 5 43
M  V30 47 1 6 44 CFG=3
M  V30 48 1 10 45
M  V30 49 1 10 46
M  V30 50 1 11 47
M  V30 51 1 11 48
M  V30 52 1 15 49
M  V30 53 1 19 50 CFG=1
M  V30 54 1 20 51
M  V30 55 1 20 52
M  V30 56 1 20 53
M  V30 57 1 21 54
M  V30 58 1 21 55
M  V30 59 1 22 56 CFG=3
M  V30 60 1 23 57
M  V30 61 1 24 58
M  V30 62 1 24 59
M  V30 63 1 25 60
M  V30 64 1 25 61
M  V30 65 1 27 62
M  V30 66 1 28 63
M  V30 67 1 33 64
M  V30 END BOND
M  V30 END CTAB
M  END
>  <Dataset>  (29) 
ChEMBL_Kinases

>  <Ligand_Instance>  (29) 
nan

>  <PDB_ID>  (29) 
nan

>  <Standardized_SMILES>  (29) 
CC(C)NC[C@@H](C(=O)N1CCN(c2ncnc3c2[C@H](C)C[C@H]3O)CC1)c1ccc(Cl)c(F)c1

>  <Name>  (29) 
nan

>  <Pocket>  (29) 
nan

>  <ATP_Site>  (29) 
nan

>  <Peripheral>  (29) 
nan

>  <Num_H_Atoms_ProtBoundConf>  (29) 
nan

>  <Num_Resolved_Atoms>  (29) 
nan

>  <Num_Not_Resolved_Atoms>  (29) 
nan

$$$$
CHEMBL2177388
     RDKit          3D

  0  0  0  0  0  0  0  0  0  0999 V3000
M  V30 BEGIN CTAB
M  V30 COUNTS 63 66 0 0 0
M  V30 BEGIN ATOM
M  V30 1 C 3.169910 -5.555802 2.155199 0
M  V30 2 C 1.718465 -5.201783 2.356077 0
M  V30 3 C 1.584979 -4.522059 3.708932 0
M  V30 4 N 1.153953 -4.430042 1.311571 0
M  V30 5 C 1.761931 -3.170248 1.063253 0
M  V30 6 C 1.102740 -2.387508 -0.080921 0 CFG=1
M  V30 7 C -0.313869 -2.146622 0.262520 0
M  V30 8 O -1.236855 -2.602393 -0.503554 0
M  V30 9 N -1.125936 -1.530779 1.231941 0
M  V30 10 C -2.562498 -1.584593 1.025037 0
M  V30 11 C -3.222951 -0.377674 1.665293 0
M  V30 12 N -2.327987 0.760623 1.515305 0
M  V30 13 C -2.445077 2.001547 0.831659 0
M  V30 14 N -2.337720 3.083329 1.655028 0
M  V30 15 C -2.425143 4.346112 1.170656 0
M  V30 16 N -2.621478 4.569167 -0.144179 0
M  V30 17 C -2.732811 3.518927 -0.991828 0
M  V30 18 C -2.644481 2.232227 -0.503169 0
M  V30 19 C -2.788531 1.239167 -1.564511 0 CFG=2
M  V30 20 C -1.428118 0.753943 -2.078988 0
M  V30 21 F -0.722667 1.811417 -2.577055 0
M  V30 22 C -3.449898 2.004809 -2.672289 0
M  V30 23 C -2.946483 3.413586 -2.456646 0
M  V30 24 C -1.028551 0.641996 2.195475 0
M  V30 25 C -0.742249 -0.836857 2.455776 0
M  V30 26 C 1.894279 -1.206238 -0.403559 0
M  V30 27 C 2.248709 -0.116703 0.363723 0
M  V30 28 C 3.010568 0.935974 -0.094007 0
M  V30 29 C 3.468073 0.940818 -1.393767 0
M  V30 30 Cl 4.437731 2.263128 -2.004885 0
M  V30 31 C 3.155392 -0.107234 -2.212278 0
M  V30 32 C 2.401267 -1.119845 -1.711272 0
M  V30 33 H 3.370095 -6.476228 2.742681 0
M  V30 34 H 3.821213 -4.779534 2.654553 0
M  V30 35 H 3.442769 -5.754635 1.117962 0
M  V30 36 H 1.158243 -6.155548 2.456232 0
M  V30 37 H 1.850496 -5.244910 4.506044 0
M  V30 38 H 0.495065 -4.262456 3.809266 0
M  V30 39 H 2.158770 -3.594283 3.714283 0
M  V30 40 H 0.787161 -4.917647 0.491700 0
M  V30 41 H 1.884082 -2.566907 1.973918 0
M  V30 42 H 2.819651 -3.393172 0.731430 0
M  V30 43 H 1.078974 -3.121970 -0.939433 0
M  V30 44 H -2.760920 -1.644646 -0.046724 0
M  V30 45 H -2.909383 -2.532715 1.519884 0
M  V30 46 H -4.221309 -0.178201 1.241675 0
M  V30 47 H -3.319483 -0.592252 2.749041 0
M  V30 48 H -2.344068 5.225483 1.798146 0
M  V30 49 H -3.345387 0.334435 -1.266991 0
M  V30 50 H -0.848756 0.295751 -1.225146 0
M  V30 51 H -1.577737 -0.072935 -2.800858 0
M  V30 52 H -3.086242 1.638107 -3.654381 0
M  V30 53 H -4.555160 1.945539 -2.641157 0
M  V30 54 H -2.027000 3.646237 -3.023172 0
M  V30 55 H -3.780273 4.105055 -2.699720 0
M  V30 56 H -0.215305 1.125748 1.660056 0
M  V30 57 H -1.137223 1.137365 3.181991 0
M  V30 58 H -1.447670 -1.219775 3.252954 0
M  V30 59 H 0.245171 -1.047342 2.825230 0
M  V30 60 H 1.874125 -0.156438 1.376878 0
M  V30 61 H 3.230676 1.743207 0.595657 0
M  V30 62 H 3.512662 -0.106631 -3.232160 0
M  V30 63 H 2.186604 -1.931662 -2.424080 0
M  V30 END ATOM
M  V30 BEGIN BOND
M  V30 1 1 1 2
M  V30 2 1 2 3
M  V30 3 1 2 4
M  V30 4 1 4 5
M  V30 5 1 5 6
M  V30 6 1 6 7
M  V30 7 2 7 8
M  V30 8 1 7 9
M  V30 9 1 9 10
M  V30 10 1 10 11
M  V30 11 1 11 12
M  V30 12 1 12 13
M  V30 13 2 13 14
M  V30 14 1 14 15
M  V30 15 2 15 16
M  V30 16 1 16 17
M  V30 17 2 17 18
M  V30 18 1 18 19
M  V30 19 1 19 20
M  V30 20 1 20 21
M  V30 21 1 19 22
M  V30 22 1 22 23
M  V30 23 1 12 24
M  V30 24 1 24 25
M  V30 25 1 6 26
M  V30 26 2 26 27
M  V30 27 1 27 28
M  V30 28 2 28 29
M  V30 29 1 29 30
M  V30 30 1 29 31
M  V30 31 2 31 32
M  V30 32 1 25 9
M  V30 33 1 32 26
M  V30 34 1 18 13
M  V30 35 1 23 17
M  V30 36 1 1 33
M  V30 37 1 1 34
M  V30 38 1 1 35
M  V30 39 1 2 36
M  V30 40 1 3 37
M  V30 41 1 3 38
M  V30 42 1 3 39
M  V30 43 1 4 40
M  V30 44 1 5 41
M  V30 45 1 5 42
M  V30 46 1 6 43 CFG=3
M  V30 47 1 10 44
M  V30 48 1 10 45
M  V30 49 1 11 46
M  V30 50 1 11 47
M  V30 51 1 15 48
M  V30 52 1 19 49 CFG=1
M  V30 53 1 20 50
M  V30 54 1 20 51
M  V30 55 1 22 52
M  V30 56 1 22 53
M  V30 57 1 23 54
M  V30 58 1 23 55
M  V30 59 1 24 56
M  V30 60 1 24 57
M  V30 61 1 25 58
M  V30 62 1 25 59
M  V30 63 1 27 60
M  V30 64 1 28 61
M  V30 65 1 31 62
M  V30 66 1 32 63
M  V30 END BOND
M  V30 END CTAB
M  END
>  <Dataset>  (30) 
ChEMBL_Kinases

>  <Ligand_Instance>  (30) 
nan

>  <PDB_ID>  (30) 
nan

>  <Standardized_SMILES>  (30) 
CC(C)NC[C@@H](C(=O)N1CCN(c2ncnc3c2[C@H](CF)CC3)CC1)c1ccc(Cl)cc1

>  <Name>  (30) 
nan

>  <Pocket>  (30) 
nan

>  <ATP_Site>  (30) 
nan

>  <Peripheral>  (30) 
nan

>  <Num_H_Atoms_ProtBoundConf>  (30) 
nan

>  <Num_Resolved_Atoms>  (30) 
nan

>  <Num_Not_Resolved_Atoms>  (30) 
nan

$$$$
CHEMBL2177387
     RDKit          3D

  0  0  0  0  0  0  0  0  0  0999 V3000
M  V30 BEGIN CTAB
M  V30 COUNTS 64 67 0 0 0
M  V30 BEGIN ATOM
M  V30 1 C 1.506931 1.180797 5.683959 0
M  V30 2 C 2.522707 1.085197 4.833175 0
M  V30 3 C 2.473221 -0.048715 3.839244 0 CFG=2
M  V30 4 C 3.354598 -1.130600 4.496649 0
M  V30 5 C 4.720169 -0.514819 4.282441 0
M  V30 6 C 4.569056 -0.016220 2.892441 0
M  V30 7 N 5.509267 0.176265 1.946117 0
M  V30 8 C 5.164526 0.647622 0.732146 0
M  V30 9 N 3.873272 0.912309 0.508670 0
M  V30 10 C 2.874013 0.751018 1.390034 0
M  V30 11 N 1.556223 1.091018 0.991186 0
M  V30 12 C 1.346663 1.558568 -0.368105 0
M  V30 13 C 0.137614 1.015082 -1.043994 0
M  V30 14 N -0.974259 0.828851 -0.122243 0
M  V30 15 C -2.130394 -0.002761 -0.145117 0
M  V30 16 O -2.956414 0.072837 0.834764 0
M  V30 17 C -2.477303 -0.974151 -1.228733 0 CFG=2
M  V30 18 C -3.828000 -1.571765 -0.933502 0
M  V30 19 N -4.316937 -2.501765 -1.870430 0
M  V30 20 C -4.736193 -2.066795 -3.145977 0
M  V30 21 C -5.812612 -0.994766 -3.090270 0
M  V30 22 C -3.700522 -1.668491 -4.134558 0
M  V30 23 C -1.407024 -2.035181 -1.170594 0
M  V30 24 C -0.499928 -2.524355 -2.083421 0
M  V30 25 C 0.371019 -3.524584 -1.738743 0
M  V30 26 C 0.404815 -4.098957 -0.490998 0
M  V30 27 Cl 1.551555 -5.369824 -0.143714 0
M  V30 28 C -0.506174 -3.610896 0.435553 0
M  V30 29 C -1.409565 -2.590535 0.116910 0
M  V30 30 C -0.811799 1.705159 1.055038 0
M  V30 31 C 0.358510 1.035075 1.798569 0
M  V30 32 C 3.245579 0.267960 2.625036 0
M  V30 33 H 1.311708 1.892260 6.477879 0
M  V30 34 H 0.668166 0.488975 5.685853 0
M  V30 35 H 3.317614 1.790468 4.876694 0
M  V30 36 H 1.463183 -0.418735 3.688484 0
M  V30 37 H 3.320962 -2.078566 3.916374 0
M  V30 38 H 3.107235 -1.243464 5.554001 0
M  V30 39 H 4.881016 0.360258 4.953513 0
M  V30 40 H 5.534938 -1.245903 4.391376 0
M  V30 41 H 5.828394 0.846213 -0.116651 0
M  V30 42 H 1.289439 2.684607 -0.310578 0
M  V30 43 H 2.258566 1.341213 -0.996066 0
M  V30 44 H -0.178923 1.803956 -1.797815 0
M  V30 45 H 0.382995 0.147380 -1.650550 0
M  V30 46 H -2.499212 -0.521757 -2.209848 0
M  V30 47 H -4.573820 -0.771185 -0.677164 0
M  V30 48 H -3.738116 -2.130491 0.051659 0
M  V30 49 H -3.643199 -3.285157 -1.962247 0
M  V30 50 H -5.276119 -2.956302 -3.621717 0
M  V30 51 H -5.442878 -0.068939 -2.636480 0
M  V30 52 H -6.051309 -0.755924 -4.145772 0
M  V30 53 H -6.748850 -1.350650 -2.615953 0
M  V30 54 H -3.620814 -0.552332 -4.277737 0
M  V30 55 H -2.724198 -2.143186 -3.954667 0
M  V30 56 H -3.972353 -2.020731 -5.184088 0
M  V30 57 H -0.593309 -2.017801 -3.008325 0
M  V30 58 H 1.025509 -3.816201 -2.539927 0
M  V30 59 H -0.410653 -4.122812 1.401884 0
M  V30 60 H -1.997664 -2.396672 1.009406 0
M  V30 61 H -0.515266 2.703700 0.736653 0
M  V30 62 H -1.685303 1.666569 1.710818 0
M  V30 63 H 0.045213 -0.027799 1.850949 0
M  V30 64 H 0.474903 1.531048 2.782224 0
M  V30 END ATOM
M  V30 BEGIN BOND
M  V30 1 2 1 2
M  V30 2 1 2 3
M  V30 3 1 3 4
M  V30 4 1 4 5
M  V30 5 1 5 6
M  V30 6 2 6 7
M  V30 7 1 7 8
M  V30 8 2 8 9
M  V30 9 1 9 10
M  V30 10 1 10 11
M  V30 11 1 11 12
M  V30 12 1 12 13
M  V30 13 1 13 14
M  V30 14 1 14 15
M  V30 15 2 15 16
M  V30 16 1 15 17
M  V30 17 1 17 18
M  V30 18 1 18 19
M  V30 19 1 19 20
M  V30 20 1 20 21
M  V30 21 1 20 22
M  V30 22 1 17 23
M  V30 23 2 23 24
M  V30 24 1 24 25
M  V30 25 2 25 26
M  V30 26 1 26 27
M  V30 27 1 26 28
M  V30 28 2 28 29
M  V30 29 1 14 30
M  V30 30 1 30 31
M  V30 31 2 10 32
M  V30 32 1 32 3
M  V30 33 1 32 6
M  V30 34 1 31 11
M  V30 35 1 29 23
M  V30 36 1 1 33
M  V30 37 1 1 34
M  V30 38 1 2 35
M  V30 39 1 3 36 CFG=3
M  V30 40 1 4 37
M  V30 41 1 4 38
M  V30 42 1 5 39
M  V30 43 1 5 40
M  V30 44 1 8 41
M  V30 45 1 12 42
M  V30 46 1 12 43
M  V30 47 1 13 44
M  V30 48 1 13 45
M  V30 49 1 17 46 CFG=3
M  V30 50 1 18 47
M  V30 51 1 18 48
M  V30 52 1 19 49
M  V30 53 1 20 50
M  V30 54 1 21 51
M  V30 55 1 21 52
M  V30 56 1 21 53
M  V30 57 1 22 54
M  V30 58 1 22 55
M  V30 59 1 22 56
M  V30 60 1 24 57
M  V30 61 1 25 58
M  V30 62 1 28 59
M  V30 63 1 29 60
M  V30 64 1 30 61
M  V30 65 1 30 62
M  V30 66 1 31 63
M  V30 67 1 31 64
M  V30 END BOND
M  V30 END CTAB
M  END
>  <Dataset>  (31) 
ChEMBL_Kinases

>  <Ligand_Instance>  (31) 
nan

>  <PDB_ID>  (31) 
nan

>  <Standardized_SMILES>  (31) 
C=C[C@@H]1CCc2ncnc(N3CCN(C(=O)[C@H](CNC(C)C)c4ccc(Cl)cc4)CC3)c21

>  <Name>  (31) 
nan

>  <Pocket>  (31) 
nan

>  <ATP_Site>  (31) 
nan

>  <Peripheral>  (31) 
nan

>  <Num_H_Atoms_ProtBoundConf>  (31) 
nan

>  <Num_Resolved_Atoms>  (31) 
nan

>  <Num_Not_Resolved_Atoms>  (31) 
nan

$$$$
CHEMBL2177385
     RDKit          3D

  0  0  0  0  0  0  0  0  0  0999 V3000
M  V30 BEGIN CTAB
M  V30 COUNTS 63 66 0 0 0
M  V30 BEGIN ATOM
M  V30 1 C 4.383663 -0.461359 4.673615 0
M  V30 2 C 3.109867 -1.178091 4.261198 0
M  V30 3 C 2.964524 -2.388453 5.180028 0
M  V30 4 N 3.212977 -1.542202 2.876316 0
M  V30 5 C 2.058348 -2.247106 2.360355 0
M  V30 6 C 0.828554 -1.378999 2.279718 0 CFG=1
M  V30 7 C 1.124752 -0.261494 1.392720 0
M  V30 8 O 1.152353 0.930979 1.855621 0
M  V30 9 N 1.430562 0.126510 0.094695 0
M  V30 10 C 1.612617 1.530851 -0.214700 0
M  V30 11 C 1.078954 1.773406 -1.620561 0
M  V30 12 N -0.067870 0.861136 -1.788263 0
M  V30 13 C -1.382425 1.455784 -1.782074 0
M  V30 14 N -1.474790 2.739581 -1.438663 0
M  V30 15 C -2.566963 3.475952 -1.347290 0
M  V30 16 N -3.734542 2.876335 -1.630691 0
M  V30 17 C -3.710992 1.584076 -1.983641 0
M  V30 18 C -2.571096 0.821787 -2.077857 0
M  V30 19 C -2.850012 -0.560456 -2.501581 0 CFG=2
M  V30 20 C -2.128742 -0.953262 -3.777212 0
M  V30 21 C -4.361893 -0.574906 -2.728547 0
M  V30 22 C -4.888179 0.756661 -2.326029 0
M  V30 23 C 0.366805 -0.509298 -1.920037 0
M  V30 24 C 1.617923 -0.705562 -1.078862 0
M  V30 25 C -0.398893 -2.136885 1.983680 0
M  V30 26 C -0.641376 -2.902109 0.865744 0
M  V30 27 C -1.781968 -3.597407 0.595221 0
M  V30 28 C -2.819300 -3.551203 1.515430 0
M  V30 29 Cl -4.322931 -4.401666 1.274604 0
M  V30 30 C -2.674209 -2.813103 2.666113 0
M  V30 31 C -1.493608 -2.141168 2.863735 0
M  V30 32 H 4.174859 0.361464 5.388379 0
M  V30 33 H 5.110420 -1.205865 5.089703 0
M  V30 34 H 4.886000 -0.018733 3.780273 0
M  V30 35 H 2.286155 -0.487073 4.482866 0
M  V30 36 H 3.669083 -3.187627 4.846255 0
M  V30 37 H 3.186336 -2.063656 6.208187 0
M  V30 38 H 1.917388 -2.740347 5.077298 0
M  V30 39 H 4.020512 -2.194580 2.767051 0
M  V30 40 H 2.377335 -2.596206 1.334282 0
M  V30 41 H 1.942746 -3.161383 2.964902 0
M  V30 42 H 0.700572 -0.968063 3.303750 0
M  V30 43 H 2.718313 1.747711 -0.305166 0
M  V30 44 H 1.207950 2.231204 0.509409 0
M  V30 45 H 0.754835 2.823769 -1.765299 0
M  V30 46 H 1.826900 1.497234 -2.376486 0
M  V30 47 H -2.481942 4.523669 -1.050256 0
M  V30 48 H -2.668007 -1.333598 -1.745457 0
M  V30 49 H -1.517673 -1.888318 -3.640305 0
M  V30 50 H -2.895513 -1.172270 -4.540188 0
M  V30 51 H -1.485692 -0.148031 -4.183257 0
M  V30 52 H -4.546122 -0.691922 -3.817049 0
M  V30 53 H -4.878572 -1.344305 -2.126992 0
M  V30 54 H -5.597843 0.694841 -1.454329 0
M  V30 55 H -5.436218 1.295839 -3.143880 0
M  V30 56 H -0.341750 -1.261942 -1.559568 0
M  V30 57 H 0.627256 -0.760131 -2.981244 0
M  V30 58 H 2.474220 -0.306813 -1.701435 0
M  V30 59 H 1.878557 -1.740798 -0.878714 0
M  V30 60 H 0.123272 -2.972621 0.130085 0
M  V30 61 H -1.896602 -4.186416 -0.323864 0
M  V30 62 H -3.457557 -2.746873 3.414436 0
M  V30 63 H -1.406796 -1.559060 3.794123 0
M  V30 END ATOM
M  V30 BEGIN BOND
M  V30 1 1 1 2
M  V30 2 1 2 3
M  V30 3 1 2 4
M  V30 4 1 4 5
M  V30 5 1 5 6
M  V30 6 1 6 7
M  V30 7 2 7 8
M  V30 8 1 7 9
M  V30 9 1 9 10
M  V30 10 1 10 11
M  V30 11 1 11 12
M  V30 12 1 12 13
M  V30 13 2 13 14
M  V30 14 1 14 15
M  V30 15 2 15 16
M  V30 16 1 16 17
M  V30 17 2 17 18
M  V30 18 1 18 19
M  V30 19 1 19 20
M  V30 20 1 19 21
M  V30 21 1 21 22
M  V30 22 1 12 23
M  V30 23 1 23 24
M  V30 24 1 6 25
M  V30 25 2 25 26
M  V30 26 1 26 27
M  V30 27 2 27 28
M  V30 28 1 28 29
M  V30 29 1 28 30
M  V30 30 2 30 31
M  V30 31 1 24 9
M  V30 32 1 31 25
M  V30 33 1 18 13
M  V30 34 1 22 17
M  V30 35 1 1 32
M  V30 36 1 1 33
M  V30 37 1 1 34
M  V30 38 1 2 35
M  V30 39 1 3 36
M  V30 40 1 3 37
M  V30 41 1 3 38
M  V30 42 1 4 39
M  V30 43 1 5 40
M  V30 44 1 5 41
M  V30 45 1 6 42 CFG=1
M  V30 46 1 10 43
M  V30 47 1 10 44
M  V30 48 1 11 45
M  V30 49 1 11 46
M  V30 50 1 15 47
M  V30 51 1 19 48 CFG=1
M  V30 52 1 20 49
M  V30 53 1 20 50
M  V30 54 1 20 51
M  V30 55 1 21 52
M  V30 56 1 21 53
M  V30 57 1 22 54
M  V30 58 1 22 55
M  V30 59 1 23 56
M  V30 60 1 23 57
M  V30 61 1 24 58
M  V30 62 1 24 59
M  V30 63 1 26 60
M  V30 64 1 27 61
M  V30 65 1 30 62
M  V30 66 1 31 63
M  V30 END BOND
M  V30 END CTAB
M  END
>  <Dataset>  (32) 
ChEMBL_Kinases

>  <Ligand_Instance>  (32) 
nan

>  <PDB_ID>  (32) 
nan

>  <Standardized_SMILES>  (32) 
CC(C)NC[C@@H](C(=O)N1CCN(c2ncnc3c2[C@H](C)CC3)CC1)c1ccc(Cl)cc1

>  <Name>  (32) 
nan

>  <Pocket>  (32) 
nan

>  <ATP_Site>  (32) 
nan

>  <Peripheral>  (32) 
nan

>  <Num_H_Atoms_ProtBoundConf>  (32) 
nan

>  <Num_Resolved_Atoms>  (32) 
nan

>  <Num_Not_Resolved_Atoms>  (32) 
nan

$$$$
CHEMBL2177383
     RDKit          3D

  0  0  0  0  0  0  0  0  0  0999 V3000
M  V30 BEGIN CTAB
M  V30 COUNTS 63 66 0 0 0
M  V30 BEGIN ATOM
M  V30 1 C 3.006477 -1.909663 5.081981 0
M  V30 2 C 1.705604 -2.386926 4.513200 0
M  V30 3 C 0.699565 -2.415984 5.659826 0
M  V30 4 N 1.169743 -1.539336 3.497827 0
M  V30 5 C 1.967511 -1.339193 2.339772 0
M  V30 6 C 1.194573 -0.410486 1.416133 0 CFG=1
M  V30 7 C -0.073268 -1.066900 1.098064 0
M  V30 8 O -0.347852 0.049277 1.612341 0
M  V30 9 N -1.258971 -1.730103 0.777772 0
M  V30 10 C -1.193797 -3.039558 0.169575 0
M  V30 11 C -1.773922 -2.970220 -1.223049 0
M  V30 12 N -2.480703 -1.730532 -1.447584 0
M  V30 13 C -2.690476 -1.153044 -2.734781 0
M  V30 14 N -3.980498 -0.969475 -3.091576 0
M  V30 15 C -4.383262 -0.439753 -4.261956 0
M  V30 16 N -3.427342 -0.056853 -5.161035 0
M  V30 17 C -2.126042 -0.235170 -4.816339 0
M  V30 18 C -1.696323 -0.777188 -3.619539 0
M  V30 19 C -0.262149 -0.850151 -3.518082 0 CFG=2
M  V30 20 C 0.429635 -0.609956 -2.255185 0
M  V30 21 C 0.179871 0.183880 -4.564467 0
M  V30 22 C -0.922264 0.098834 -5.617809 0
M  V30 23 F -0.640498 -0.896079 -6.539674 0
M  V30 24 F -1.041189 1.335801 -6.212461 0
M  V30 25 C -3.077967 -0.895416 -0.417995 0
M  V30 26 C -2.620483 -1.271468 0.977682 0
M  V30 27 C 1.102042 0.899083 2.089855 0
M  V30 28 C 1.687062 2.007874 1.461787 0
M  V30 29 C 1.689493 3.312520 1.969644 0
M  V30 30 C 1.070829 3.531552 3.179973 0
M  V30 31 Cl 1.034956 5.124206 3.875201 0
M  V30 32 C 0.478027 2.484313 3.845879 0
M  V30 33 C 0.511134 1.229214 3.292988 0
M  V30 34 H 2.922917 -1.048422 5.751402 0
M  V30 35 H 3.392876 -2.746122 5.730144 0
M  V30 36 H 3.789024 -1.791389 4.280442 0
M  V30 37 H 1.847499 -3.401521 4.099297 0
M  V30 38 H -0.318336 -2.110399 5.295561 0
M  V30 39 H 0.577900 -3.465042 5.984538 0
M  V30 40 H 0.958777 -1.709825 6.464605 0
M  V30 41 H 0.228462 -1.863006 3.242951 0
M  V30 42 H 2.987815 -0.977403 2.537913 0
M  V30 43 H 2.114502 -2.289190 1.753924 0
M  V30 44 H 1.805710 -0.202631 0.491536 0
M  V30 45 H -1.809035 -3.699448 0.813882 0
M  V30 46 H -0.181197 -3.480043 0.191296 0
M  V30 47 H -2.530272 -3.776953 -1.318850 0
M  V30 48 H -1.024665 -3.183041 -2.006778 0
M  V30 49 H -5.435806 -0.323319 -4.479297 0
M  V30 50 H 0.094142 -1.826849 -3.959090 0
M  V30 51 H -0.041429 0.094360 -1.558557 0
M  V30 52 H 0.746901 -1.575260 -1.796950 0
M  V30 53 H 1.420045 -0.125571 -2.512189 0
M  V30 54 H 1.173794 -0.061565 -4.960990 0
M  V30 55 H 0.194531 1.149921 -4.054163 0
M  V30 56 H -4.185535 -0.967229 -0.450717 0
M  V30 57 H -2.825530 0.172811 -0.554088 0
M  V30 58 H -3.204710 -2.099862 1.412771 0
M  V30 59 H -2.651186 -0.371618 1.623798 0
M  V30 60 H 2.198754 1.948567 0.509016 0
M  V30 61 H 2.140652 4.133995 1.472753 0
M  V30 62 H -0.011146 2.643970 4.796354 0
M  V30 63 H 0.039567 0.456415 3.841815 0
M  V30 END ATOM
M  V30 BEGIN BOND
M  V30 1 1 1 2
M  V30 2 1 2 3
M  V30 3 1 2 4
M  V30 4 1 4 5
M  V30 5 1 5 6
M  V30 6 1 6 7
M  V30 7 2 7 8
M  V30 8 1 7 9
M  V30 9 1 9 10
M  V30 10 1 10 11
M  V30 11 1 11 12
M  V30 12 1 12 13
M  V30 13 2 13 14
M  V30 14 1 14 15
M  V30 15 2 15 16
M  V30 16 1 16 17
M  V30 17 2 17 18
M  V30 18 1 18 19
M  V30 19 1 19 20
M  V30 20 1 19 21
M  V30 21 1 21 22
M  V30 22 1 22 23
M  V30 23 1 22 24
M  V30 24 1 12 25
M  V30 25 1 25 26
M  V30 26 1 6 27
M  V30 27 2 27 28
M  V30 28 1 28 29
M  V30 29 2 29 30
M  V30 30 1 30 31
M  V30 31 1 30 32
M  V30 32 2 32 33
M  V30 33 1 26 9
M  V30 34 1 33 27
M  V30 35 1 18 13
M  V30 36 1 22 17
M  V30 37 1 1 34
M  V30 38 1 1 35
M  V30 39 1 1 36
M  V30 40 1 2 37
M  V30 41 1 3 38
M  V30 42 1 3 39
M  V30 43 1 3 40
M  V30 44 1 4 41
M  V30 45 1 5 42
M  V30 46 1 5 43
M  V30 47 1 6 44 CFG=3
M  V30 48 1 10 45
M  V30 49 1 10 46
M  V30 50 1 11 47
M  V30 51 1 11 48
M  V30 52 1 15 49
M  V30 53 1 19 50 CFG=3
M  V30 54 1 20 51
M  V30 55 1 20 52
M  V30 56 1 20 53
M  V30 57 1 21 54
M  V30 58 1 21 55
M  V30 59 1 25 56
M  V30 60 1 25 57
M  V30 61 1 26 58
M  V30 62 1 26 59
M  V30 63 1 28 60
M  V30 64 1 29 61
M  V30 65 1 32 62
M  V30 66 1 33 63
M  V30 END BOND
M  V30 END CTAB
M  END
>  <Dataset>  (33) 
ChEMBL_Kinases

>  <Ligand_Instance>  (33) 
nan

>  <PDB_ID>  (33) 
nan

>  <Standardized_SMILES>  (33) 
CC(C)NC[C@@H](C(=O)N1CCN(c2ncnc3c2[C@H](C)CC3(F)F)CC1)c1ccc(Cl)cc1

>  <Name>  (33) 
nan

>  <Pocket>  (33) 
nan

>  <ATP_Site>  (33) 
nan

>  <Peripheral>  (33) 
nan

>  <Num_H_Atoms_ProtBoundConf>  (33) 
nan

>  <Num_Resolved_Atoms>  (33) 
nan

>  <Num_Not_Resolved_Atoms>  (33) 
nan

$$$$
CHEMBL2177382
     RDKit          3D

  0  0  0  0  0  0  0  0  0  0999 V3000
M  V30 BEGIN CTAB
M  V30 COUNTS 63 66 0 0 0
M  V30 BEGIN ATOM
M  V30 1 C 3.225305 -5.010511 -0.833945 0
M  V30 2 C 1.883356 -4.798493 -0.199401 0
M  V30 3 C 1.861969 -5.534332 1.115629 0
M  V30 4 N 1.550530 -3.431877 0.046871 0
M  V30 5 C 2.473461 -2.757427 0.927292 0
M  V30 6 C 1.956357 -1.326930 1.067964 0 CFG=1
M  V30 7 C 0.588584 -1.312739 1.640583 0
M  V30 8 O 0.091674 -2.432469 2.006981 0
M  V30 9 N -0.144124 -0.127550 1.781286 0
M  V30 10 C 0.243111 1.237109 1.422361 0
M  V30 11 C -0.963013 2.097112 1.179921 0
M  V30 12 N -2.057568 1.362679 0.525262 0
M  V30 13 C -2.604430 1.925897 -0.655311 0
M  V30 14 N -2.154383 3.118687 -1.078418 0
M  V30 15 C -2.596420 3.765302 -2.164992 0
M  V30 16 N -3.565416 3.161590 -2.876554 0
M  V30 17 C -4.062129 1.976179 -2.517888 0
M  V30 18 C -3.596650 1.301336 -1.380268 0
M  V30 19 C -4.323996 0.029480 -1.261932 0 CFG=2
M  V30 20 C -3.610413 -1.112589 -1.998752 0
M  V30 21 C -5.591260 0.268122 -2.097264 0
M  V30 22 C -5.136624 1.206987 -3.198756 0 CFG=2
M  V30 23 F -4.700969 0.508298 -4.284051 0
M  V30 24 C -2.425955 0.161918 1.198110 0
M  V30 25 C -1.485162 -0.176189 2.355905 0
M  V30 26 C 2.842052 -0.493798 1.920365 0
M  V30 27 C 2.880387 -1.008867 3.221330 0
M  V30 28 C 3.657702 -0.379806 4.200433 0
M  V30 29 C 4.392443 0.748061 3.902621 0
M  V30 30 Cl 5.377164 1.564090 5.099759 0
M  V30 31 C 4.331330 1.227576 2.612089 0
M  V30 32 C 3.578006 0.634557 1.625157 0
M  V30 33 H 3.280232 -6.102055 -1.098252 0
M  V30 34 H 4.084185 -4.811927 -0.177193 0
M  V30 35 H 3.310586 -4.501020 -1.828292 0
M  V30 36 H 1.130767 -5.252055 -0.843598 0
M  V30 37 H 1.778166 -6.628343 0.899967 0
M  V30 38 H 0.962949 -5.298128 1.735226 0
M  V30 39 H 2.777210 -5.347986 1.715665 0
M  V30 40 H 1.376501 -2.887231 -0.803056 0
M  V30 41 H 2.501490 -3.164660 1.935997 0
M  V30 42 H 3.461776 -2.699124 0.426520 0
M  V30 43 H 1.949896 -0.879766 0.053350 0
M  V30 44 H 0.951268 1.238530 0.568471 0
M  V30 45 H 0.777440 1.646004 2.304736 0
M  V30 46 H -1.333151 2.587043 2.112985 0
M  V30 47 H -0.610704 2.951081 0.534402 0
M  V30 48 H -2.163267 4.725345 -2.417069 0
M  V30 49 H -4.678188 -0.241895 -0.274504 0
M  V30 50 H -2.554553 -0.732440 -2.129212 0
M  V30 51 H -3.984848 -1.255130 -3.013644 0
M  V30 52 H -3.522848 -2.022916 -1.383526 0
M  V30 53 H -6.398438 0.736634 -1.510969 0
M  V30 54 H -5.976919 -0.688958 -2.495368 0
M  V30 55 H -5.937550 1.893880 -3.476286 0
M  V30 56 H -3.434330 0.237300 1.695503 0
M  V30 57 H -2.365037 -0.717182 0.529467 0
M  V30 58 H -1.642038 0.609436 3.128137 0
M  V30 59 H -1.757278 -1.146457 2.769026 0
M  V30 60 H 2.364996 -1.880674 3.615376 0
M  V30 61 H 3.734621 -0.721966 5.223973 0
M  V30 62 H 4.883528 2.106818 2.316304 0
M  V30 63 H 3.463152 0.923874 0.603768 0
M  V30 END ATOM
M  V30 BEGIN BOND
M  V30 1 1 1 2
M  V30 2 1 2 3
M  V30 3 1 2 4
M  V30 4 1 4 5
M  V30 5 1 5 6
M  V30 6 1 6 7
M  V30 7 2 7 8
M  V30 8 1 7 9
M  V30 9 1 9 10
M  V30 10 1 10 11
M  V30 11 1 11 12
M  V30 12 1 12 13
M  V30 13 2 13 14
M  V30 14 1 14 15
M  V30 15 2 15 16
M  V30 16 1 16 17
M  V30 17 2 17 18
M  V30 18 1 18 19
M  V30 19 1 19 20
M  V30 20 1 19 21
M  V30 21 1 21 22
M  V30 22 1 22 23
M  V30 23 1 12 24
M  V30 24 1 24 25
M  V30 25 1 6 26
M  V30 26 2 26 27
M  V30 27 1 27 28
M  V30 28 2 28 29
M  V30 29 1 29 30
M  V30 30 1 29 31
M  V30 31 2 31 32
M  V30 32 1 25 9
M  V30 33 1 32 26
M  V30 34 1 18 13
M  V30 35 1 22 17
M  V30 36 1 1 33
M  V30 37 1 1 34
M  V30 38 1 1 35
M  V30 39 1 2 36
M  V30 40 1 3 37
M  V30 41 1 3 38
M  V30 42 1 3 39
M  V30 43 1 4 40
M  V30 44 1 5 41
M  V30 45 1 5 42
M  V30 46 1 6 43 CFG=3
M  V30 47 1 10 44
M  V30 48 1 10 45
M  V30 49 1 11 46
M  V30 50 1 11 47
M  V30 51 1 15 48
M  V30 52 1 19 49 CFG=1
M  V30 53 1 20 50
M  V30 54 1 20 51
M  V30 55 1 20 52
M  V30 56 1 21 53
M  V30 57 1 21 54
M  V30 58 1 22 55 CFG=3
M  V30 59 1 24 56
M  V30 60 1 24 57
M  V30 61 1 25 58
M  V30 62 1 25 59
M  V30 63 1 27 60
M  V30 64 1 28 61
M  V30 65 1 31 62
M  V30 66 1 32 63
M  V30 END BOND
M  V30 END CTAB
M  END
>  <Dataset>  (34) 
ChEMBL_Kinases

>  <Ligand_Instance>  (34) 
nan

>  <PDB_ID>  (34) 
nan

>  <Standardized_SMILES>  (34) 
CC(C)NC[C@@H](C(=O)N1CCN(c2ncnc3c2[C@H](C)C[C@@H]3F)CC1)c1ccc(Cl)cc1

>  <Name>  (34) 
nan

>  <Pocket>  (34) 
nan

>  <ATP_Site>  (34) 
nan

>  <Peripheral>  (34) 
nan

>  <Num_H_Atoms_ProtBoundConf>  (34) 
nan

>  <Num_Resolved_Atoms>  (34) 
nan

>  <Num_Not_Resolved_Atoms>  (34) 
nan

$$$$
CHEMBL2177381
     RDKit          3D

  0  0  0  0  0  0  0  0  0  0999 V3000
M  V30 BEGIN CTAB
M  V30 COUNTS 63 66 0 0 0
M  V30 BEGIN ATOM
M  V30 1 C 1.024590 -5.201651 2.019893 0
M  V30 2 C 0.434116 -4.834145 0.701402 0
M  V30 3 C -1.030856 -5.240584 0.710013 0
M  V30 4 N 0.483978 -3.426683 0.408938 0
M  V30 5 C 1.825207 -2.898002 0.377805 0
M  V30 6 C 1.751805 -1.412563 0.061456 0 CFG=1
M  V30 7 C 0.957477 -0.740412 1.118123 0
M  V30 8 O 2.036399 -0.094069 1.137172 0
M  V30 9 N -0.136884 -0.463768 1.968303 0
M  V30 10 C -1.400927 -1.165377 1.998275 0
M  V30 11 C -2.486110 -0.236878 2.436774 0
M  V30 12 N -2.162835 1.089668 1.947601 0
M  V30 13 C -2.837755 1.896355 1.008491 0
M  V30 14 N -3.274529 3.105779 1.467860 0
M  V30 15 C -3.930217 3.966308 0.673766 0
M  V30 16 N -4.191076 3.674982 -0.626648 0
M  V30 17 C -3.758073 2.472769 -1.087071 0
M  V30 18 C -3.080768 1.558135 -0.306682 0
M  V30 19 C -2.733753 0.347903 -1.057894 0 CFG=2
M  V30 20 C -1.320692 0.268393 -1.532368 0
M  V30 21 C -3.604518 0.472238 -2.314944 0
M  V30 22 C -3.917931 1.924392 -2.459452 0 CFG=1
M  V30 23 F -5.262624 2.085199 -2.801211 0
M  V30 24 C -0.959999 1.707785 2.494994 0
M  V30 25 C 0.035601 0.632716 2.896732 0
M  V30 26 C 3.092590 -0.819689 -0.086625 0
M  V30 27 C 4.138166 -0.852133 0.843813 0
M  V30 28 C 5.356608 -0.260830 0.597883 0
M  V30 29 C 5.604538 0.396791 -0.588240 0
M  V30 30 Cl 7.155696 1.140346 -0.882176 0
M  V30 31 C 4.633129 0.478885 -1.562620 0
M  V30 32 C 3.433387 -0.132508 -1.258726 0
M  V30 33 H 0.886052 -6.315681 2.120172 0
M  V30 34 H 0.461816 -4.780712 2.876797 0
M  V30 35 H 2.109252 -5.047036 2.087978 0
M  V30 36 H 0.950687 -5.453584 -0.083951 0
M  V30 37 H -1.180886 -6.250469 0.280793 0
M  V30 38 H -1.638383 -4.517887 0.133017 0
M  V30 39 H -1.441230 -5.251254 1.741610 0
M  V30 40 H 0.041129 -3.269471 -0.511138 0
M  V30 41 H 2.349991 -2.973139 1.336460 0
M  V30 42 H 2.435885 -3.424544 -0.377894 0
M  V30 43 H 1.181438 -1.258448 -0.879497 0
M  V30 44 H -1.630100 -1.665402 1.039552 0
M  V30 45 H -1.303065 -1.965798 2.759365 0
M  V30 46 H -3.499620 -0.561845 2.152464 0
M  V30 47 H -2.489308 -0.223923 3.558688 0
M  V30 48 H -4.288444 4.934126 1.012945 0
M  V30 49 H -3.037689 -0.588372 -0.577085 0
M  V30 50 H -0.588541 0.821730 -0.907723 0
M  V30 51 H -1.206657 0.694551 -2.571599 0
M  V30 52 H -1.048657 -0.815354 -1.653159 0
M  V30 53 H -3.101935 0.103672 -3.214390 0
M  V30 54 H -4.549101 -0.101529 -2.177304 0
M  V30 55 H -3.272291 2.443757 -3.196699 0
M  V30 56 H -0.521645 2.477580 1.864958 0
M  V30 57 H -1.304068 2.208920 3.437460 0
M  V30 58 H -0.300793 0.243572 3.900563 0
M  V30 59 H 1.062547 0.989739 2.957144 0
M  V30 60 H 3.896836 -1.383862 1.769158 0
M  V30 61 H 6.112330 -0.331161 1.369215 0
M  V30 62 H 4.743517 0.969190 -2.508429 0
M  V30 63 H 2.641729 -0.079282 -2.023816 0
M  V30 END ATOM
M  V30 BEGIN BOND
M  V30 1 1 1 2
M  V30 2 1 2 3
M  V30 3 1 2 4
M  V30 4 1 4 5
M  V30 5 1 5 6
M  V30 6 1 6 7
M  V30 7 2 7 8
M  V30 8 1 7 9
M  V30 9 1 9 10
M  V30 10 1 10 11
M  V30 11 1 11 12
M  V30 12 1 12 13
M  V30 13 2 13 14
M  V30 14 1 14 15
M  V30 15 2 15 16
M  V30 16 1 16 17
M  V30 17 2 17 18
M  V30 18 1 18 19
M  V30 19 1 19 20
M  V30 20 1 19 21
M  V30 21 1 21 22
M  V30 22 1 22 23
M  V30 23 1 12 24
M  V30 24 1 24 25
M  V30 25 1 6 26
M  V30 26 2 26 27
M  V30 27 1 27 28
M  V30 28 2 28 29
M  V30 29 1 29 30
M  V30 30 1 29 31
M  V30 31 2 31 32
M  V30 32 1 25 9
M  V30 33 1 32 26
M  V30 34 1 18 13
M  V30 35 1 22 17
M  V30 36 1 1 33
M  V30 37 1 1 34
M  V30 38 1 1 35
M  V30 39 1 2 36
M  V30 40 1 3 37
M  V30 41 1 3 38
M  V30 42 1 3 39
M  V30 43 1 4 40
M  V30 44 1 5 41
M  V30 45 1 5 42
M  V30 46 1 6 43 CFG=3
M  V30 47 1 10 44
M  V30 48 1 10 45
M  V30 49 1 11 46
M  V30 50 1 11 47
M  V30 51 1 15 48
M  V30 52 1 19 49 CFG=1
M  V30 53 1 20 50
M  V30 54 1 20 51
M  V30 55 1 20 52
M  V30 56 1 21 53
M  V30 57 1 21 54
M  V30 58 1 22 55 CFG=3
M  V30 59 1 24 56
M  V30 60 1 24 57
M  V30 61 1 25 58
M  V30 62 1 25 59
M  V30 63 1 27 60
M  V30 64 1 28 61
M  V30 65 1 31 62
M  V30 66 1 32 63
M  V30 END BOND
M  V30 END CTAB
M  END
>  <Dataset>  (35) 
ChEMBL_Kinases

>  <Ligand_Instance>  (35) 
nan

>  <PDB_ID>  (35) 
nan

>  <Standardized_SMILES>  (35) 
CC(C)NC[C@@H](C(=O)N1CCN(c2ncnc3c2[C@H](C)C[C@H]3F)CC1)c1ccc(Cl)cc1

>  <Name>  (35) 
nan

>  <Pocket>  (35) 
nan

>  <ATP_Site>  (35) 
nan

>  <Peripheral>  (35) 
nan

>  <Num_H_Atoms_ProtBoundConf>  (35) 
nan

>  <Num_Resolved_Atoms>  (35) 
nan

>  <Num_Not_Resolved_Atoms>  (35) 
nan

$$$$
CHEMBL2177380
     RDKit          3D

  0  0  0  0  0  0  0  0  0  0999 V3000
M  V30 BEGIN CTAB
M  V30 COUNTS 64 67 0 0 0
M  V30 BEGIN ATOM
M  V30 1 C 3.687860 1.885511 -1.511164 0
M  V30 2 C 3.213462 0.465214 -1.304939 0
M  V30 3 C 3.728542 -0.375379 -2.472208 0
M  V30 4 N 3.833932 -0.061615 -0.105109 0
M  V30 5 C 3.499878 0.705381 1.076942 0
M  V30 6 C 2.015209 0.541944 1.431744 0 CFG=1
M  V30 7 C 1.732954 -0.868132 1.685276 0
M  V30 8 O 2.677145 -1.723432 1.550718 0
M  V30 9 N 0.441997 -1.349087 2.079762 0
M  V30 10 C -0.797412 -0.587161 2.301548 0
M  V30 11 C -1.921520 -1.393841 1.690210 0
M  V30 12 N -1.408881 -2.250507 0.609179 0
M  V30 13 C -1.809354 -1.974537 -0.724709 0
M  V30 14 N -0.822592 -1.618619 -1.552709 0
M  V30 15 C -1.136510 -1.330792 -2.846007 0
M  V30 16 N -2.416222 -1.399438 -3.297126 0
M  V30 17 C -3.367210 -1.765934 -2.408780 0
M  V30 18 C -3.136654 -2.075747 -1.077852 0
M  V30 19 C -4.398450 -2.439350 -0.403474 0 CFG=2
M  V30 20 C -4.505182 -3.970465 -0.370671 0
M  V30 21 C -5.475983 -1.987024 -1.376732 0
M  V30 22 C -4.806290 -1.889710 -2.729167 0 CFG=2
M  V30 23 O -5.057622 -3.023063 -3.496567 0
M  V30 24 C -0.525786 -3.298651 1.142812 0
M  V30 25 C 0.264455 -2.792452 2.308197 0
M  V30 26 C 1.793114 1.428357 2.628020 0
M  V30 27 C 1.087317 2.607509 2.440797 0
M  V30 28 C 0.851765 3.462626 3.504529 0
M  V30 29 C 1.327942 3.132189 4.765921 0
M  V30 30 Cl 1.001986 4.247858 6.072424 0
M  V30 31 C 2.018621 1.953922 4.889557 0
M  V30 32 C 2.278752 1.072608 3.868539 0
M  V30 33 H 2.948286 2.593223 -1.079098 0
M  V30 34 H 4.634825 2.010676 -0.979428 0
M  V30 35 H 3.773115 2.069459 -2.602368 0
M  V30 36 H 2.111611 0.376045 -1.280777 0
M  V30 37 H 3.142985 -1.334736 -2.506544 0
M  V30 38 H 4.814094 -0.563643 -2.362816 0
M  V30 39 H 3.512550 0.153397 -3.421844 0
M  V30 40 H 4.855815 -0.019112 -0.234081 0
M  V30 41 H 4.143432 0.349123 1.903235 0
M  V30 42 H 3.670734 1.773260 0.816210 0
M  V30 43 H 1.483651 0.957255 0.556479 0
M  V30 44 H -0.740383 0.430983 1.924190 0
M  V30 45 H -0.944983 -0.553753 3.398450 0
M  V30 46 H -2.378667 -2.080452 2.427502 0
M  V30 47 H -2.683200 -0.697334 1.290592 0
M  V30 48 H -0.345460 -1.038951 -3.533585 0
M  V30 49 H -4.525234 -2.052660 0.606158 0
M  V30 50 H -4.301947 -4.284269 -1.435688 0
M  V30 51 H -5.513641 -4.307838 -0.103248 0
M  V30 52 H -3.691376 -4.369750 0.244524 0
M  V30 53 H -5.835887 -1.004297 -1.035888 0
M  V30 54 H -6.310652 -2.726373 -1.402954 0
M  V30 55 H -5.223659 -0.989860 -3.244819 0
M  V30 56 H -5.315150 -2.736035 -4.403011 0
M  V30 57 H -1.203968 -4.129126 1.427451 0
M  V30 58 H 0.137275 -3.702927 0.358712 0
M  V30 59 H 1.228967 -3.300870 2.447235 0
M  V30 60 H -0.312431 -2.894219 3.247599 0
M  V30 61 H 0.698889 2.905788 1.480783 0
M  V30 62 H 0.308163 4.368872 3.354108 0
M  V30 63 H 2.383843 1.713336 5.889256 0
M  V30 64 H 2.819608 0.171225 4.018421 0
M  V30 END ATOM
M  V30 BEGIN BOND
M  V30 1 1 1 2
M  V30 2 1 2 3
M  V30 3 1 2 4
M  V30 4 1 4 5
M  V30 5 1 5 6
M  V30 6 1 6 7
M  V30 7 2 7 8
M  V30 8 1 7 9
M  V30 9 1 9 10
M  V30 10 1 10 11
M  V30 11 1 11 12
M  V30 12 1 12 13
M  V30 13 2 13 14
M  V30 14 1 14 15
M  V30 15 2 15 16
M  V30 16 1 16 17
M  V30 17 2 17 18
M  V30 18 1 18 19
M  V30 19 1 19 20
M  V30 20 1 19 21
M  V30 21 1 21 22
M  V30 22 1 22 23
M  V30 23 1 12 24
M  V30 24 1 24 25
M  V30 25 1 6 26
M  V30 26 2 26 27
M  V30 27 1 27 28
M  V30 28 2 28 29
M  V30 29 1 29 30
M  V30 30 1 29 31
M  V30 31 2 31 32
M  V30 32 1 25 9
M  V30 33 1 32 26
M  V30 34 1 18 13
M  V30 35 1 22 17
M  V30 36 1 1 33
M  V30 37 1 1 34
M  V30 38 1 1 35
M  V30 39 1 2 36
M  V30 40 1 3 37
M  V30 41 1 3 38
M  V30 42 1 3 39
M  V30 43 1 4 40
M  V30 44 1 5 41
M  V30 45 1 5 42
M  V30 46 1 6 43 CFG=3
M  V30 47 1 10 44
M  V30 48 1 10 45
M  V30 49 1 11 46
M  V30 50 1 11 47
M  V30 51 1 15 48
M  V30 52 1 19 49 CFG=1
M  V30 53 1 20 50
M  V30 54 1 20 51
M  V30 55 1 20 52
M  V30 56 1 21 53
M  V30 57 1 21 54
M  V30 58 1 22 55 CFG=3
M  V30 59 1 23 56
M  V30 60 1 24 57
M  V30 61 1 24 58
M  V30 62 1 25 59
M  V30 63 1 25 60
M  V30 64 1 27 61
M  V30 65 1 28 62
M  V30 66 1 31 63
M  V30 67 1 32 64
M  V30 END BOND
M  V30 END CTAB
M  END
>  <Dataset>  (36) 
ChEMBL_Kinases

>  <Ligand_Instance>  (36) 
nan

>  <PDB_ID>  (36) 
nan

>  <Standardized_SMILES>  (36) 
CC(C)NC[C@@H](C(=O)N1CCN(c2ncnc3c2[C@H](C)C[C@@H]3O)CC1)c1ccc(Cl)cc1

>  <Name>  (36) 
nan

>  <Pocket>  (36) 
nan

>  <ATP_Site>  (36) 
nan

>  <Peripheral>  (36) 
nan

>  <Num_H_Atoms_ProtBoundConf>  (36) 
nan

>  <Num_Resolved_Atoms>  (36) 
nan

>  <Num_Not_Resolved_Atoms>  (36) 
nan

$$$$
CHEMBL2177379
     RDKit          3D

  0  0  0  0  0  0  0  0  0  0999 V3000
M  V30 BEGIN CTAB
M  V30 COUNTS 62 66 0 0 0
M  V30 BEGIN ATOM
M  V30 1 C 3.002403 -0.888907 3.969564 0
M  V30 2 C 4.069679 -0.107606 3.299828 0 CFG=2
M  V30 3 C 5.054368 0.503172 4.301905 0
M  V30 4 C 5.815038 1.438925 3.383944 0 CFG=1
M  V30 5 O 6.686704 0.684237 2.611245 0
M  V30 6 C 4.712776 2.023356 2.573695 0
M  V30 7 N 4.615921 3.213556 1.944106 0
M  V30 8 C 3.486020 3.536407 1.247636 0
M  V30 9 N 2.486399 2.637735 1.212221 0
M  V30 10 C 2.562798 1.428032 1.841884 0
M  V30 11 N 1.372875 0.666947 1.667417 0
M  V30 12 C 0.287321 0.178985 2.536905 0
M  V30 13 C -1.049667 0.504360 1.831075 0
M  V30 14 N -1.063395 -0.356503 0.681464 0
M  V30 15 C -2.244428 -0.796404 0.051388 0
M  V30 16 O -2.661272 -0.069499 0.986497 0
M  V30 17 C -3.234953 -1.428242 -0.821283 0 CFG=1
M  V30 18 C -3.106858 -1.005817 -2.239230 0
M  V30 19 C -4.175498 -0.258386 -2.734211 0
M  V30 20 C -4.249523 0.227978 -4.035903 0
M  V30 21 C -3.197239 -0.042068 -4.907418 0
M  V30 22 Cl -3.135516 0.490690 -6.560228 0
M  V30 23 C -2.144667 -0.780264 -4.415043 0
M  V30 24 C -2.085457 -1.258765 -3.113079 0
M  V30 25 C -3.142562 -2.938928 -0.762849 0 CFG=2
M  V30 26 C -4.159793 -3.613913 -1.659898 0
M  V30 27 C -4.155877 -5.016844 -1.074169 0
M  V30 28 C -3.999468 -4.748288 0.397082 0
M  V30 29 N -3.627331 -3.348838 0.545295 0
M  V30 30 C 0.229392 -0.797534 0.140046 0
M  V30 31 C 1.236745 0.305839 0.254511 0
M  V30 32 C 3.684050 1.072543 2.549943 0
M  V30 33 H 2.288108 -0.290539 4.532375 0
M  V30 34 H 2.545190 -1.537912 3.195075 0
M  V30 35 H 3.537205 -1.631374 4.645523 0
M  V30 36 H 4.683574 -0.830374 2.705875 0
M  V30 37 H 5.657924 -0.253663 4.791955 0
M  V30 38 H 4.424621 1.106988 5.010990 0
M  V30 39 H 6.339668 2.203182 4.007417 0
M  V30 40 H 6.998855 -0.069600 3.169750 0
M  V30 41 H 3.418450 4.492075 0.747761 0
M  V30 42 H 0.250312 0.674284 3.503366 0
M  V30 43 H 0.327734 -0.915793 2.680019 0
M  V30 44 H -0.972286 1.578407 1.549917 0
M  V30 45 H -1.833317 0.345276 2.567838 0
M  V30 46 H -4.253672 -1.162486 -0.451186 0
M  V30 47 H -5.039895 0.005386 -2.141331 0
M  V30 48 H -5.068478 0.796901 -4.403700 0
M  V30 49 H -1.312584 -1.011466 -5.053815 0
M  V30 50 H -1.271253 -1.840138 -2.710530 0
M  V30 51 H -2.142675 -3.305826 -1.003442 0
M  V30 52 H -5.156931 -3.138978 -1.615747 0
M  V30 53 H -3.793008 -3.700916 -2.721840 0
M  V30 54 H -5.062050 -5.582183 -1.335233 0
M  V30 55 H -3.279911 -5.568897 -1.470028 0
M  V30 56 H -4.953105 -4.966396 0.915774 0
M  V30 57 H -3.161849 -5.369839 0.775571 0
M  V30 58 H -4.475331 -2.753312 0.741033 0
M  V30 59 H 0.549049 -1.660705 0.779372 0
M  V30 60 H 0.088809 -1.131832 -0.894589 0
M  V30 61 H 0.820428 1.190000 -0.306644 0
M  V30 62 H 2.176251 0.051534 -0.232159 0
M  V30 END ATOM
M  V30 BEGIN BOND
M  V30 1 1 1 2
M  V30 2 1 2 3
M  V30 3 1 3 4
M  V30 4 1 4 5
M  V30 5 1 4 6
M  V30 6 2 6 7
M  V30 7 1 7 8
M  V30 8 2 8 9
M  V30 9 1 9 10
M  V30 10 1 10 11
M  V30 11 1 11 12
M  V30 12 1 12 13
M  V30 13 1 13 14
M  V30 14 1 14 15
M  V30 15 2 15 16
M  V30 16 1 15 17
M  V30 17 1 17 18
M  V30 18 2 18 19
M  V30 19 1 19 20
M  V30 20 2 20 21
M  V30 21 1 21 22
M  V30 22 1 21 23
M  V30 23 2 23 24
M  V30 24 1 17 25
M  V30 25 1 25 26
M  V30 26 1 26 27
M  V30 27 1 27 28
M  V30 28 1 28 29
M  V30 29 1 14 30
M  V30 30 1 30 31
M  V30 31 2 10 32
M  V30 32 1 32 2
M  V30 33 1 32 6
M  V30 34 1 31 11
M  V30 35 1 24 18
M  V30 36 1 29 25
M  V30 37 1 1 33
M  V30 38 1 1 34
M  V30 39 1 1 35
M  V30 40 1 2 36 CFG=3
M  V30 41 1 3 37
M  V30 42 1 3 38
M  V30 43 1 4 39 CFG=1
M  V30 44 1 5 40
M  V30 45 1 8 41
M  V30 46 1 12 42
M  V30 47 1 12 43
M  V30 48 1 13 44
M  V30 49 1 13 45
M  V30 50 1 17 46 CFG=1
M  V30 51 1 19 47
M  V30 52 1 20 48
M  V30 53 1 23 49
M  V30 54 1 24 50
M  V30 55 1 25 51 CFG=3
M  V30 56 1 26 52
M  V30 57 1 26 53
M  V30 58 1 27 54
M  V30 59 1 27 55
M  V30 60 1 28 56
M  V30 61 1 28 57
M  V30 62 1 29 58
M  V30 63 1 30 59
M  V30 64 1 30 60
M  V30 65 1 31 61
M  V30 66 1 31 62
M  V30 END BOND
M  V30 END CTAB
M  END
>  <Dataset>  (37) 
ChEMBL_Kinases

>  <Ligand_Instance>  (37) 
nan

>  <PDB_ID>  (37) 
nan

>  <Standardized_SMILES>  (37) 
C[C@@H]1C[C@@H](O)c2ncnc(N3CCN(C(=O)[C@@H](c4ccc(Cl)cc4)[C@@H]4CCCN4)CC3)c21

>  <Name>  (37) 
nan

>  <Pocket>  (37) 
nan

>  <ATP_Site>  (37) 
nan

>  <Peripheral>  (37) 
nan

>  <Num_H_Atoms_ProtBoundConf>  (37) 
nan

>  <Num_Resolved_Atoms>  (37) 
nan

>  <Num_Not_Resolved_Atoms>  (37) 
nan

$$$$
CHEMBL2177378
     RDKit          3D

  0  0  0  0  0  0  0  0  0  0999 V3000
M  V30 BEGIN CTAB
M  V30 COUNTS 68 71 0 0 0
M  V30 BEGIN ATOM
M  V30 1 C 2.640648 -0.737672 3.559797 0
M  V30 2 C 3.195440 -0.577066 2.166447 0 CFG=2
M  V30 3 C 4.386496 -1.529436 2.055472 0
M  V30 4 C 5.496957 -0.716459 2.733915 0 CFG=1
M  V30 5 O 6.691972 -1.138725 2.142098 0
M  V30 6 C 5.219776 0.664496 2.255760 0
M  V30 7 N 6.002642 1.768419 2.102623 0
M  V30 8 C 5.505962 2.931650 1.639359 0
M  V30 9 N 4.187928 3.001916 1.317165 0
M  V30 10 C 3.375092 1.914788 1.458436 0
M  V30 11 N 2.021574 2.138521 1.082782 0
M  V30 12 C 0.864721 2.017723 1.910904 0
M  V30 13 C -0.209315 1.177661 1.264700 0
M  V30 14 N -0.239908 1.330336 -0.165468 0
M  V30 15 C -0.894370 0.409998 -1.025862 0
M  V30 16 O -0.896842 0.584557 -2.290750 0
M  V30 17 C -1.595386 -0.782553 -0.484090 0 CFG=2
M  V30 18 C -1.999481 -1.729917 -1.595541 0
M  V30 19 N -2.669962 -2.858451 -1.011499 0
M  V30 20 C -3.117393 -3.850571 -1.936961 0
M  V30 21 C -4.102919 -3.332725 -2.959782 0
M  V30 22 C -3.796372 -4.941270 -1.132848 0
M  V30 23 C -1.966559 -4.484979 -2.678646 0
M  V30 24 O -2.533974 -5.437516 -3.552943 0
M  V30 25 C -2.687604 -0.479170 0.437828 0
M  V30 26 C -2.715102 -0.886088 1.774911 0
M  V30 27 C -3.727793 -0.617788 2.670611 0
M  V30 28 C -4.808903 0.110804 2.225519 0
M  V30 29 Cl -6.060999 0.422660 3.395697 0
M  V30 30 C -4.839762 0.541757 0.912847 0
M  V30 31 C -3.798572 0.247952 0.048843 0
M  V30 32 C 0.434560 2.482894 -0.731223 0
M  V30 33 C 1.891928 2.529331 -0.315136 0
M  V30 34 C 3.863227 0.714131 1.930968 0
M  V30 35 H 3.162012 -0.069997 4.279153 0
M  V30 36 H 2.846717 -1.773362 3.899224 0
M  V30 37 H 1.539957 -0.605884 3.593384 0
M  V30 38 H 2.411359 -0.821513 1.432548 0
M  V30 39 H 4.174794 -2.469007 2.597617 0
M  V30 40 H 4.604748 -1.657364 0.979260 0
M  V30 41 H 5.487777 -0.839060 3.813518 0
M  V30 42 H 6.633571 -0.848918 1.183758 0
M  V30 43 H 6.102466 3.823999 1.507338 0
M  V30 44 H 0.481682 3.066006 2.074291 0
M  V30 45 H 1.130764 1.657819 2.916113 0
M  V30 46 H -1.170871 1.563588 1.653174 0
M  V30 47 H -0.012861 0.116505 1.476288 0
M  V30 48 H -0.836268 -1.366848 0.110951 0
M  V30 49 H -2.596056 -1.228559 -2.387724 0
M  V30 50 H -1.047840 -2.035394 -2.077406 0
M  V30 51 H -3.344326 -2.620341 -0.279649 0
M  V30 52 H -4.727875 -2.509757 -2.509144 0
M  V30 53 H -3.550709 -2.906050 -3.821525 0
M  V30 54 H -4.779112 -4.154955 -3.280680 0
M  V30 55 H -3.203784 -5.067991 -0.198073 0
M  V30 56 H -4.826931 -4.598636 -0.861828 0
M  V30 57 H -3.831840 -5.892390 -1.694115 0
M  V30 58 H -1.427973 -3.778718 -3.332118 0
M  V30 59 H -1.272537 -5.033010 -2.030934 0
M  V30 60 H -1.933737 -5.547558 -4.356838 0
M  V30 61 H -1.845681 -1.462068 2.101122 0
M  V30 62 H -3.615412 -0.992833 3.665398 0
M  V30 63 H -5.712033 1.109481 0.617593 0
M  V30 64 H -3.889313 0.618318 -0.968780 0
M  V30 65 H 0.422775 2.430019 -1.847373 0
M  V30 66 H -0.090989 3.415867 -0.469493 0
M  V30 67 H 2.511557 1.856988 -0.970697 0
M  V30 68 H 2.271040 3.551553 -0.485520 0
M  V30 END ATOM
M  V30 BEGIN BOND
M  V30 1 1 1 2
M  V30 2 1 2 3
M  V30 3 1 3 4
M  V30 4 1 4 5
M  V30 5 1 4 6
M  V30 6 2 6 7
M  V30 7 1 7 8
M  V30 8 2 8 9
M  V30 9 1 9 10
M  V30 10 1 10 11
M  V30 11 1 11 12
M  V30 12 1 12 13
M  V30 13 1 13 14
M  V30 14 1 14 15
M  V30 15 2 15 16
M  V30 16 1 15 17
M  V30 17 1 17 18
M  V30 18 1 18 19
M  V30 19 1 19 20
M  V30 20 1 20 21
M  V30 21 1 20 22
M  V30 22 1 20 23
M  V30 23 1 23 24
M  V30 24 1 17 25
M  V30 25 2 25 26
M  V30 26 1 26 27
M  V30 27 2 27 28
M  V30 28 1 28 29
M  V30 29 1 28 30
M  V30 30 2 30 31
M  V30 31 1 14 32
M  V30 32 1 32 33
M  V30 33 2 10 34
M  V30 34 1 34 2
M  V30 35 1 34 6
M  V30 36 1 33 11
M  V30 37 1 31 25
M  V30 38 1 1 35
M  V30 39 1 1 36
M  V30 40 1 1 37
M  V30 41 1 2 38 CFG=3
M  V30 42 1 3 39
M  V30 43 1 3 40
M  V30 44 1 4 41 CFG=1
M  V30 45 1 5 42
M  V30 46 1 8 43
M  V30 47 1 12 44
M  V30 48 1 12 45
M  V30 49 1 13 46
M  V30 50 1 13 47
M  V30 51 1 17 48 CFG=1
M  V30 52 1 18 49
M  V30 53 1 18 50
M  V30 54 1 19 51
M  V30 55 1 21 52
M  V30 56 1 21 53
M  V30 57 1 21 54
M  V30 58 1 22 55
M  V30 59 1 22 56
M  V30 60 1 22 57
M  V30 61 1 23 58
M  V30 62 1 23 59
M  V30 63 1 24 60
M  V30 64 1 26 61
M  V30 65 1 27 62
M  V30 66 1 30 63
M  V30 67 1 31 64
M  V30 68 1 32 65
M  V30 69 1 32 66
M  V30 70 1 33 67
M  V30 71 1 33 68
M  V30 END BOND
M  V30 END CTAB
M  END
>  <Dataset>  (38) 
ChEMBL_Kinases

>  <Ligand_Instance>  (38) 
nan

>  <PDB_ID>  (38) 
nan

>  <Standardized_SMILES>  (38) 
C[C@@H]1C[C@@H](O)c2ncnc(N3CCN(C(=O)[C@H](CNC(C)(C)CO)c4ccc(Cl)cc4)CC3)c21

>  <Name>  (38) 
nan

>  <Pocket>  (38) 
nan

>  <ATP_Site>  (38) 
nan

>  <Peripheral>  (38) 
nan

>  <Num_H_Atoms_ProtBoundConf>  (38) 
nan

>  <Num_Resolved_Atoms>  (38) 
nan

>  <Num_Not_Resolved_Atoms>  (38) 
nan

$$$$
CHEMBL2177377
     RDKit          3D

  0  0  0  0  0  0  0  0  0  0999 V3000
M  V30 BEGIN CTAB
M  V30 COUNTS 65 68 0 0 0
M  V30 BEGIN ATOM
M  V30 1 C 3.963365 1.794433 5.642411 0
M  V30 2 O 2.678644 2.236829 5.385740 0
M  V30 3 C 1.816493 1.280811 4.939678 0
M  V30 4 C 2.230198 0.618774 3.648943 0
M  V30 5 N 2.336362 1.551358 2.615210 0
M  V30 6 C 2.714848 1.221672 1.329003 0
M  V30 7 C 1.862374 0.446573 0.407720 0 CFG=1
M  V30 8 C 1.431559 -0.887921 0.742906 0
M  V30 9 O 2.238707 -1.804001 0.309987 0
M  V30 10 N 0.321822 -1.516449 1.443612 0
M  V30 11 C -0.885727 -1.041817 2.132489 0
M  V30 12 C -2.156990 -1.489066 1.468882 0
M  V30 13 N -1.927452 -2.700930 0.779867 0
M  V30 14 C -2.369393 -3.218857 -0.447919 0
M  V30 15 N -3.017665 -4.418800 -0.336405 0
M  V30 16 C -3.495971 -5.044583 -1.452923 0
M  V30 17 N -3.373456 -4.552569 -2.701603 0
M  V30 18 C -2.735824 -3.367272 -2.829781 0
M  V30 19 C -2.246667 -2.720793 -1.715601 0
M  V30 20 C -1.600454 -1.448391 -2.089424 0 CFG=2
M  V30 21 C -2.579349 -0.293031 -2.092264 0
M  V30 22 C -1.286847 -1.700467 -3.570905 0
M  V30 23 C -2.434778 -2.564132 -4.027445 0 CFG=1
M  V30 24 O -1.908572 -3.458043 -4.986814 0
M  V30 25 C -1.046952 -3.584241 1.539263 0
M  V30 26 C 0.303460 -2.969297 1.558997 0
M  V30 27 C 0.814248 1.317648 -0.245443 0
M  V30 28 C -0.075478 2.099179 0.461419 0
M  V30 29 C -1.043860 2.909844 -0.086226 0
M  V30 30 C -1.143320 2.953273 -1.456438 0
M  V30 31 Cl -2.321397 3.934811 -2.284081 0
M  V30 32 C -0.298739 2.207763 -2.246782 0
M  V30 33 C 0.644440 1.420505 -1.631319 0
M  V30 34 H 4.462373 1.367216 4.749223 0
M  V30 35 H 4.567167 2.684202 5.919175 0
M  V30 36 H 4.014522 1.110420 6.528063 0
M  V30 37 H 1.622188 0.559068 5.758387 0
M  V30 38 H 0.842033 1.779267 4.737951 0
M  V30 39 H 3.216163 0.096320 3.747355 0
M  V30 40 H 1.509776 -0.196006 3.486505 0
M  V30 41 H 2.107606 2.536680 2.831460 0
M  V30 42 H 2.966510 2.202596 0.794129 0
M  V30 43 H 3.766371 0.770117 1.403437 0
M  V30 44 H 2.571830 0.284932 -0.511935 0
M  V30 45 H -0.798066 -1.448869 3.186158 0
M  V30 46 H -0.929274 0.035562 2.256102 0
M  V30 47 H -2.871219 -1.689138 2.328748 0
M  V30 48 H -2.685402 -0.685018 0.934922 0
M  V30 49 H -4.016524 -5.996662 -1.410276 0
M  V30 50 H -0.634116 -1.245197 -1.643400 0
M  V30 51 H -3.629070 -0.650029 -1.967424 0
M  V30 52 H -2.344090 0.333687 -1.208204 0
M  V30 53 H -2.540934 0.333186 -2.980767 0
M  V30 54 H -1.218358 -0.732992 -4.092717 0
M  V30 55 H -0.334729 -2.232670 -3.688877 0
M  V30 56 H -3.280204 -1.992228 -4.421799 0
M  V30 57 H -0.960257 -3.645412 -4.717730 0
M  V30 58 H -1.435203 -3.675349 2.597492 0
M  V30 59 H -1.046335 -4.627907 1.154487 0
M  V30 60 H 0.861520 -3.439239 0.696596 0
M  V30 61 H 0.891968 -3.295059 2.454132 0
M  V30 62 H -0.030492 2.101790 1.534822 0
M  V30 63 H -1.710958 3.498153 0.534790 0
M  V30 64 H -0.347608 2.217294 -3.335009 0
M  V30 65 H 1.324118 0.820665 -2.255759 0
M  V30 END ATOM
M  V30 BEGIN BOND
M  V30 1 1 1 2
M  V30 2 1 2 3
M  V30 3 1 3 4
M  V30 4 1 4 5
M  V30 5 1 5 6
M  V30 6 1 6 7
M  V30 7 1 7 8
M  V30 8 2 8 9
M  V30 9 1 8 10
M  V30 10 1 10 11
M  V30 11 1 11 12
M  V30 12 1 12 13
M  V30 13 1 13 14
M  V30 14 2 14 15
M  V30 15 1 15 16
M  V30 16 2 16 17
M  V30 17 1 17 18
M  V30 18 2 18 19
M  V30 19 1 19 20
M  V30 20 1 20 21
M  V30 21 1 20 22
M  V30 22 1 22 23
M  V30 23 1 23 24
M  V30 24 1 13 25
M  V30 25 1 25 26
M  V30 26 1 7 27
M  V30 27 2 27 28
M  V30 28 1 28 29
M  V30 29 2 29 30
M  V30 30 1 30 31
M  V30 31 1 30 32
M  V30 32 2 32 33
M  V30 33 1 26 10
M  V30 34 1 33 27
M  V30 35 1 19 14
M  V30 36 1 23 18
M  V30 37 1 1 34
M  V30 38 1 1 35
M  V30 39 1 1 36
M  V30 40 1 3 37
M  V30 41 1 3 38
M  V30 42 1 4 39
M  V30 43 1 4 40
M  V30 44 1 5 41
M  V30 45 1 6 42
M  V30 46 1 6 43
M  V30 47 1 7 44 CFG=3
M  V30 48 1 11 45
M  V30 49 1 11 46
M  V30 50 1 12 47
M  V30 51 1 12 48
M  V30 52 1 16 49
M  V30 53 1 20 50 CFG=1
M  V30 54 1 21 51
M  V30 55 1 21 52
M  V30 56 1 21 53
M  V30 57 1 22 54
M  V30 58 1 22 55
M  V30 59 1 23 56 CFG=3
M  V30 60 1 24 57
M  V30 61 1 25 58
M  V30 62 1 25 59
M  V30 63 1 26 60
M  V30 64 1 26 61
M  V30 65 1 28 62
M  V30 66 1 29 63
M  V30 67 1 32 64
M  V30 68 1 33 65
M  V30 END BOND
M  V30 END CTAB
M  END
>  <Dataset>  (39) 
ChEMBL_Kinases

>  <Ligand_Instance>  (39) 
nan

>  <PDB_ID>  (39) 
nan

>  <Standardized_SMILES>  (39) 
COCCNC[C@@H](C(=O)N1CCN(c2ncnc3c2[C@H](C)C[C@H]3O)CC1)c1ccc(Cl)cc1

>  <Name>  (39) 
nan

>  <Pocket>  (39) 
nan

>  <ATP_Site>  (39) 
nan

>  <Peripheral>  (39) 
nan

>  <Num_H_Atoms_ProtBoundConf>  (39) 
nan

>  <Num_Resolved_Atoms>  (39) 
nan

>  <Num_Not_Resolved_Atoms>  (39) 
nan

$$$$
CHEMBL2177376
     RDKit          3D

  0  0  0  0  0  0  0  0  0  0999 V3000
M  V30 BEGIN CTAB
M  V30 COUNTS 61 64 0 0 0
M  V30 BEGIN ATOM
M  V30 1 C 2.100642 0.835915 4.680289 0
M  V30 2 C 2.701587 -0.237276 3.805695 0 CFG=2
M  V30 3 C 4.028860 -0.632060 4.466961 0
M  V30 4 C 4.946937 0.544750 4.109181 0 CFG=1
M  V30 5 O 6.265513 0.072687 4.058492 0
M  V30 6 C 4.517474 0.846367 2.703991 0
M  V30 7 N 5.126236 1.440353 1.638065 0
M  V30 8 C 4.473708 1.578747 0.446085 0
M  V30 9 N 3.196082 1.121618 0.305703 0
M  V30 10 C 2.582382 0.526395 1.369351 0
M  V30 11 N 1.258536 0.116045 1.046476 0
M  V30 12 C 0.070319 0.604018 1.676010 0
M  V30 13 C -1.142327 0.566488 0.785589 0
M  V30 14 N -1.222336 -0.659798 0.012937 0
M  V30 15 C -2.353355 -0.538044 -0.810999 0
M  V30 16 O -2.676212 0.629497 -0.387972 0
M  V30 17 C -3.172233 -1.172600 -1.827218 0 CFG=2
M  V30 18 C -3.921003 -2.403113 -1.449620 0
M  V30 19 N -4.860696 -2.326394 -0.411844 0
M  V30 20 C -4.474711 -2.124782 0.918903 0
M  V30 21 C -3.729850 -3.263096 1.566346 0
M  V30 22 F -3.447295 -2.855369 2.858909 0
M  V30 23 F -2.570140 -3.627652 0.975447 0
M  V30 24 F -4.540943 -4.407452 1.603533 0
M  V30 25 C -2.422315 -1.429399 -3.099196 0
M  V30 26 C -2.718013 -0.683747 -4.249905 0
M  V30 27 C -2.073016 -0.865079 -5.461576 0
M  V30 28 C -1.086673 -1.821238 -5.565854 0
M  V30 29 Cl -0.238721 -2.099369 -7.062565 0
M  V30 30 C -0.768904 -2.574231 -4.453608 0
M  V30 31 C -1.429649 -2.369085 -3.262560 0
M  V30 32 C -0.191430 -1.615091 0.276314 0
M  V30 33 C 1.131060 -0.892201 -0.017627 0
M  V30 34 C 3.215371 0.380801 2.559583 0
M  V30 35 H 1.645114 1.654883 4.089904 0
M  V30 36 H 2.859098 1.280780 5.371923 0
M  V30 37 H 1.318115 0.429547 5.357811 0
M  V30 38 H 2.054286 -1.107845 3.646192 0
M  V30 39 H 3.837878 -0.711547 5.536619 0
M  V30 40 H 4.428672 -1.557997 3.996844 0
M  V30 41 H 4.811984 1.393011 4.784977 0
M  V30 42 H 6.604266 -0.009781 3.121795 0
M  V30 43 H 4.992474 2.059107 -0.384727 0
M  V30 44 H 0.241876 1.609211 2.085354 0
M  V30 45 H -0.159398 -0.065660 2.545327 0
M  V30 46 H -1.022899 1.423583 0.090267 0
M  V30 47 H -2.049128 0.769994 1.393892 0
M  V30 48 H -3.964323 -0.433721 -2.149009 0
M  V30 49 H -4.543085 -2.637595 -2.370310 0
M  V30 50 H -3.258463 -3.312437 -1.412089 0
M  V30 51 H -5.675360 -2.942624 -0.487118 0
M  V30 52 H -5.440854 -2.080055 1.513349 0
M  V30 53 H -3.991780 -1.170874 1.170708 0
M  V30 54 H -3.497639 0.096220 -4.231542 0
M  V30 55 H -2.318634 -0.281776 -6.327796 0
M  V30 56 H 0.011413 -3.340154 -4.515859 0
M  V30 57 H -1.166297 -2.972173 -2.406929 0
M  V30 58 H -0.180381 -1.797828 1.386186 0
M  V30 59 H -0.186300 -2.528060 -0.295546 0
M  V30 60 H 1.097883 -0.461352 -1.018299 0
M  V30 61 H 1.948778 -1.632078 0.140186 0
M  V30 END ATOM
M  V30 BEGIN BOND
M  V30 1 1 1 2
M  V30 2 1 2 3
M  V30 3 1 3 4
M  V30 4 1 4 5
M  V30 5 1 4 6
M  V30 6 2 6 7
M  V30 7 1 7 8
M  V30 8 2 8 9
M  V30 9 1 9 10
M  V30 10 1 10 11
M  V30 11 1 11 12
M  V30 12 1 12 13
M  V30 13 1 13 14
M  V30 14 1 14 15
M  V30 15 2 15 16
M  V30 16 1 15 17
M  V30 17 1 17 18
M  V30 18 1 18 19
M  V30 19 1 19 20
M  V30 20 1 20 21
M  V30 21 1 21 22
M  V30 22 1 21 23
M  V30 23 1 21 24
M  V30 24 1 17 25
M  V30 25 2 25 26
M  V30 26 1 26 27
M  V30 27 2 27 28
M  V30 28 1 28 29
M  V30 29 1 28 30
M  V30 30 2 30 31
M  V30 31 1 14 32
M  V30 32 1 32 33
M  V30 33 2 10 34
M  V30 34 1 34 2
M  V30 35 1 34 6
M  V30 36 1 33 11
M  V30 37 1 31 25
M  V30 38 1 1 35
M  V30 39 1 1 36
M  V30 40 1 1 37
M  V30 41 1 2 38 CFG=3
M  V30 42 1 3 39
M  V30 43 1 3 40
M  V30 44 1 4 41 CFG=1
M  V30 45 1 5 42
M  V30 46 1 8 43
M  V30 47 1 12 44
M  V30 48 1 12 45
M  V30 49 1 13 46
M  V30 50 1 13 47
M  V30 51 1 17 48 CFG=3
M  V30 52 1 18 49
M  V30 53 1 18 50
M  V30 54 1 19 51
M  V30 55 1 20 52
M  V30 56 1 20 53
M  V30 57 1 26 54
M  V30 58 1 27 55
M  V30 59 1 30 56
M  V30 60 1 31 57
M  V30 61 1 32 58
M  V30 62 1 32 59
M  V30 63 1 33 60
M  V30 64 1 33 61
M  V30 END BOND
M  V30 END CTAB
M  END
>  <Dataset>  (40) 
ChEMBL_Kinases

>  <Ligand_Instance>  (40) 
nan

>  <PDB_ID>  (40) 
nan

>  <Standardized_SMILES>  (40) 
C[C@@H]1C[C@@H](O)c2ncnc(N3CCN(C(=O)[C@H](CNCC(F)(F)F)c4ccc(Cl)cc4)CC3)c21

>  <Name>  (40) 
nan

>  <Pocket>  (40) 
nan

>  <ATP_Site>  (40) 
nan

>  <Peripheral>  (40) 
nan

>  <Num_H_Atoms_ProtBoundConf>  (40) 
nan

>  <Num_Resolved_Atoms>  (40) 
nan

>  <Num_Not_Resolved_Atoms>  (40) 
nan

$$$$
CHEMBL2177375
     RDKit          3D

  0  0  0  0  0  0  0  0  0  0999 V3000
M  V30 BEGIN CTAB
M  V30 COUNTS 61 64 0 0 0
M  V30 BEGIN ATOM
M  V30 1 C 1.605692 1.533974 4.726567 0
M  V30 2 C 2.074796 0.307614 3.931571 0 CFG=2
M  V30 3 C 2.945332 -0.467472 4.941539 0
M  V30 4 C 4.116618 0.483595 5.022259 0 CFG=1
M  V30 5 O 5.237586 -0.073469 5.620958 0
M  V30 6 C 4.298496 0.783631 3.581060 0
M  V30 7 N 5.401954 1.118135 2.873941 0
M  V30 8 C 5.340186 1.359203 1.551489 0
M  V30 9 N 4.141669 1.254847 0.962792 0
M  V30 10 C 2.993442 0.930422 1.574803 0
M  V30 11 N 1.817457 0.878796 0.789598 0
M  V30 12 C 1.908536 1.138493 -0.639419 0
M  V30 13 C 1.089631 0.196991 -1.475203 0
M  V30 14 N -0.251870 0.023958 -0.945845 0
M  V30 15 C -0.882258 -0.999443 -1.682369 0
M  V30 16 O -0.061625 -1.426881 -2.568830 0
M  V30 17 C -2.150105 -1.696005 -1.735251 0 CFG=2
M  V30 18 C -2.633431 -2.188036 -0.370020 0
M  V30 19 N -3.897553 -2.874794 -0.481689 0
M  V30 20 C -5.008437 -2.047771 -0.836042 0
M  V30 21 C -5.412362 -1.061904 0.231656 0
M  V30 22 F -5.756429 -1.773026 1.361538 0
M  V30 23 C -2.260420 -2.735159 -2.764184 0
M  V30 24 C -1.368353 -3.769794 -2.571069 0
M  V30 25 C -1.317981 -4.856561 -3.447151 0
M  V30 26 C -2.163918 -4.924022 -4.535112 0
M  V30 27 Cl -2.119318 -6.271097 -5.644547 0
M  V30 28 C -3.061967 -3.866899 -4.715989 0
M  V30 29 C -3.109175 -2.802587 -3.855158 0
M  V30 30 C -0.573125 0.915370 0.154936 0
M  V30 31 C 0.474360 0.596291 1.232775 0
M  V30 32 C 3.087529 0.688838 2.927703 0
M  V30 33 H 2.302389 2.366761 4.480121 0
M  V30 34 H 0.573810 1.798573 4.425353 0
M  V30 35 H 1.633066 1.381418 5.806056 0
M  V30 36 H 1.253008 -0.308804 3.580117 0
M  V30 37 H 3.270957 -1.423111 4.476638 0
M  V30 38 H 2.440204 -0.565054 5.901446 0
M  V30 39 H 3.759986 1.399538 5.530850 0
M  V30 40 H 5.374176 0.412279 6.463110 0
M  V30 41 H 6.175623 1.631923 0.912464 0
M  V30 42 H 2.966792 1.035125 -0.955563 0
M  V30 43 H 1.629806 2.187347 -0.821219 0
M  V30 44 H 0.964199 0.660780 -2.476715 0
M  V30 45 H 1.612066 -0.775544 -1.646789 0
M  V30 46 H -2.935547 -0.939176 -2.019635 0
M  V30 47 H -1.912787 -2.918610 0.055793 0
M  V30 48 H -2.782047 -1.317801 0.297084 0
M  V30 49 H -4.100412 -3.511663 0.290845 0
M  V30 50 H -5.880246 -2.733397 -0.968780 0
M  V30 51 H -4.869050 -1.574627 -1.831750 0
M  V30 52 H -6.322573 -0.494433 -0.113481 0
M  V30 53 H -4.572337 -0.371503 0.403487 0
M  V30 54 H -0.653726 -3.856253 -1.775426 0
M  V30 55 H -0.628110 -5.695644 -3.330134 0
M  V30 56 H -3.732799 -3.879300 -5.544351 0
M  V30 57 H -3.774337 -1.955534 -3.934050 0
M  V30 58 H -0.369111 1.959455 -0.133443 0
M  V30 59 H -1.535167 0.722614 0.626677 0
M  V30 60 H 0.377645 -0.481085 1.398919 0
M  V30 61 H 0.201748 1.209868 2.120499 0
M  V30 END ATOM
M  V30 BEGIN BOND
M  V30 1 1 1 2
M  V30 2 1 2 3
M  V30 3 1 3 4
M  V30 4 1 4 5
M  V30 5 1 4 6
M  V30 6 2 6 7
M  V30 7 1 7 8
M  V30 8 2 8 9
M  V30 9 1 9 10
M  V30 10 1 10 11
M  V30 11 1 11 12
M  V30 12 1 12 13
M  V30 13 1 13 14
M  V30 14 1 14 15
M  V30 15 2 15 16
M  V30 16 1 15 17
M  V30 17 1 17 18
M  V30 18 1 18 19
M  V30 19 1 19 20
M  V30 20 1 20 21
M  V30 21 1 21 22
M  V30 22 1 17 23
M  V30 23 2 23 24
M  V30 24 1 24 25
M  V30 25 2 25 26
M  V30 26 1 26 27
M  V30 27 1 26 28
M  V30 28 2 28 29
M  V30 29 1 14 30
M  V30 30 1 30 31
M  V30 31 2 10 32
M  V30 32 1 32 2
M  V30 33 1 32 6
M  V30 34 1 31 11
M  V30 35 1 29 23
M  V30 36 1 1 33
M  V30 37 1 1 34
M  V30 38 1 1 35
M  V30 39 1 2 36 CFG=3
M  V30 40 1 3 37
M  V30 41 1 3 38
M  V30 42 1 4 39 CFG=1
M  V30 43 1 5 40
M  V30 44 1 8 41
M  V30 45 1 12 42
M  V30 46 1 12 43
M  V30 47 1 13 44
M  V30 48 1 13 45
M  V30 49 1 17 46 CFG=3
M  V30 50 1 18 47
M  V30 51 1 18 48
M  V30 52 1 19 49
M  V30 53 1 20 50
M  V30 54 1 20 51
M  V30 55 1 21 52
M  V30 56 1 21 53
M  V30 57 1 24 54
M  V30 58 1 25 55
M  V30 59 1 28 56
M  V30 60 1 29 57
M  V30 61 1 30 58
M  V30 62 1 30 59
M  V30 63 1 31 60
M  V30 64 1 31 61
M  V30 END BOND
M  V30 END CTAB
M  END
>  <Dataset>  (41) 
ChEMBL_Kinases

>  <Ligand_Instance>  (41) 
nan

>  <PDB_ID>  (41) 
nan

>  <Standardized_SMILES>  (41) 
C[C@@H]1C[C@@H](O)c2ncnc(N3CCN(C(=O)[C@H](CNCCF)c4ccc(Cl)cc4)CC3)c21

>  <Name>  (41) 
nan

>  <Pocket>  (41) 
nan

>  <ATP_Site>  (41) 
nan

>  <Peripheral>  (41) 
nan

>  <Num_H_Atoms_ProtBoundConf>  (41) 
nan

>  <Num_Resolved_Atoms>  (41) 
nan

>  <Num_Not_Resolved_Atoms>  (41) 
nan

$$$$
CHEMBL2177374
     RDKit          3D

  0  0  0  0  0  0  0  0  0  0999 V3000
M  V30 BEGIN CTAB
M  V30 COUNTS 65 69 0 0 0
M  V30 BEGIN ATOM
M  V30 1 C 2.335262 0.241935 1.700714 0
M  V30 2 C 3.214162 1.027108 0.772654 0 CFG=2
M  V30 3 C 4.612348 0.894236 1.405013 0
M  V30 4 C 5.317786 2.035143 0.726528 0 CFG=1
M  V30 5 O 5.591694 1.690888 -0.574148 0
M  V30 6 C 4.288142 3.131969 0.816312 0
M  V30 7 N 4.361046 4.464144 0.873658 0
M  V30 8 C 3.255933 5.199038 0.947734 0
M  V30 9 N 2.044025 4.615271 0.966084 0
M  V30 10 C 1.903348 3.258869 0.910239 0
M  V30 11 N 0.568364 2.765945 0.925792 0
M  V30 12 C 0.300004 2.085876 -0.327630 0
M  V30 13 C -1.125173 1.581979 -0.396491 0
M  V30 14 N -1.281806 0.739758 0.798930 0
M  V30 15 C -1.662702 -0.589194 1.102006 0
M  V30 16 O -1.775883 -1.295990 2.153525 0
M  V30 17 C -2.105077 -1.745396 0.249542 0 CFG=2
M  V30 18 C -3.371626 -1.421858 -0.477464 0
M  V30 19 N -3.824712 -2.465812 -1.314678 0
M  V30 20 C -3.131502 -2.752480 -2.493457 0
M  V30 21 C -1.789789 -3.342646 -2.493082 0
M  V30 22 C -1.373355 -4.626882 -1.937421 0
M  V30 23 C -1.606272 -4.558640 -3.434639 0
M  V30 24 C -2.291455 -2.942226 1.150148 0
M  V30 25 C -3.469682 -2.974305 1.908326 0
M  V30 26 C -3.723647 -4.028829 2.777862 0
M  V30 27 C -2.838229 -5.067338 2.924681 0
M  V30 28 Cl -3.160193 -6.394113 4.019626 0
M  V30 29 C -1.671877 -5.053102 2.186176 0
M  V30 30 C -1.446761 -4.011748 1.343449 0
M  V30 31 C -0.992128 1.360732 2.076770 0
M  V30 32 C -0.536158 2.799104 1.893932 0
M  V30 33 C 3.043940 2.487535 0.833632 0
M  V30 34 H 2.881852 -0.692088 1.952562 0
M  V30 35 H 2.210227 0.794517 2.661394 0
M  V30 36 H 1.379303 -0.096233 1.256561 0
M  V30 37 H 3.275268 0.590068 -0.218913 0
M  V30 38 H 5.052137 -0.090084 1.253853 0
M  V30 39 H 4.454999 1.167473 2.488261 0
M  V30 40 H 6.223373 2.323529 1.291958 0
M  V30 41 H 5.292205 0.768136 -0.751171 0
M  V30 42 H 3.381734 6.283180 0.992369 0
M  V30 43 H 0.364158 2.903098 -1.106364 0
M  V30 44 H 1.037158 1.350494 -0.627727 0
M  V30 45 H -1.851185 2.411191 -0.280501 0
M  V30 46 H -1.348618 1.063353 -1.326302 0
M  V30 47 H -1.299702 -1.945357 -0.426504 0
M  V30 48 H -3.134655 -0.480175 -1.074467 0
M  V30 49 H -4.135873 -1.087374 0.269107 0
M  V30 50 H -4.402946 -3.183265 -0.873502 0
M  V30 51 H -3.066099 -1.770414 -3.076005 0
M  V30 52 H -3.822393 -3.395949 -3.136638 0
M  V30 53 H -0.936967 -2.610121 -2.653046 0
M  V30 54 H -2.049776 -5.347127 -1.440200 0
M  V30 55 H -0.320997 -4.764659 -1.604349 0
M  V30 56 H -0.745488 -4.587337 -4.104980 0
M  V30 57 H -2.535954 -5.006966 -3.853376 0
M  V30 58 H -4.250067 -2.255413 1.912935 0
M  V30 59 H -4.622528 -4.104409 3.390152 0
M  V30 60 H -0.923063 -5.831169 2.243044 0
M  V30 61 H -0.541988 -3.959148 0.746368 0
M  V30 62 H -0.316330 0.792857 2.721209 0
M  V30 63 H -1.972197 1.387429 2.641286 0
M  V30 64 H -0.238570 3.249798 2.838570 0
M  V30 65 H -1.376103 3.405385 1.484882 0
M  V30 END ATOM
M  V30 BEGIN BOND
M  V30 1 1 1 2
M  V30 2 1 2 3
M  V30 3 1 3 4
M  V30 4 1 4 5
M  V30 5 1 4 6
M  V30 6 2 6 7
M  V30 7 1 7 8
M  V30 8 2 8 9
M  V30 9 1 9 10
M  V30 10 1 10 11
M  V30 11 1 11 12
M  V30 12 1 12 13
M  V30 13 1 13 14
M  V30 14 1 14 15
M  V30 15 2 15 16
M  V30 16 1 15 17
M  V30 17 1 17 18
M  V30 18 1 18 19
M  V30 19 1 19 20
M  V30 20 1 20 21
M  V30 21 1 21 22
M  V30 22 1 22 23
M  V30 23 1 17 24
M  V30 24 2 24 25
M  V30 25 1 25 26
M  V30 26 2 26 27
M  V30 27 1 27 28
M  V30 28 1 27 29
M  V30 29 2 29 30
M  V30 30 1 14 31
M  V30 31 1 31 32
M  V30 32 2 10 33
M  V30 33 1 33 2
M  V30 34 1 33 6
M  V30 35 1 32 11
M  V30 36 1 23 21
M  V30 37 1 30 24
M  V30 38 1 1 34
M  V30 39 1 1 35
M  V30 40 1 1 36
M  V30 41 1 2 37 CFG=3
M  V30 42 1 3 38
M  V30 43 1 3 39
M  V30 44 1 4 40 CFG=1
M  V30 45 1 5 41
M  V30 46 1 8 42
M  V30 47 1 12 43
M  V30 48 1 12 44
M  V30 49 1 13 45
M  V30 50 1 13 46
M  V30 51 1 17 47 CFG=3
M  V30 52 1 18 48
M  V30 53 1 18 49
M  V30 54 1 19 50
M  V30 55 1 20 51
M  V30 56 1 20 52
M  V30 57 1 21 53
M  V30 58 1 22 54
M  V30 59 1 22 55
M  V30 60 1 23 56
M  V30 61 1 23 57
M  V30 62 1 25 58
M  V30 63 1 26 59
M  V30 64 1 29 60
M  V30 65 1 30 61
M  V30 66 1 31 62
M  V30 67 1 31 63
M  V30 68 1 32 64
M  V30 69 1 32 65
M  V30 END BOND
M  V30 END CTAB
M  END
>  <Dataset>  (42) 
ChEMBL_Kinases

>  <Ligand_Instance>  (42) 
nan

>  <PDB_ID>  (42) 
nan

>  <Standardized_SMILES>  (42) 
C[C@@H]1C[C@@H](O)c2ncnc(N3CCN(C(=O)[C@H](CNCC4CC4)c4ccc(Cl)cc4)CC3)c21

>  <Name>  (42) 
nan

>  <Pocket>  (42) 
nan

>  <ATP_Site>  (42) 
nan

>  <Peripheral>  (42) 
nan

>  <Num_H_Atoms_ProtBoundConf>  (42) 
nan

>  <Num_Resolved_Atoms>  (42) 
nan

>  <Num_Not_Resolved_Atoms>  (42) 
nan

$$$$
CHEMBL2177373
     RDKit          3D

  0  0  0  0  0  0  0  0  0  0999 V3000
M  V30 BEGIN CTAB
M  V30 COUNTS 55 58 0 0 0
M  V30 BEGIN ATOM
M  V30 1 C 1.423179 -2.070252 3.328423 0
M  V30 2 C 2.774277 -1.688677 2.805583 0 CFG=2
M  V30 3 C 3.718392 -1.758412 4.025123 0
M  V30 4 C 3.600628 -0.400544 4.632335 0 CFG=1
M  V30 5 O 4.853577 -0.110095 5.216411 0
M  V30 6 C 3.395432 0.455508 3.442728 0
M  V30 7 N 3.631181 1.765231 3.354585 0
M  V30 8 C 3.368466 2.384935 2.190076 0
M  V30 9 N 2.882743 1.660128 1.174823 0
M  V30 10 C 2.625375 0.338275 1.206586 0
M  V30 11 N 2.072964 -0.256137 0.027641 0
M  V30 12 C 2.050925 0.579037 -1.194205 0
M  V30 13 C 0.636253 1.020377 -1.412148 0
M  V30 14 N -0.318736 -0.009880 -1.008917 0
M  V30 15 C -1.609476 0.514708 -1.098269 0
M  V30 16 O -1.205008 1.657316 -1.508638 0
M  V30 17 C -3.021472 0.217500 -0.903528 0 CFG=2
M  V30 18 C -3.282301 0.055118 0.587618 0
M  V30 19 N -4.702379 -0.241152 0.748534 0
M  V30 20 C -3.582745 -0.870033 -1.704823 0
M  V30 21 C -3.289920 -2.213992 -1.582340 0
M  V30 22 C -3.834060 -3.216255 -2.357795 0
M  V30 23 C -4.742769 -2.870959 -3.336418 0
M  V30 24 Cl -5.483547 -4.077553 -4.367384 0
M  V30 25 C -5.111088 -1.558834 -3.549416 0
M  V30 26 C -4.513861 -0.628064 -2.724983 0
M  V30 27 C 0.039651 -1.343067 -0.592345 0
M  V30 28 C 1.493139 -1.516425 -0.259984 0
M  V30 29 C 2.896462 -0.296577 2.400796 0
M  V30 30 H 1.412548 -2.460431 4.360565 0
M  V30 31 H 0.921566 -2.844094 2.694121 0
M  V30 32 H 0.698301 -1.204764 3.337921 0
M  V30 33 H 3.245312 -2.436949 2.131348 0
M  V30 34 H 4.755451 -2.007686 3.710706 0
M  V30 35 H 3.326584 -2.537427 4.708693 0
M  V30 36 H 2.787916 -0.311344 5.370417 0
M  V30 37 H 5.571819 -0.677184 4.839399 0
M  V30 38 H 3.538657 3.452140 2.051289 0
M  V30 39 H 2.749111 1.442225 -1.064718 0
M  V30 40 H 2.416963 -0.018424 -2.026461 0
M  V30 41 H 0.455009 1.395263 -2.437052 0
M  V30 42 H 0.505206 1.918458 -0.734579 0
M  V30 43 H -3.583323 1.159927 -1.183703 0
M  V30 44 H -3.032328 1.030807 1.056363 0
M  V30 45 H -2.662258 -0.711525 1.064253 0
M  V30 46 H -4.857963 -0.851868 1.598965 0
M  V30 47 H -5.172257 0.664399 0.985287 0
M  V30 48 H -2.584404 -2.507657 -0.820926 0
M  V30 49 H -3.561438 -4.252432 -2.210256 0
M  V30 50 H -5.808503 -1.237719 -4.291640 0
M  V30 51 H -4.798963 0.422546 -2.884447 0
M  V30 52 H -0.273550 -2.116595 -1.321648 0
M  V30 53 H -0.500771 -1.500590 0.382949 0
M  V30 54 H 1.668817 -2.335962 0.456074 0
M  V30 55 H 1.962297 -1.935276 -1.205742 0
M  V30 END ATOM
M  V30 BEGIN BOND
M  V30 1 1 1 2
M  V30 2 1 2 3
M  V30 3 1 3 4
M  V30 4 1 4 5
M  V30 5 1 4 6
M  V30 6 2 6 7
M  V30 7 1 7 8
M  V30 8 2 8 9
M  V30 9 1 9 10
M  V30 10 1 10 11
M  V30 11 1 11 12
M  V30 12 1 12 13
M  V30 13 1 13 14
M  V30 14 1 14 15
M  V30 15 2 15 16
M  V30 16 1 15 17
M  V30 17 1 17 18
M  V30 18 1 18 19
M  V30 19 1 17 20
M  V30 20 2 20 21
M  V30 21 1 21 22
M  V30 22 2 22 23
M  V30 23 1 23 24
M  V30 24 1 23 25
M  V30 25 2 25 26
M  V30 26 1 14 27
M  V30 27 1 27 28
M  V30 28 2 10 29
M  V30 29 1 29 2
M  V30 30 1 29 6
M  V30 31 1 28 11
M  V30 32 1 26 20
M  V30 33 1 1 30
M  V30 34 1 1 31
M  V30 35 1 1 32
M  V30 36 1 2 33 CFG=3
M  V30 37 1 3 34
M  V30 38 1 3 35
M  V30 39 1 4 36 CFG=1
M  V30 40 1 5 37
M  V30 41 1 8 38
M  V30 42 1 12 39
M  V30 43 1 12 40
M  V30 44 1 13 41
M  V30 45 1 13 42
M  V30 46 1 17 43 CFG=3
M  V30 47 1 18 44
M  V30 48 1 18 45
M  V30 49 1 19 46
M  V30 50 1 19 47
M  V30 51 1 21 48
M  V30 52 1 22 49
M  V30 53 1 25 50
M  V30 54 1 26 51
M  V30 55 1 27 52
M  V30 56 1 27 53
M  V30 57 1 28 54
M  V30 58 1 28 55
M  V30 END BOND
M  V30 END CTAB
M  END
>  <Dataset>  (43) 
ChEMBL_Kinases

>  <Ligand_Instance>  (43) 
nan

>  <PDB_ID>  (43) 
nan

>  <Standardized_SMILES>  (43) 
C[C@@H]1C[C@@H](O)c2ncnc(N3CCN(C(=O)[C@H](CN)c4ccc(Cl)cc4)CC3)c21

>  <Name>  (43) 
nan

>  <Pocket>  (43) 
nan

>  <ATP_Site>  (43) 
nan

>  <Peripheral>  (43) 
nan

>  <Num_H_Atoms_ProtBoundConf>  (43) 
nan

>  <Num_Resolved_Atoms>  (43) 
nan

>  <Num_Not_Resolved_Atoms>  (43) 
nan

$$$$
CHEMBL4633057
     RDKit          3D

  0  0  0  0  0  0  0  0  0  0999 V3000
M  V30 BEGIN CTAB
M  V30 COUNTS 42 45 0 0 0
M  V30 BEGIN ATOM
M  V30 1 N 5.116140 -4.021313 -3.977228 0
M  V30 2 C 4.613027 -3.649891 -2.685052 0
M  V30 3 N 5.289301 -4.064101 -1.574936 0
M  V30 4 C 4.857536 -3.741223 -0.328243 0
M  V30 5 N 3.742597 -2.999057 -0.174496 0
M  V30 6 C 3.026960 -2.557417 -1.238102 0
M  V30 7 C 3.463937 -2.884962 -2.525600 0
M  V30 8 N 2.616039 -2.350752 -3.419304 0
M  V30 9 C 1.647983 -1.689527 -2.722437 0
M  V30 10 N 1.905260 -1.820273 -1.402025 0
M  V30 11 C 1.189990 -1.312709 -0.251567 0 CFG=2
M  V30 12 O -0.102600 -0.892711 -0.590870 0
M  V30 13 C -0.507646 -0.381943 0.670099 0 CFG=2
M  V30 14 C -1.874645 0.227606 0.571457 0
M  V30 15 O -2.455577 0.710238 1.725001 0
M  V30 16 C -2.230969 1.664078 2.612375 0
M  V30 17 O -1.281187 2.462979 2.567557 0
M  V30 18 C -3.192517 1.769861 3.731431 0
M  V30 19 C -3.132680 2.706783 4.769488 0
M  V30 20 C -4.177304 2.539061 5.653404 0
M  V30 21 C -4.879524 1.474103 5.129674 0
M  V30 22 N -4.285498 1.039649 4.005005 0
M  V30 23 C 0.593176 0.535903 1.071035 0 CFG=1
M  V30 24 O 0.889092 0.338725 2.412059 0
M  V30 25 C 1.793292 -0.041750 0.291813 0 CFG=1
M  V30 26 O 2.846980 -0.246406 1.144674 0
M  V30 27 H 5.632942 -3.520889 -4.757416 0
M  V30 28 H 4.901261 -5.039598 -4.155464 0
M  V30 29 H 5.375350 -4.057018 0.567266 0
M  V30 30 H 0.799014 -1.139895 -3.123778 0
M  V30 31 H 1.108076 -2.019624 0.579598 0
M  V30 32 H -0.576364 -1.265067 1.336212 0
M  V30 33 H -2.593965 -0.504680 0.096787 0
M  V30 34 H -1.789021 1.033497 -0.228226 0
M  V30 35 H -2.367250 3.474098 4.878383 0
M  V30 36 H -4.356205 3.135429 6.538674 0
M  V30 37 H -5.777210 1.049143 5.559562 0
M  V30 38 H -4.586946 0.249786 3.389575 0
M  V30 39 H 0.456594 1.597924 0.786330 0
M  V30 40 H 0.442974 -0.464082 2.787508 0
M  V30 41 H 2.043380 0.680966 -0.514956 0
M  V30 42 H 3.681098 0.182516 0.826448 0
M  V30 END ATOM
M  V30 BEGIN BOND
M  V30 1 1 1 2
M  V30 2 2 2 3
M  V30 3 1 3 4
M  V30 4 2 4 5
M  V30 5 1 5 6
M  V30 6 2 6 7
M  V30 7 1 7 8
M  V30 8 2 8 9
M  V30 9 1 9 10
M  V30 10 1 10 11
M  V30 11 1 11 12
M  V30 12 1 12 13
M  V30 13 1 13 14
M  V30 14 1 14 15
M  V30 15 1 15 16
M  V30 16 2 16 17
M  V30 17 1 16 18
M  V30 18 2 18 19
M  V30 19 1 19 20
M  V30 20 2 20 21
M  V30 21 1 21 22
M  V30 22 1 13 23
M  V30 23 1 23 24
M  V30 24 1 23 25
M  V30 25 1 25 26
M  V30 26 1 7 2
M  V30 27 1 25 11
M  V30 28 1 10 6
M  V30 29 1 22 18
M  V30 30 1 1 27
M  V30 31 1 1 28
M  V30 32 1 4 29
M  V30 33 1 9 30
M  V30 34 1 11 31 CFG=1
M  V30 35 1 13 32 CFG=1
M  V30 36 1 14 33
M  V30 37 1 14 34
M  V30 38 1 19 35
M  V30 39 1 20 36
M  V30 40 1 21 37
M  V30 41 1 22 38
M  V30 42 1 23 39 CFG=1
M  V30 43 1 24 40
M  V30 44 1 25 41 CFG=3
M  V30 45 1 26 42
M  V30 END BOND
M  V30 END CTAB
M  END
>  <Dataset>  (44) 
ChEMBL_Kinases

>  <Ligand_Instance>  (44) 
nan

>  <PDB_ID>  (44) 
nan

>  <Standardized_SMILES>  (44) 
Nc1ncnc2c1ncn2[C@@H]1O[C@H](COC(=O)c2ccc[nH]2)[C@@H](O)[C@H]1O

>  <Name>  (44) 
nan

>  <Pocket>  (44) 
nan

>  <ATP_Site>  (44) 
nan

>  <Peripheral>  (44) 
nan

>  <Num_H_Atoms_ProtBoundConf>  (44) 
nan

>  <Num_Resolved_Atoms>  (44) 
nan

>  <Num_Not_Resolved_Atoms>  (44) 
nan

$$$$
CHEMBL2177389
     RDKit          3D

  0  0  0  0  0  0  0  0  0  0999 V3000
M  V30 BEGIN CTAB
M  V30 COUNTS 64 67 0 0 0
M  V30 BEGIN ATOM
M  V30 1 C 5.415143 -3.667428 3.711563 0
M  V30 2 C 3.935216 -3.738637 3.428451 0
M  V30 3 C 3.196980 -3.978886 4.704014 0
M  V30 4 N 3.550707 -2.528019 2.738734 0
M  V30 5 C 2.141117 -2.495251 2.418171 0
M  V30 6 C 1.744520 -1.231088 1.698657 0 CFG=1
M  V30 7 C 0.288158 -1.275153 1.406448 0
M  V30 8 O -0.603638 -2.103995 1.730105 0
M  V30 9 N -0.399589 -0.294153 0.640449 0
M  V30 10 C -1.825910 -0.603844 0.522080 0
M  V30 11 C -2.535109 0.673339 0.138169 0
M  V30 12 N -1.999780 1.082830 -1.147017 0
M  V30 13 C -2.865749 1.324301 -2.220153 0
M  V30 14 N -2.796277 2.585243 -2.698078 0
M  V30 15 C -3.548957 3.014686 -3.727041 0
M  V30 16 N -4.409656 2.131166 -4.298139 0
M  V30 17 C -4.512200 0.865487 -3.855041 0
M  V30 18 C -3.742313 0.435694 -2.806786 0
M  V30 19 C -3.989465 -0.968791 -2.464269 0 CFG=2
M  V30 20 C -2.932018 -1.898807 -3.019365 0
M  V30 21 O -2.902390 -1.799463 -4.407936 0
M  V30 22 C -5.264893 -1.301600 -3.247333 0
M  V30 23 C -5.367205 -0.242752 -4.320698 0
M  V30 24 C -0.567431 1.229481 -1.276614 0
M  V30 25 C 0.137942 0.895788 0.011465 0
M  V30 26 C 2.147481 -0.013474 2.449708 0
M  V30 27 C 1.619399 0.273900 3.713344 0
M  V30 28 C 1.995959 1.411998 4.416444 0
M  V30 29 C 2.910062 2.289792 3.871797 0
M  V30 30 Cl 3.473647 3.764105 4.650951 0
M  V30 31 C 3.455328 2.044958 2.629005 0
M  V30 32 C 3.054840 0.906993 1.967740 0
M  V30 33 H 5.633000 -2.732902 4.249006 0
M  V30 34 H 5.794351 -4.567791 4.226852 0
M  V30 35 H 5.923723 -3.570178 2.714963 0
M  V30 36 H 3.799017 -4.646111 2.777983 0
M  V30 37 H 2.292509 -4.631484 4.572537 0
M  V30 38 H 2.955584 -3.051639 5.253837 0
M  V30 39 H 3.869293 -4.556519 5.376374 0
M  V30 40 H 4.101293 -2.515434 1.851613 0
M  V30 41 H 1.933259 -3.331751 1.708508 0
M  V30 42 H 1.492014 -2.628161 3.280838 0
M  V30 43 H 2.296604 -1.234945 0.714682 0
M  V30 44 H -1.992083 -1.342031 -0.291655 0
M  V30 45 H -2.237926 -1.043981 1.451955 0
M  V30 46 H -3.629213 0.565441 0.124725 0
M  V30 47 H -2.204467 1.427055 0.911611 0
M  V30 48 H -3.482138 4.038334 -4.103409 0
M  V30 49 H -4.212394 -1.178307 -1.419027 0
M  V30 50 H -1.907851 -1.669281 -2.667553 0
M  V30 51 H -3.189953 -2.906730 -2.655714 0
M  V30 52 H -2.942837 -2.695122 -4.842383 0
M  V30 53 H -6.150887 -1.280379 -2.582412 0
M  V30 54 H -5.219879 -2.327834 -3.680085 0
M  V30 55 H -6.449054 0.061132 -4.378664 0
M  V30 56 H -5.031112 -0.611066 -5.297384 0
M  V30 57 H -0.144318 0.697172 -2.143332 0
M  V30 58 H -0.394866 2.326417 -1.482676 0
M  V30 59 H 0.156247 1.758134 0.709162 0
M  V30 60 H 1.196023 0.671053 -0.243392 0
M  V30 61 H 0.903638 -0.408334 4.145894 0
M  V30 62 H 1.603171 1.656921 5.393555 0
M  V30 63 H 4.187360 2.675676 2.106693 0
M  V30 64 H 3.458440 0.678848 0.991793 0
M  V30 END ATOM
M  V30 BEGIN BOND
M  V30 1 1 1 2
M  V30 2 1 2 3
M  V30 3 1 2 4
M  V30 4 1 4 5
M  V30 5 1 5 6
M  V30 6 1 6 7
M  V30 7 2 7 8
M  V30 8 1 7 9
M  V30 9 1 9 10
M  V30 10 1 10 11
M  V30 11 1 11 12
M  V30 12 1 12 13
M  V30 13 2 13 14
M  V30 14 1 14 15
M  V30 15 2 15 16
M  V30 16 1 16 17
M  V30 17 2 17 18
M  V30 18 1 18 19
M  V30 19 1 19 20
M  V30 20 1 20 21
M  V30 21 1 19 22
M  V30 22 1 22 23
M  V30 23 1 12 24
M  V30 24 1 24 25
M  V30 25 1 6 26
M  V30 26 2 26 27
M  V30 27 1 27 28
M  V30 28 2 28 29
M  V30 29 1 29 30
M  V30 30 1 29 31
M  V30 31 2 31 32
M  V30 32 1 25 9
M  V30 33 1 32 26
M  V30 34 1 18 13
M  V30 35 1 23 17
M  V30 36 1 1 33
M  V30 37 1 1 34
M  V30 38 1 1 35
M  V30 39 1 2 36
M  V30 40 1 3 37
M  V30 41 1 3 38
M  V30 42 1 3 39
M  V30 43 1 4 40
M  V30 44 1 5 41
M  V30 45 1 5 42
M  V30 46 1 6 43 CFG=3
M  V30 47 1 10 44
M  V30 48 1 10 45
M  V30 49 1 11 46
M  V30 50 1 11 47
M  V30 51 1 15 48
M  V30 52 1 19 49 CFG=1
M  V30 53 1 20 50
M  V30 54 1 20 51
M  V30 55 1 21 52
M  V30 56 1 22 53
M  V30 57 1 22 54
M  V30 58 1 23 55
M  V30 59 1 23 56
M  V30 60 1 24 57
M  V30 61 1 24 58
M  V30 62 1 25 59
M  V30 63 1 25 60
M  V30 64 1 27 61
M  V30 65 1 28 62
M  V30 66 1 31 63
M  V30 67 1 32 64
M  V30 END BOND
M  V30 END CTAB
M  END
>  <Dataset>  (45) 
ChEMBL_Kinases

>  <Ligand_Instance>  (45) 
nan

>  <PDB_ID>  (45) 
nan

>  <Standardized_SMILES>  (45) 
CC(C)NC[C@@H](C(=O)N1CCN(c2ncnc3c2[C@H](CO)CC3)CC1)c1ccc(Cl)cc1

>  <Name>  (45) 
nan

>  <Pocket>  (45) 
nan

>  <ATP_Site>  (45) 
nan

>  <Peripheral>  (45) 
nan

>  <Num_H_Atoms_ProtBoundConf>  (45) 
nan

>  <Num_Resolved_Atoms>  (45) 
nan

>  <Num_Not_Resolved_Atoms>  (45) 
nan

$$$$
CHEMBL2035642
     RDKit          3D

  0  0  0  0  0  0  0  0  0  0999 V3000
M  V30 BEGIN CTAB
M  V30 COUNTS 45 48 0 0 0
M  V30 BEGIN ATOM
M  V30 1 C -0.526687 -7.104560 1.147994 0
M  V30 2 C -0.698636 -5.638482 0.936164 0
M  V30 3 O -1.740201 -5.271122 1.541156 0
M  V30 4 C 0.175005 -4.790483 0.172303 0
M  V30 5 C 1.305240 -5.232166 -0.474667 0
M  V30 6 C 2.099077 -4.359165 -1.191428 0
M  V30 7 C 1.762276 -3.008094 -1.269022 0
M  V30 8 O 2.305480 -1.966200 -1.858040 0
M  V30 9 C 1.611405 -0.888309 -1.639591 0
M  V30 10 C 1.749777 0.429150 -2.022894 0
M  V30 11 O 2.718606 0.768774 -2.736720 0
M  V30 12 N 0.832937 1.326246 -1.617536 0
M  V30 13 C -0.232949 1.028730 -0.849080 0
M  V30 14 C -1.250089 1.971040 -0.387588 0
M  V30 15 N -1.014890 2.615786 0.852715 0
M  V30 16 C 0.175480 3.396604 0.887027 0
M  V30 17 C 0.561170 3.790540 2.291985 0
M  V30 18 N 0.704739 2.651775 3.164050 0
M  V30 19 C 0.506651 2.956681 4.546062 0
M  V30 20 C 0.082468 1.454433 2.698582 0
M  V30 21 C -1.237530 1.814445 2.022173 0
M  V30 22 N -0.358984 -0.264281 -0.479333 0
M  V30 23 C 0.518297 -1.229369 -0.843540 0
M  V30 24 C 0.622032 -2.590444 -0.610129 0
M  V30 25 C -0.175512 -3.456857 0.107615 0
M  V30 26 H -1.450925 -7.661082 0.919841 0
M  V30 27 H 0.249695 -7.541298 0.473624 0
M  V30 28 H -0.280092 -7.313743 2.222193 0
M  V30 29 H 1.579133 -6.279115 -0.423052 0
M  V30 30 H 2.998530 -4.727247 -1.702595 0
M  V30 31 H 0.947406 2.319850 -1.913289 0
M  V30 32 H -2.282236 1.547457 -0.385038 0
M  V30 33 H -1.307674 2.793108 -1.160574 0
M  V30 34 H -0.042754 4.357198 0.344588 0
M  V30 35 H 1.054918 2.955121 0.398520 0
M  V30 36 H -0.099511 4.523968 2.762066 0
M  V30 37 H 1.587229 4.248589 2.225917 0
M  V30 38 H -0.462587 3.420338 4.788153 0
M  V30 39 H 0.513359 1.986682 5.100574 0
M  V30 40 H 1.377521 3.539282 4.894645 0
M  V30 41 H -0.133680 0.818069 3.575611 0
M  V30 42 H 0.773220 0.925399 2.033271 0
M  V30 43 H -1.795189 2.435924 2.754504 0
M  V30 44 H -1.847682 0.916177 1.834147 0
M  V30 45 H -1.045009 -3.042356 0.588781 0
M  V30 END ATOM
M  V30 BEGIN BOND
M  V30 1 1 1 2
M  V30 2 2 2 3
M  V30 3 1 2 4
M  V30 4 2 4 5
M  V30 5 1 5 6
M  V30 6 2 6 7
M  V30 7 1 7 8
M  V30 8 1 8 9
M  V30 9 1 9 10
M  V30 10 2 10 11
M  V30 11 1 10 12
M  V30 12 1 12 13
M  V30 13 1 13 14
M  V30 14 1 14 15
M  V30 15 1 15 16
M  V30 16 1 16 17
M  V30 17 1 17 18
M  V30 18 1 18 19
M  V30 19 1 18 20
M  V30 20 1 20 21
M  V30 21 2 13 22
M  V30 22 1 22 23
M  V30 23 1 23 24
M  V30 24 2 24 25
M  V30 25 1 25 4
M  V30 26 1 24 7
M  V30 27 2 23 9
M  V30 28 1 21 15
M  V30 29 1 1 26
M  V30 30 1 1 27
M  V30 31 1 1 28
M  V30 32 1 5 29
M  V30 33 1 6 30
M  V30 34 1 12 31
M  V30 35 1 14 32
M  V30 36 1 14 33
M  V30 37 1 16 34
M  V30 38 1 16 35
M  V30 39 1 17 36
M  V30 40 1 17 37
M  V30 41 1 19 38
M  V30 42 1 19 39
M  V30 43 1 19 40
M  V30 44 1 20 41
M  V30 45 1 20 42
M  V30 46 1 21 43
M  V30 47 1 21 44
M  V30 48 1 25 45
M  V30 END BOND
M  V30 END CTAB
M  END
>  <Dataset>  (46) 
ChEMBL_Kinases

>  <Ligand_Instance>  (46) 
nan

>  <PDB_ID>  (46) 
nan

>  <Standardized_SMILES>  (46) 
CC(=O)c1ccc2oc3c(=O)[nH]c(CN4CCN(C)CC4)nc3c2c1

>  <Name>  (46) 
nan

>  <Pocket>  (46) 
nan

>  <ATP_Site>  (46) 
nan

>  <Peripheral>  (46) 
nan

>  <Num_H_Atoms_ProtBoundConf>  (46) 
nan

>  <Num_Resolved_Atoms>  (46) 
nan

>  <Num_Not_Resolved_Atoms>  (46) 
nan

$$$$
CHEMBL4468395
     RDKit          3D

  0  0  0  0  0  0  0  0  0  0999 V3000
M  V30 BEGIN CTAB
M  V30 COUNTS 58 63 0 0 0
M  V30 BEGIN ATOM
M  V30 1 C 2.762465 -1.224377 1.967610 0
M  V30 2 N 3.706210 -1.833693 1.087474 0
M  V30 3 C 4.785629 -0.966057 0.671485 0
M  V30 4 C 4.216063 0.241823 -0.041845 0
M  V30 5 C 3.177476 -0.108838 -1.046438 0
M  V30 6 N 1.915484 0.480050 -0.651341 0
M  V30 7 C 1.696397 1.859072 -0.531779 0
M  V30 8 C 2.639852 2.802359 -0.785403 0
M  V30 9 C 2.433047 4.153180 -0.666090 0
M  V30 10 C 1.206497 4.640141 -0.266367 0
M  V30 11 C 0.223589 3.708477 -0.000167 0
M  V30 12 C -1.027748 4.126212 0.404643 0
M  V30 13 C -2.023418 3.209894 0.675737 0
M  V30 14 C -1.753965 1.850992 0.536688 0
M  V30 15 C -2.829052 0.895595 0.829818 0
M  V30 16 N -4.089492 1.197630 1.233853 0
M  V30 17 N -4.770180 0.052061 1.395390 0
M  V30 18 C -3.933886 -0.946390 1.092803 0
M  V30 19 C -4.169833 -2.306008 1.106830 0
M  V30 20 C -3.159805 -3.176539 0.755557 0
M  V30 21 C -1.938584 -2.596236 0.401955 0
M  V30 22 N -1.750790 -1.267972 0.401507 0
M  V30 23 N -2.729804 -0.445838 0.740997 0
M  V30 24 N -3.421246 -4.566428 0.775736 0
M  V30 25 C -2.471401 -5.388796 0.011220 0
M  V30 26 C -4.498230 -5.215316 1.456299 0
M  V30 27 C -5.459271 -4.218735 2.022201 0
M  V30 28 O -5.361397 -2.930316 1.449386 0
M  V30 29 N -0.523552 1.469962 0.139866 0
M  V30 30 C 0.467506 2.344148 -0.131504 0
M  V30 31 C 3.034638 -1.585784 -1.283519 0
M  V30 32 C 3.128304 -2.440316 -0.067207 0
M  V30 33 H 2.784073 -1.733036 2.973430 0
M  V30 34 H 2.889135 -0.140460 2.134324 0
M  V30 35 H 1.727326 -1.360724 1.561913 0
M  V30 36 H 5.459152 -1.513662 0.016322 0
M  V30 37 H 5.360206 -0.591961 1.535743 0
M  V30 38 H 5.072402 0.721646 -0.554450 0
M  V30 39 H 3.816954 0.980370 0.686270 0
M  V30 40 H 3.418311 0.380875 -2.037387 0
M  V30 41 H 1.117642 -0.187525 -0.442715 0
M  V30 42 H 3.623016 2.545329 -1.103519 0
M  V30 43 H 3.177922 4.917649 -0.865439 0
M  V30 44 H 0.954961 5.681945 -0.145889 0
M  V30 45 H -1.212950 5.190349 0.505637 0
M  V30 46 H -3.022831 3.537359 0.999156 0
M  V30 47 H -1.128768 -3.282803 0.120708 0
M  V30 48 H -1.508334 -5.382901 0.592247 0
M  V30 49 H -2.817326 -6.429371 -0.033624 0
M  V30 50 H -2.250032 -4.937314 -0.969817 0
M  V30 51 H -5.051698 -5.928727 0.803498 0
M  V30 52 H -4.102546 -5.831894 2.288279 0
M  V30 53 H -6.520341 -4.543569 1.904464 0
M  V30 54 H -5.278545 -4.100420 3.121214 0
M  V30 55 H 2.143212 -1.835353 -1.890066 0
M  V30 56 H 3.914605 -1.863998 -1.935622 0
M  V30 57 H 2.078648 -2.732340 0.226175 0
M  V30 58 H 3.618913 -3.411276 -0.288979 0
M  V30 END ATOM
M  V30 BEGIN BOND
M  V30 1 1 1 2
M  V30 2 1 2 3
M  V30 3 1 3 4
M  V30 4 1 4 5
M  V30 5 1 5 6
M  V30 6 1 6 7
M  V30 7 2 7 8
M  V30 8 1 8 9
M  V30 9 2 9 10
M  V30 10 1 10 11
M  V30 11 2 11 12
M  V30 12 1 12 13
M  V30 13 2 13 14
M  V30 14 1 14 15
M  V30 15 2 15 16
M  V30 16 1 16 17
M  V30 17 2 17 18
M  V30 18 1 18 19
M  V30 19 2 19 20
M  V30 20 1 20 21
M  V30 21 2 21 22
M  V30 22 1 22 23
M  V30 23 1 20 24
M  V30 24 1 24 25
M  V30 25 1 24 26
M  V30 26 1 26 27
M  V30 27 1 27 28
M  V30 28 1 14 29
M  V30 29 2 29 30
M  V30 30 1 5 31
M  V30 31 1 31 32
M  V30 32 1 32 2
M  V30 33 1 30 7
M  V30 34 1 30 11
M  V30 35 1 23 15
M  V30 36 1 23 18
M  V30 37 1 28 19
M  V30 38 1 1 33
M  V30 39 1 1 34
M  V30 40 1 1 35
M  V30 41 1 3 36
M  V30 42 1 3 37
M  V30 43 1 4 38
M  V30 44 1 4 39
M  V30 45 1 5 40
M  V30 46 1 6 41
M  V30 47 1 8 42
M  V30 48 1 9 43
M  V30 49 1 10 44
M  V30 50 1 12 45
M  V30 51 1 13 46
M  V30 52 1 21 47
M  V30 53 1 25 48
M  V30 54 1 25 49
M  V30 55 1 25 50
M  V30 56 1 26 51
M  V30 57 1 26 52
M  V30 58 1 27 53
M  V30 59 1 27 54
M  V30 60 1 31 55
M  V30 61 1 31 56
M  V30 62 1 32 57
M  V30 63 1 32 58
M  V30 END BOND
M  V30 END CTAB
M  END
>  <Dataset>  (47) 
ChEMBL_Kinases

>  <Ligand_Instance>  (47) 
nan

>  <PDB_ID>  (47) 
nan

>  <Standardized_SMILES>  (47) 
CN1CCC(Nc2cccc3ccc(-c4nnc5c6c(cnn45)N(C)CCO6)nc23)CC1

>  <Name>  (47) 
nan

>  <Pocket>  (47) 
nan

>  <ATP_Site>  (47) 
nan

>  <Peripheral>  (47) 
nan

>  <Num_H_Atoms_ProtBoundConf>  (47) 
nan

>  <Num_Resolved_Atoms>  (47) 
nan

>  <Num_Not_Resolved_Atoms>  (47) 
nan

$$$$
CHEMBL4469964
     RDKit          3D

  0  0  0  0  0  0  0  0  0  0999 V3000
M  V30 BEGIN CTAB
M  V30 COUNTS 55 58 0 0 0
M  V30 BEGIN ATOM
M  V30 1 C -0.436423 -4.577092 4.152397 0
M  V30 2 N 0.517531 -3.738538 3.446779 0
M  V30 3 N 1.837102 -3.644752 3.682907 0
M  V30 4 C 2.410250 -2.771524 2.837022 0
M  V30 5 C 1.372830 -2.317589 2.050440 0
M  V30 6 N 1.546670 -1.348964 0.993384 0
M  V30 7 C 1.370669 -0.059540 1.569881 0
M  V30 8 O 1.115780 -0.087200 2.814369 0
M  V30 9 C 1.457300 1.219514 0.872845 0
M  V30 10 N 1.711098 1.395442 -0.394646 0
M  V30 11 C 1.799498 2.319158 -1.018169 0
M  V30 12 C 2.061124 2.844442 -2.397326 0
M  V30 13 C 2.074843 4.159336 -2.753365 0
M  V30 14 F 1.831509 5.077019 -1.790050 0
M  V30 15 C 2.333123 4.489405 -4.066271 0
M  V30 16 C 2.583633 3.535539 -5.058651 0
M  V30 17 C 2.546093 2.217851 -4.588116 0
M  V30 18 C 2.295465 1.833410 -3.299559 0
M  V30 19 F 2.287882 0.526729 -2.975548 0
M  V30 20 S 1.468942 3.632282 0.306355 0
M  V30 21 C 1.261614 2.396673 1.572095 0
M  V30 22 N 0.963905 2.639243 2.957217 0
M  V30 23 C 0.171642 -2.922530 2.427471 0
M  V30 24 C -1.109798 -2.646951 1.777269 0
M  V30 25 C -1.375164 -3.591415 0.646548 0
M  V30 26 C -2.536913 -3.249452 -0.202772 0
M  V30 27 C -2.802727 -1.775338 -0.357820 0
M  V30 28 N -1.721209 -1.081309 -1.027280 0
M  V30 29 C -3.258269 -1.111563 0.900693 0
M  V30 30 F -4.483324 -0.451332 0.698951 0
M  V30 31 C -3.493863 -2.018498 2.059787 0
M  V30 32 C -2.295297 -2.635979 2.682556 0
M  V30 33 H 0.162703 -5.233972 4.851079 0
M  V30 34 H -0.918203 -5.311447 3.471924 0
M  V30 35 H -1.114540 -4.035442 4.815817 0
M  V30 36 H 3.440108 -2.465550 2.756060 0
M  V30 37 H 1.757945 -1.370254 -0.032602 0
M  V30 38 H 2.340667 5.542870 -4.334048 0
M  V30 39 H 2.786574 3.786101 -6.088200 0
M  V30 40 H 2.742783 1.480861 -5.373047 0
M  V30 41 H -0.025452 2.986545 3.098391 0
M  V30 42 H 1.815595 2.411936 3.530846 0
M  V30 43 H -1.083780 -1.620538 1.306064 0
M  V30 44 H -0.444874 -3.706679 0.017797 0
M  V30 45 H -1.548352 -4.599243 1.080418 0
M  V30 46 H -3.493681 -3.719318 0.123180 0
M  V30 47 H -2.355872 -3.648147 -1.233218 0
M  V30 48 H -3.637534 -1.728904 -1.092241 0
M  V30 49 H -1.604753 -0.104254 -0.692101 0
M  V30 50 H -0.864998 -1.625938 -1.127954 0
M  V30 51 H -2.594920 -0.259868 1.233130 0
M  V30 52 H -3.988906 -1.379593 2.850551 0
M  V30 53 H -4.297788 -2.761305 1.810592 0
M  V30 54 H -2.031216 -2.153482 3.646764 0
M  V30 55 H -2.601939 -3.681785 2.968656 0
M  V30 END ATOM
M  V30 BEGIN BOND
M  V30 1 1 1 2
M  V30 2 1 2 3
M  V30 3 2 3 4
M  V30 4 1 4 5
M  V30 5 1 5 6
M  V30 6 1 6 7
M  V30 7 2 7 8
M  V30 8 1 7 9
M  V30 9 1 9 10
M  V30 10 2 10 11
M  V30 11 1 11 12
M  V30 12 2 12 13
M  V30 13 1 13 14
M  V30 14 1 13 15
M  V30 15 2 15 16
M  V30 16 1 16 17
M  V30 17 2 17 18
M  V30 18 1 18 19
M  V30 19 1 11 20
M  V30 20 1 20 21
M  V30 21 1 21 22
M  V30 22 2 5 23
M  V30 23 1 23 24
M  V30 24 1 24 25
M  V30 25 1 25 26
M  V30 26 1 26 27
M  V30 27 1 27 28
M  V30 28 1 27 29
M  V30 29 1 29 30
M  V30 30 1 29 31
M  V30 31 1 31 32
M  V30 32 1 23 2
M  V30 33 1 32 24
M  V30 34 2 21 9
M  V30 35 1 18 12
M  V30 36 1 1 33
M  V30 37 1 1 34
M  V30 38 1 1 35
M  V30 39 1 4 36
M  V30 40 1 6 37
M  V30 41 1 15 38
M  V30 42 1 16 39
M  V30 43 1 17 40
M  V30 44 1 22 41
M  V30 45 1 22 42
M  V30 46 1 24 43
M  V30 47 1 25 44
M  V30 48 1 25 45
M  V30 49 1 26 46
M  V30 50 1 26 47
M  V30 51 1 27 48
M  V30 52 1 28 49
M  V30 53 1 28 50
M  V30 54 1 29 51
M  V30 55 1 31 52
M  V30 56 1 31 53
M  V30 57 1 32 54
M  V30 58 1 32 55
M  V30 END BOND
M  V30 END CTAB
M  END
>  <Dataset>  (48) 
ChEMBL_Kinases

>  <Ligand_Instance>  (48) 
nan

>  <PDB_ID>  (48) 
nan

>  <Standardized_SMILES>  (48) 
Cn1ncc(NC(=O)c2nc(-c3c(F)cccc3F)sc2N)c1C1CCC(N)C(F)CC1

>  <Name>  (48) 
nan

>  <Pocket>  (48) 
nan

>  <ATP_Site>  (48) 
nan

>  <Peripheral>  (48) 
nan

>  <Num_H_Atoms_ProtBoundConf>  (48) 
nan

>  <Num_Resolved_Atoms>  (48) 
nan

>  <Num_Not_Resolved_Atoms>  (48) 
nan

$$$$
CHEMBL235345
     RDKit          3D

  0  0  0  0  0  0  0  0  0  0999 V3000
M  V30 BEGIN CTAB
M  V30 COUNTS 44 48 0 0 0
M  V30 BEGIN ATOM
M  V30 1 O -2.375994 2.285455 2.205339 0
M  V30 2 C -1.591788 1.313609 2.032085 0
M  V30 3 N -0.243023 1.575941 1.812623 0
M  V30 4 C 0.501500 0.562954 1.644287 0
M  V30 5 N 1.906938 0.627198 1.409136 0
M  V30 6 C 2.521037 1.668857 0.611863 0 CFG=2
M  V30 7 C 2.067757 1.685537 -0.857475 0
M  V30 8 C 3.453163 1.331040 -0.478356 0 CFG=1
M  V30 9 C 4.492156 2.338710 -0.816340 0
M  V30 10 C 4.160403 3.681285 -0.691645 0
M  V30 11 C 5.042000 4.711213 -0.975100 0
M  V30 12 C 6.317865 4.367364 -1.404547 0
M  V30 13 C 6.684073 3.044195 -1.540500 0
M  V30 14 C 5.778562 2.017112 -1.248987 0
M  V30 15 S -0.459241 -0.972985 1.746200 0
M  V30 16 C -2.006367 -0.095940 2.045737 0
M  V30 17 C -3.207738 -0.570359 2.238941 0
M  V30 18 C -3.423400 -2.011022 2.214538 0
M  V30 19 C -4.302927 -2.550798 3.134972 0
M  V30 20 C -4.546721 -3.919812 3.149210 0
M  V30 21 C -3.931882 -4.787506 2.259911 0
M  V30 22 N -4.163488 -6.112737 2.269073 0
M  V30 23 C -3.532439 -6.896334 1.378067 0
M  V30 24 C -2.648280 -6.428857 0.438120 0
M  V30 25 C -2.391281 -5.062769 0.407120 0
M  V30 26 C -3.046166 -4.247854 1.332402 0
M  V30 27 C -2.820927 -2.887814 1.338070 0
M  V30 28 H 2.533824 -0.119080 1.833540 0
M  V30 29 H 2.659834 2.658124 1.096917 0
M  V30 30 H 1.778256 2.634780 -1.317865 0
M  V30 31 H 1.462713 0.834534 -1.233377 0
M  V30 32 H 3.812432 0.280904 -0.607981 0
M  V30 33 H 3.170045 4.027413 -0.357535 0
M  V30 34 H 4.762551 5.757461 -0.870872 0
M  V30 35 H 7.002803 5.170337 -1.624912 0
M  V30 36 H 7.683726 2.764921 -1.876225 0
M  V30 37 H 6.032541 0.949183 -1.344542 0
M  V30 38 H -3.990857 0.168627 2.409759 0
M  V30 39 H -4.850456 -1.982616 3.886470 0
M  V30 40 H -5.247592 -4.344700 3.884252 0
M  V30 41 H -3.702029 -7.966049 1.365200 0
M  V30 42 H -2.121406 -7.021114 -0.294689 0
M  V30 43 H -1.690406 -4.659725 -0.332284 0
M  V30 44 H -2.131886 -2.489497 0.606988 0
M  V30 END ATOM
M  V30 BEGIN BOND
M  V30 1 2 1 2
M  V30 2 1 2 3
M  V30 3 2 3 4
M  V30 4 1 4 5
M  V30 5 1 5 6
M  V30 6 1 6 7
M  V30 7 1 7 8
M  V30 8 1 8 9
M  V30 9 2 9 10
M  V30 10 1 10 11
M  V30 11 2 11 12
M  V30 12 1 12 13
M  V30 13 2 13 14
M  V30 14 1 4 15
M  V30 15 1 15 16
M  V30 16 2 16 17
M  V30 17 1 17 18
M  V30 18 2 18 19
M  V30 19 1 19 20
M  V30 20 2 20 21
M  V30 21 1 21 22
M  V30 22 2 22 23
M  V30 23 1 23 24
M  V30 24 2 24 25
M  V30 25 1 25 26
M  V30 26 2 26 27
M  V30 27 1 16 2
M  V30 28 1 27 18
M  V30 29 1 8 6
M  V30 30 1 14 9
M  V30 31 1 26 21
M  V30 32 1 5 28
M  V30 33 1 6 29 CFG=1
M  V30 34 1 7 30
M  V30 35 1 7 31
M  V30 36 1 8 32 CFG=1
M  V30 37 1 10 33
M  V30 38 1 11 34
M  V30 39 1 12 35
M  V30 40 1 13 36
M  V30 41 1 14 37
M  V30 42 1 17 38
M  V30 43 1 19 39
M  V30 44 1 20 40
M  V30 45 1 23 41
M  V30 46 1 24 42
M  V30 47 1 25 43
M  V30 48 1 27 44
M  V30 END BOND
M  V30 END CTAB
M  END
>  <Dataset>  (49) 
ChEMBL_Kinases

>  <Ligand_Instance>  (49) 
nan

>  <PDB_ID>  (49) 
nan

>  <Standardized_SMILES>  (49) 
O=C1N=C(N[C@@H]2C[C@H]2c2ccccc2)S/C1=C\c1ccc2ncccc2c1

>  <Name>  (49) 
nan

>  <Pocket>  (49) 
nan

>  <ATP_Site>  (49) 
nan

>  <Peripheral>  (49) 
nan

>  <Num_H_Atoms_ProtBoundConf>  (49) 
nan

>  <Num_Resolved_Atoms>  (49) 
nan

>  <Num_Not_Resolved_Atoms>  (49) 
nan

$$$$
CHEMBL4471729
     RDKit          3D

  0  0  0  0  0  0  0  0  0  0999 V3000
M  V30 BEGIN CTAB
M  V30 COUNTS 27 29 0 0 0
M  V30 BEGIN ATOM
M  V30 1 N -2.251653 -2.180387 2.131792 0
M  V30 2 C -0.898500 -2.618758 2.175042 0
M  V30 3 N -0.530239 -3.754091 2.833601 0
M  V30 4 C 0.769881 -4.142377 2.854220 0
M  V30 5 C 1.766814 -3.423576 2.222922 0
M  V30 6 Br 3.586339 -4.000913 2.273379 0
M  V30 7 C 1.445215 -2.256615 1.536099 0
M  V30 8 C 2.387042 -1.484540 0.880490 0
M  V30 9 C 1.951972 -0.342469 0.229284 0
M  V30 10 C 0.614157 -0.009615 0.250523 0
M  V30 11 C 0.101555 1.181021 -0.418056 0
M  V30 12 C -1.250187 1.453542 -0.355966 0
M  V30 13 C -1.837993 2.569520 -0.963919 0
M  V30 14 N -1.043450 3.434361 -1.652904 0
M  V30 15 C 0.263706 3.189454 -1.724800 0
M  V30 16 F 1.083405 4.038524 -2.408130 0
M  V30 17 C 0.854139 2.093045 -1.129765 0
M  V30 18 N -0.295308 -0.766740 0.890976 0
M  V30 19 C 0.109736 -1.897897 1.540465 0
M  V30 20 H -2.871927 -2.904098 1.703085 0
M  V30 21 H -2.343104 -1.222601 2.539310 0
M  V30 22 H 1.090179 -5.037814 3.368411 0
M  V30 23 H 3.418639 -1.812099 0.909246 0
M  V30 24 H 2.667907 0.253446 -0.274810 0
M  V30 25 H -1.969837 0.820301 0.172544 0
M  V30 26 H -2.890537 2.770047 -0.908133 0
M  V30 27 H 1.917706 1.906965 -1.196672 0
M  V30 END ATOM
M  V30 BEGIN BOND
M  V30 1 1 1 2
M  V30 2 2 2 3
M  V30 3 1 3 4
M  V30 4 2 4 5
M  V30 5 1 5 6
M  V30 6 1 5 7
M  V30 7 2 7 8
M  V30 8 1 8 9
M  V30 9 2 9 10
M  V30 10 1 10 11
M  V30 11 2 11 12
M  V30 12 1 12 13
M  V30 13 2 13 14
M  V30 14 1 14 15
M  V30 15 1 15 16
M  V30 16 2 15 17
M  V30 17 1 10 18
M  V30 18 2 18 19
M  V30 19 1 19 2
M  V30 20 1 19 7
M  V30 21 1 17 11
M  V30 22 1 1 20
M  V30 23 1 1 21
M  V30 24 1 4 22
M  V30 25 1 8 23
M  V30 26 1 9 24
M  V30 27 1 12 25
M  V30 28 1 13 26
M  V30 29 1 17 27
M  V30 END BOND
M  V30 END CTAB
M  END
>  <Dataset>  (50) 
ChEMBL_Kinases

>  <Ligand_Instance>  (50) 
nan

>  <PDB_ID>  (50) 
nan

>  <Standardized_SMILES>  (50) 
Nc1ncc(Br)c2ccc(-c3ccnc(F)c3)nc12

>  <Name>  (50) 
nan

>  <Pocket>  (50) 
nan

>  <ATP_Site>  (50) 
nan

>  <Peripheral>  (50) 
nan

>  <Num_H_Atoms_ProtBoundConf>  (50) 
nan

>  <Num_Resolved_Atoms>  (50) 
nan

>  <Num_Not_Resolved_Atoms>  (50) 
nan

$$$$
CHEMBL4472486
     RDKit          3D

  0  0  0  0  0  0  0  0  0  0999 V3000
M  V30 BEGIN CTAB
M  V30 COUNTS 62 65 0 0 0
M  V30 BEGIN ATOM
M  V30 1 C 1.716227 2.413566 6.818074 0
M  V30 2 N 0.637817 1.506991 6.626525 0
M  V30 3 C 0.827674 0.507358 5.607306 0
M  V30 4 C 0.626036 1.091482 4.226148 0
M  V30 5 N -0.397326 2.033178 4.249801 0
M  V30 6 C -0.354213 3.124777 3.360106 0
M  V30 7 C -0.338682 2.864676 1.932559 0
M  V30 8 C 0.893119 2.925844 1.318688 0
M  V30 9 C 1.112540 2.693774 -0.016677 0
M  V30 10 C 0.031360 2.368712 -0.841991 0
M  V30 11 N 0.063756 2.065604 -2.262594 0
M  V30 12 C 0.171316 0.700127 -2.673366 0
M  V30 13 O 0.215009 -0.105329 -1.672093 0
M  V30 14 N 0.238543 0.092452 -3.938163 0
M  V30 15 C 0.348203 -1.343951 -3.784522 0
M  V30 16 C 1.537650 -2.003782 -3.591382 0
M  V30 17 C 1.436506 -3.380177 -3.454069 0
M  V30 18 C 0.247153 -4.107820 -3.498835 0
M  V30 19 O 0.488538 -5.406181 -3.328074 0
M  V30 20 C -0.126613 -6.567034 -3.536803 0
M  V30 21 C -1.261036 -6.308889 -4.160307 0
M  V30 22 C -1.853583 -7.637562 -4.346396 0
M  V30 23 N -1.366020 -8.879066 -3.969680 0
M  V30 24 C -0.154609 -8.896582 -3.327848 0
M  V30 25 N 0.607633 -9.981718 -2.822386 0
M  V30 26 N 0.475969 -7.709550 -3.109489 0
M  V30 27 C -0.891991 -3.334179 -3.699885 0
M  V30 28 C -0.872269 -1.969976 -3.844113 0
M  V30 29 C -1.211647 2.313125 -0.196986 0
M  V30 30 C -1.430050 2.548114 1.147834 0
M  V30 31 C -2.761898 2.464606 1.760123 0
M  V30 32 F -3.660379 2.163958 0.719855 0
M  V30 33 F -2.859438 1.370251 2.605544 0
M  V30 34 F -3.213656 3.628276 2.328858 0
M  V30 35 C -1.339433 1.989919 5.278539 0
M  V30 36 C -0.666797 2.087336 6.623554 0
M  V30 37 H 1.976510 2.510687 7.911427 0
M  V30 38 H 1.489817 3.463264 6.520202 0
M  V30 39 H 2.605883 2.112392 6.234438 0
M  V30 40 H 0.147320 -0.341604 5.809896 0
M  V30 41 H 1.860667 0.098782 5.734370 0
M  V30 42 H 1.617081 1.543320 3.972686 0
M  V30 43 H 0.377983 0.242911 3.561773 0
M  V30 44 H 0.461420 3.813416 3.668330 0
M  V30 45 H -1.299468 3.722966 3.568527 0
M  V30 46 H 1.803680 3.173011 1.872118 0
M  V30 47 H 2.033649 2.724921 -0.547006 0
M  V30 48 H 0.042645 2.729549 -3.056810 0
M  V30 49 H 0.193576 0.785068 -4.705346 0
M  V30 50 H 2.439990 -1.420081 -3.563005 0
M  V30 51 H 2.446630 -3.801614 -3.304575 0
M  V30 52 H -2.147288 -6.004967 -4.662709 0
M  V30 53 H -2.776659 -8.101266 -4.791085 0
M  V30 54 H 0.441173 -10.169967 -1.812317 0
M  V30 55 H 1.184483 -10.366272 -3.602545 0
M  V30 56 H -1.791549 -3.916790 -3.721694 0
M  V30 57 H -1.854353 -1.554431 -3.988586 0
M  V30 58 H -2.111388 2.065394 -0.783877 0
M  V30 59 H -2.117369 2.776506 5.232975 0
M  V30 60 H -1.934377 1.028763 5.309865 0
M  V30 61 H -1.277298 1.571723 7.415775 0
M  V30 62 H -0.529347 3.169747 6.883024 0
M  V30 END ATOM
M  V30 BEGIN BOND
M  V30 1 1 1 2
M  V30 2 1 2 3
M  V30 3 1 3 4
M  V30 4 1 4 5
M  V30 5 1 5 6
M  V30 6 1 6 7
M  V30 7 2 7 8
M  V30 8 1 8 9
M  V30 9 2 9 10
M  V30 10 1 10 11
M  V30 11 1 11 12
M  V30 12 2 12 13
M  V30 13 1 12 14
M  V30 14 1 14 15
M  V30 15 2 15 16
M  V30 16 1 16 17
M  V30 17 2 17 18
M  V30 18 1 18 19
M  V30 19 1 19 20
M  V30 20 2 20 21
M  V30 21 1 21 22
M  V30 22 2 22 23
M  V30 23 1 23 24
M  V30 24 1 24 25
M  V30 25 2 24 26
M  V30 26 1 18 27
M  V30 27 2 27 28
M  V30 28 1 10 29
M  V30 29 2 29 30
M  V30 30 1 30 31
M  V30 31 1 31 32
M  V30 32 1 31 33
M  V30 33 1 31 34
M  V30 34 1 5 35
M  V30 35 1 35 36
M  V30 36 1 36 2
M  V30 37 1 30 7
M  V30 38 1 28 15
M  V30 39 1 26 20
M  V30 40 1 1 37
M  V30 41 1 1 38
M  V30 42 1 1 39
M  V30 43 1 3 40
M  V30 44 1 3 41
M  V30 45 1 4 42
M  V30 46 1 4 43
M  V30 47 1 6 44
M  V30 48 1 6 45
M  V30 49 1 8 46
M  V30 50 1 9 47
M  V30 51 1 11 48
M  V30 52 1 14 49
M  V30 53 1 16 50
M  V30 54 1 17 51
M  V30 55 1 21 52
M  V30 56 1 22 53
M  V30 57 1 25 54
M  V30 58 1 25 55
M  V30 59 1 27 56
M  V30 60 1 28 57
M  V30 61 1 29 58
M  V30 62 1 35 59
M  V30 63 1 35 60
M  V30 64 1 36 61
M  V30 65 1 36 62
M  V30 END BOND
M  V30 END CTAB
M  END
>  <Dataset>  (51) 
ChEMBL_Kinases

>  <Ligand_Instance>  (51) 
nan

>  <PDB_ID>  (51) 
nan

>  <Standardized_SMILES>  (51) 
CN1CCN(Cc2ccc(NC(=O)Nc3ccc(Oc4ccnc(N)n4)cc3)cc2C(F)(F)F)CC1

>  <Name>  (51) 
nan

>  <Pocket>  (51) 
nan

>  <ATP_Site>  (51) 
nan

>  <Peripheral>  (51) 
nan

>  <Num_H_Atoms_ProtBoundConf>  (51) 
nan

>  <Num_Resolved_Atoms>  (51) 
nan

>  <Num_Not_Resolved_Atoms>  (51) 
nan

$$$$
CHEMBL4472966
     RDKit          3D

  0  0  0  0  0  0  0  0  0  0999 V3000
M  V30 BEGIN CTAB
M  V30 COUNTS 53 56 0 0 0
M  V30 BEGIN ATOM
M  V30 1 C -2.355793 -4.428293 3.427045 0
M  V30 2 N -1.450587 -3.342620 3.250573 0
M  V30 3 N -0.630231 -2.893559 4.215975 0
M  V30 4 C 0.108620 -1.852894 3.754895 0
M  V30 5 C -0.299919 -1.671399 2.425958 0
M  V30 6 N 0.423038 -0.595988 1.855526 0
M  V30 7 C 1.689427 -0.562886 1.183939 0
M  V30 8 O 2.299638 -1.654628 1.057441 0
M  V30 9 C 2.264889 0.675472 0.662290 0
M  V30 10 N 1.646675 1.836864 0.738764 0
M  V30 11 C 2.148294 2.880918 0.285980 0
M  V30 12 C 1.542358 4.296890 0.305753 0
M  V30 13 C 2.318682 5.285468 -0.261138 0
M  V30 14 F 3.529476 5.114220 -0.808690 0
M  V30 15 C 1.720888 6.515642 -0.215425 0
M  V30 16 C 0.470596 6.830490 0.323571 0
M  V30 17 C -0.196736 5.747569 0.856689 0
M  V30 18 C 0.313093 4.443439 0.867544 0
M  V30 19 F -0.374692 3.405995 1.401923 0
M  V30 20 S 3.683660 2.485694 -0.393372 0
M  V30 21 C 3.507611 0.633616 0.057944 0
M  V30 22 N 4.407303 -0.426059 -0.176401 0
M  V30 23 C -1.257126 -2.602737 2.151569 0
M  V30 24 N -1.827053 -2.636382 0.882801 0
M  V30 25 C -2.772849 -3.697553 0.626032 0
M  V30 26 C -3.010983 -3.960347 -0.873301 0
M  V30 27 C -1.795842 -4.686900 -1.425647 0
M  V30 28 C -0.574979 -3.881454 -0.973362 0
M  V30 29 O 0.588460 -4.306249 -1.647752 0
M  V30 30 C -0.862163 -2.432363 -1.338998 0
M  V30 31 C -1.558203 -1.696423 -0.180715 0
M  V30 32 H -3.389401 -4.279131 3.113080 0
M  V30 33 H -1.920943 -5.432911 3.137100 0
M  V30 34 H -2.475668 -4.590628 4.551882 0
M  V30 35 H 0.805215 -1.435425 4.499764 0
M  V30 36 H -0.078834 0.328648 1.957229 0
M  V30 37 H 2.256772 7.379868 -0.642536 0
M  V30 38 H 0.073468 7.821367 0.320678 0
M  V30 39 H -1.193591 5.873789 1.310373 0
M  V30 40 H 4.503657 -0.980514 0.679350 0
M  V30 41 H 4.832736 -0.495465 -1.143043 0
M  V30 42 H -2.445750 -4.673353 0.974600 0
M  V30 43 H -3.808816 -3.394130 0.961955 0
M  V30 44 H -3.249396 -3.043546 -1.409990 0
M  V30 45 H -3.883286 -4.627684 -0.920726 0
M  V30 46 H -1.811351 -4.693759 -2.523405 0
M  V30 47 H -1.728605 -5.681450 -0.949314 0
M  V30 48 H -0.390508 -4.045927 0.089259 0
M  V30 49 H 0.618675 -5.307842 -1.576212 0
M  V30 50 H -1.468036 -2.406505 -2.265231 0
M  V30 51 H 0.130989 -1.993053 -1.572095 0
M  V30 52 H -2.543443 -1.312839 -0.600567 0
M  V30 53 H -0.943374 -0.847038 0.038040 0
M  V30 END ATOM
M  V30 BEGIN BOND
M  V30 1 1 1 2
M  V30 2 1 2 3
M  V30 3 2 3 4
M  V30 4 1 4 5
M  V30 5 1 5 6
M  V30 6 1 6 7
M  V30 7 2 7 8
M  V30 8 1 7 9
M  V30 9 1 9 10
M  V30 10 2 10 11
M  V30 11 1 11 12
M  V30 12 2 12 13
M  V30 13 1 13 14
M  V30 14 1 13 15
M  V30 15 2 15 16
M  V30 16 1 16 17
M  V30 17 2 17 18
M  V30 18 1 18 19
M  V30 19 1 11 20
M  V30 20 1 20 21
M  V30 21 1 21 22
M  V30 22 2 5 23
M  V30 23 1 23 24
M  V30 24 1 24 25
M  V30 25 1 25 26
M  V30 26 1 26 27
M  V30 27 1 27 28
M  V30 28 1 28 29
M  V30 29 1 28 30
M  V30 30 1 30 31
M  V30 31 1 23 2
M  V30 32 1 31 24
M  V30 33 2 21 9
M  V30 34 1 18 12
M  V30 35 1 1 32
M  V30 36 1 1 33
M  V30 37 1 1 34
M  V30 38 1 4 35
M  V30 39 1 6 36
M  V30 40 1 15 37
M  V30 41 1 16 38
M  V30 42 1 17 39
M  V30 43 1 22 40
M  V30 44 1 22 41
M  V30 45 1 25 42
M  V30 46 1 25 43
M  V30 47 1 26 44
M  V30 48 1 26 45
M  V30 49 1 27 46
M  V30 50 1 27 47
M  V30 51 1 28 48
M  V30 52 1 29 49
M  V30 53 1 30 50
M  V30 54 1 30 51
M  V30 55 1 31 52
M  V30 56 1 31 53
M  V30 END BOND
M  V30 END CTAB
M  END
>  <Dataset>  (52) 
ChEMBL_Kinases

>  <Ligand_Instance>  (52) 
nan

>  <PDB_ID>  (52) 
nan

>  <Standardized_SMILES>  (52) 
Cn1ncc(NC(=O)c2nc(-c3c(F)cccc3F)sc2N)c1N1CCCC(O)CC1

>  <Name>  (52) 
nan

>  <Pocket>  (52) 
nan

>  <ATP_Site>  (52) 
nan

>  <Peripheral>  (52) 
nan

>  <Num_H_Atoms_ProtBoundConf>  (52) 
nan

>  <Num_Resolved_Atoms>  (52) 
nan

>  <Num_Not_Resolved_Atoms>  (52) 
nan

$$$$
CHEMBL2037209
     RDKit          3D

  0  0  0  0  0  0  0  0  0  0999 V3000
M  V30 BEGIN CTAB
M  V30 COUNTS 65 70 0 0 0
M  V30 BEGIN ATOM
M  V30 1 C 3.153592 -2.425256 6.033866 0
M  V30 2 C 3.976836 -1.654825 5.069973 0
M  V30 3 C 3.397027 -0.695248 4.267416 0
M  V30 4 N 4.310807 -0.109872 3.462360 0
M  V30 5 C 4.163197 0.914425 2.487933 0
M  V30 6 C 3.014815 1.036657 1.728038 0
M  V30 7 C 2.834692 2.020017 0.770689 0
M  V30 8 C 1.579388 2.041963 0.033099 0
M  V30 9 O 0.757369 1.157717 0.296013 0
M  V30 10 N 1.240916 2.997855 -0.954229 0
M  V30 11 C 0.078900 3.133700 -1.733782 0
M  V30 12 C 0.009527 4.186380 -2.622786 0
M  V30 13 C -1.093328 4.384246 -3.420233 0
M  V30 14 C -2.179267 3.541547 -3.369514 0
M  V30 15 C -2.167068 2.453247 -2.485510 0
M  V30 16 N -3.269424 1.567826 -2.388784 0
M  V30 17 C -3.370579 0.230650 -1.962726 0
M  V30 18 C -2.346611 -0.689738 -1.963848 0
M  V30 19 C -2.437530 -1.991880 -1.529936 0
M  V30 20 C -3.679833 -2.389190 -1.054442 0
M  V30 21 C -4.754748 -1.529243 -1.020596 0
M  V30 22 C -4.561613 -0.245351 -1.477482 0
M  V30 23 N -5.911867 -2.201888 -0.483831 0
M  V30 24 C -5.510759 -3.521221 -0.184167 0
M  V30 25 O -6.301186 -4.365815 0.301200 0
M  V30 26 C -4.105094 -3.679807 -0.530428 0
M  V30 27 C -3.480481 -4.813216 -0.378827 0
M  V30 28 C -3.951669 -6.079523 0.156229 0
M  V30 29 C -4.646748 -6.566774 1.239448 0
M  V30 30 C -4.807143 -7.926433 1.155606 0
M  V30 31 C -4.192770 -8.299158 -0.015227 0
M  V30 32 N -3.699618 -7.181698 -0.576861 0
M  V30 33 C -1.014573 2.334799 -1.722409 0
M  V30 34 C 3.881417 2.885085 0.614454 0
M  V30 35 C 5.048465 2.813151 1.341204 0
M  V30 36 C 6.147557 3.789192 1.116463 0
M  V30 37 F 7.215137 3.464948 1.927487 0
M  V30 38 F 5.685858 5.024037 1.515920 0
M  V30 39 F 6.489965 3.797234 -0.220731 0
M  V30 40 C 5.184857 1.818295 2.283897 0
M  V30 41 C 5.459149 -0.715795 3.774571 0
M  V30 42 N 5.283710 -1.645431 4.735562 0
M  V30 43 H 2.750950 -1.796616 6.853641 0
M  V30 44 H 2.312218 -2.970891 5.536925 0
M  V30 45 H 3.803174 -3.182422 6.560408 0
M  V30 46 H 2.343106 -0.382392 4.220758 0
M  V30 47 H 2.243402 0.282584 1.944536 0
M  V30 48 H 2.025620 3.695724 -1.082715 0
M  V30 49 H 0.845467 4.897448 -2.712570 0
M  V30 50 H -1.082747 5.232891 -4.097447 0
M  V30 51 H -3.051980 3.679196 -3.985775 0
M  V30 52 H -4.183088 2.019242 -2.702279 0
M  V30 53 H -1.373886 -0.413314 -2.337865 0
M  V30 54 H -1.637663 -2.691462 -1.536148 0
M  V30 55 H -5.431854 0.412604 -1.438495 0
M  V30 56 H -6.861243 -1.784839 -0.347116 0
M  V30 57 H -2.432419 -4.735191 -0.726747 0
M  V30 58 H -4.972568 -5.891329 2.016115 0
M  V30 59 H -5.335916 -8.499813 1.923842 0
M  V30 60 H -4.183064 -9.338252 -0.309827 0
M  V30 61 H -3.199679 -7.331403 -1.488705 0
M  V30 62 H -1.038747 1.497020 -1.042809 0
M  V30 63 H 3.799675 3.658626 -0.104824 0
M  V30 64 H 6.084505 1.753790 2.852140 0
M  V30 65 H 6.464401 -0.584619 3.394668 0
M  V30 END ATOM
M  V30 BEGIN BOND
M  V30 1 1 1 2
M  V30 2 2 2 3
M  V30 3 1 3 4
M  V30 4 1 4 5
M  V30 5 2 5 6
M  V30 6 1 6 7
M  V30 7 1 7 8
M  V30 8 2 8 9
M  V30 9 1 8 10
M  V30 10 1 10 11
M  V30 11 2 11 12
M  V30 12 1 12 13
M  V30 13 2 13 14
M  V30 14 1 14 15
M  V30 15 1 15 16
M  V30 16 1 16 17
M  V30 17 2 17 18
M  V30 18 1 18 19
M  V30 19 2 19 20
M  V30 20 1 20 21
M  V30 21 2 21 22
M  V30 22 1 21 23
M  V30 23 1 23 24
M  V30 24 2 24 25
M  V30 25 1 24 26
M  V30 26 2 26 27
M  V30 27 1 27 28
M  V30 28 2 28 29
M  V30 29 1 29 30
M  V30 30 2 30 31
M  V30 31 1 31 32
M  V30 32 2 15 33
M  V30 33 2 7 34
M  V30 34 1 34 35
M  V30 35 1 35 36
M  V30 36 1 36 37
M  V30 37 1 36 38
M  V30 38 1 36 39
M  V30 39 2 35 40
M  V30 40 1 4 41
M  V30 41 2 41 42
M  V30 42 1 42 2
M  V30 43 1 40 5
M  V30 44 1 33 11
M  V30 45 1 22 17
M  V30 46 1 32 28
M  V30 47 1 26 20
M  V30 48 1 1 43
M  V30 49 1 1 44
M  V30 50 1 1 45
M  V30 51 1 3 46
M  V30 52 1 6 47
M  V30 53 1 10 48
M  V30 54 1 12 49
M  V30 55 1 13 50
M  V30 56 1 14 51
M  V30 57 1 16 52
M  V30 58 1 18 53
M  V30 59 1 19 54
M  V30 60 1 22 55
M  V30 61 1 23 56
M  V30 62 1 27 57
M  V30 63 1 29 58
M  V30 64 1 30 59
M  V30 65 1 31 60
M  V30 66 1 32 61
M  V30 67 1 33 62
M  V30 68 1 34 63
M  V30 69 1 40 64
M  V30 70 1 41 65
M  V30 END BOND
M  V30 END CTAB
M  END
>  <Dataset>  (53) 
ChEMBL_Kinases

>  <Ligand_Instance>  (53) 
nan

>  <PDB_ID>  (53) 
nan

>  <Standardized_SMILES>  (53) 
Cc1cn(-c2cc(C(=O)Nc3cccc(Nc4ccc5c(c4)NC(=O)/C5=C\c4ccc[nH]4)c3)cc(C(F)(F)F)c2)cn1

>  <Name>  (53) 
nan

>  <Pocket>  (53) 
nan

>  <ATP_Site>  (53) 
nan

>  <Peripheral>  (53) 
nan

>  <Num_H_Atoms_ProtBoundConf>  (53) 
nan

>  <Num_Resolved_Atoms>  (53) 
nan

>  <Num_Not_Resolved_Atoms>  (53) 
nan

$$$$
CHEMBL4473820
     RDKit          3D

  0  0  0  0  0  0  0  0  0  0999 V3000
M  V30 BEGIN CTAB
M  V30 COUNTS 51 54 0 0 0
M  V30 BEGIN ATOM
M  V30 1 C -3.166530 -5.121032 6.395875 0
M  V30 2 N -2.143487 -4.232092 5.941775 0
M  V30 3 C -2.397865 -3.670201 4.653091 0
M  V30 4 C -1.258582 -2.759888 4.226588 0
M  V30 5 C -0.033447 -3.594768 3.972144 0
M  V30 6 N 0.289884 -3.746669 2.586412 0
M  V30 7 C 0.625307 -2.651258 1.746016 0
M  V30 8 C 0.687441 -1.340071 2.169371 0
M  V30 9 C 1.016065 -0.289892 1.318510 0
M  V30 10 C 1.297252 -0.536808 -0.010657 0
M  V30 11 C 1.634362 0.610527 -0.847402 0
M  V30 12 O 1.650956 1.739205 -0.322800 0
M  V30 13 N 1.944663 0.504027 -2.231323 0
M  V30 14 C 2.242501 1.738125 -2.855583 0
M  V30 15 C 1.254433 2.506325 -3.437673 0
M  V30 16 C 1.852979 3.616602 -3.945332 0
M  V30 17 C 1.237944 4.739754 -4.659480 0
M  V30 18 C -0.059606 4.874117 -4.943905 0
M  V30 19 C -0.523597 5.968257 -5.617247 0
M  V30 20 C -1.864437 6.288051 -6.009672 0
M  V30 21 N -2.967265 6.533108 -6.320149 0
M  V30 22 C 0.507366 6.923506 -5.971663 0
M  V30 23 S 2.071704 6.115716 -5.275878 0
M  V30 24 N 3.165699 3.519040 -3.675941 0
M  V30 25 N 3.406654 2.394004 -3.022029 0
M  V30 26 C 1.248669 -1.832796 -0.483538 0
M  V30 27 C 0.916539 -2.831049 0.409372 0
M  V30 28 C -0.258940 -4.951584 4.616103 0
M  V30 29 C -0.827084 -4.784768 5.986429 0
M  V30 30 H -2.828979 -5.616790 7.329655 0
M  V30 31 H -3.473756 -5.864450 5.620530 0
M  V30 32 H -4.066119 -4.523089 6.623356 0
M  V30 33 H -2.667792 -4.404617 3.863298 0
M  V30 34 H -3.342505 -3.056368 4.770204 0
M  V30 35 H -1.102341 -2.061881 5.047045 0
M  V30 36 H -1.608769 -2.254251 3.287781 0
M  V30 37 H 0.809886 -3.099976 4.507472 0
M  V30 38 H 0.282909 -4.698165 2.161290 0
M  V30 39 H 0.477069 -1.105623 3.202191 0
M  V30 40 H 1.039795 0.720196 1.747897 0
M  V30 41 H 1.936929 -0.432717 -2.692260 0
M  V30 42 H 0.194842 2.296547 -3.497550 0
M  V30 43 H -0.795264 4.121839 -4.652456 0
M  V30 44 H 0.382403 7.909642 -6.530841 0
M  V30 45 H 4.328710 2.044959 -2.679661 0
M  V30 46 H 1.467336 -2.031970 -1.520899 0
M  V30 47 H 0.886358 -3.848555 0.004121 0
M  V30 48 H -0.969511 -5.503591 3.971604 0
M  V30 49 H 0.683312 -5.541971 4.641297 0
M  V30 50 H -0.814461 -5.761182 6.540416 0
M  V30 51 H -0.121929 -4.142180 6.588761 0
M  V30 END ATOM
M  V30 BEGIN BOND
M  V30 1 1 1 2
M  V30 2 1 2 3
M  V30 3 1 3 4
M  V30 4 1 4 5
M  V30 5 1 5 6
M  V30 6 1 6 7
M  V30 7 2 7 8
M  V30 8 1 8 9
M  V30 9 2 9 10
M  V30 10 1 10 11
M  V30 11 2 11 12
M  V30 12 1 11 13
M  V30 13 1 13 14
M  V30 14 2 14 15
M  V30 15 1 15 16
M  V30 16 1 16 17
M  V30 17 2 17 18
M  V30 18 1 18 19
M  V30 19 1 19 20
M  V30 20 3 20 21
M  V30 21 2 19 22
M  V30 22 1 22 23
M  V30 23 2 16 24
M  V30 24 1 24 25
M  V30 25 1 10 26
M  V30 26 2 26 27
M  V30 27 1 5 28
M  V30 28 1 28 29
M  V30 29 1 29 2
M  V30 30 1 27 7
M  V30 31 1 25 14
M  V30 32 1 23 17
M  V30 33 1 1 30
M  V30 34 1 1 31
M  V30 35 1 1 32
M  V30 36 1 3 33
M  V30 37 1 3 34
M  V30 38 1 4 35
M  V30 39 1 4 36
M  V30 40 1 5 37
M  V30 41 1 6 38
M  V30 42 1 8 39
M  V30 43 1 9 40
M  V30 44 1 13 41
M  V30 45 1 15 42
M  V30 46 1 18 43
M  V30 47 1 22 44
M  V30 48 1 25 45
M  V30 49 1 26 46
M  V30 50 1 27 47
M  V30 51 1 28 48
M  V30 52 1 28 49
M  V30 53 1 29 50
M  V30 54 1 29 51
M  V30 END BOND
M  V30 END CTAB
M  END
>  <Dataset>  (54) 
ChEMBL_Kinases

>  <Ligand_Instance>  (54) 
nan

>  <PDB_ID>  (54) 
nan

>  <Standardized_SMILES>  (54) 
CN1CCC(Nc2ccc(C(=O)Nc3cc(-c4cc(C#N)cs4)n[nH]3)cc2)CC1

>  <Name>  (54) 
nan

>  <Pocket>  (54) 
nan

>  <ATP_Site>  (54) 
nan

>  <Peripheral>  (54) 
nan

>  <Num_H_Atoms_ProtBoundConf>  (54) 
nan

>  <Num_Resolved_Atoms>  (54) 
nan

>  <Num_Not_Resolved_Atoms>  (54) 
nan

$$$$
CHEMBL4474210
     RDKit          3D

  0  0  0  0  0  0  0  0  0  0999 V3000
M  V30 BEGIN CTAB
M  V30 COUNTS 30 33 0 0 0
M  V30 BEGIN ATOM
M  V30 1 O 5.812716 -3.941594 0.498071 0
M  V30 2 N 4.819347 -3.567533 -0.155282 0 CHG=1 VAL=4
M  V30 3 O 4.730674 -3.905844 -1.483776 0 CHG=-1 VAL=1
M  V30 4 C 3.761464 -2.792477 0.436188 0
M  V30 5 C 3.837373 -2.445662 1.768983 0
M  V30 6 C 2.805581 -1.691466 2.339926 0
M  V30 7 C 1.777915 -1.357701 1.482133 0
M  V30 8 N 0.760162 -0.622821 2.014360 0
M  V30 9 C -0.303704 -0.231079 1.284303 0
M  V30 10 C -0.402559 -0.565380 -0.050354 0
M  V30 11 N 0.603553 -1.290883 -0.573177 0
M  V30 12 C 1.667219 -1.685216 0.147641 0
M  V30 13 C 2.713663 -2.437582 -0.388557 0
M  V30 14 C -1.643282 -0.019939 -0.599116 0
M  V30 15 N -2.071634 -0.135189 -1.825911 0
M  V30 16 O -1.277839 -0.841973 -2.697557 0
M  V30 17 C -2.283766 0.671042 0.516707 0
M  V30 18 C -3.479688 1.373353 0.591147 0
M  V30 19 C -3.861882 1.945094 1.801757 0
M  V30 20 C -3.044978 1.808553 2.923712 0
M  V30 21 C -1.847218 1.107877 2.858446 0
M  V30 22 C -1.485998 0.546392 1.642091 0
M  V30 23 H 4.660629 -2.728571 2.403079 0
M  V30 24 H 2.775190 -1.371902 3.372858 0
M  V30 25 H 2.665985 -2.715004 -1.429333 0
M  V30 26 H -0.913312 -0.434437 -3.550372 0
M  V30 27 H -4.127339 1.495908 -0.249420 0
M  V30 28 H -4.797944 2.498186 1.871521 0
M  V30 29 H -3.369150 2.268601 3.865477 0
M  V30 30 H -1.278302 1.050104 3.767359 0
M  V30 END ATOM
M  V30 BEGIN BOND
M  V30 1 2 1 2
M  V30 2 1 2 3
M  V30 3 1 2 4
M  V30 4 2 4 5
M  V30 5 1 5 6
M  V30 6 2 6 7
M  V30 7 1 7 8
M  V30 8 2 8 9
M  V30 9 1 9 10
M  V30 10 2 10 11
M  V30 11 1 11 12
M  V30 12 2 12 13
M  V30 13 1 10 14
M  V30 14 2 14 15
M  V30 15 1 15 16
M  V30 16 1 14 17
M  V30 17 2 17 18
M  V30 18 1 18 19
M  V30 19 2 19 20
M  V30 20 1 20 21
M  V30 21 2 21 22
M  V30 22 1 13 4
M  V30 23 1 22 17
M  V30 24 1 12 7
M  V30 25 1 22 9
M  V30 26 1 5 23
M  V30 27 1 6 24
M  V30 28 1 13 25
M  V30 29 1 16 26
M  V30 30 1 18 27
M  V30 31 1 19 28
M  V30 32 1 20 29
M  V30 33 1 21 30
M  V30 END BOND
M  V30 END CTAB
M  END
>  <Dataset>  (55) 
ChEMBL_Kinases

>  <Ligand_Instance>  (55) 
nan

>  <PDB_ID>  (55) 
nan

>  <Standardized_SMILES>  (55) 
O=[N+]([O-])c1ccc2nc3c(nc2c1)/C(=N\O)c1ccccc1-3

>  <Name>  (55) 
nan

>  <Pocket>  (55) 
nan

>  <ATP_Site>  (55) 
nan

>  <Peripheral>  (55) 
nan

>  <Num_H_Atoms_ProtBoundConf>  (55) 
nan

>  <Num_Resolved_Atoms>  (55) 
nan

>  <Num_Not_Resolved_Atoms>  (55) 
nan

$$$$
CHEMBL468963
     RDKit          3D

  0  0  0  0  0  0  0  0  0  0999 V3000
M  V30 BEGIN CTAB
M  V30 COUNTS 54 58 0 0 0
M  V30 BEGIN ATOM
M  V30 1 C 3.212894 -1.032542 5.701384 0
M  V30 2 N 3.133746 -1.630717 4.404844 0
M  V30 3 C 4.324274 -2.380411 4.056131 0
M  V30 4 C 4.398420 -2.605189 2.544261 0
M  V30 5 N 3.032341 -2.569804 2.040764 0
M  V30 6 C 2.401651 -2.022281 0.867613 0
M  V30 7 C 1.498803 -0.999295 0.996224 0
M  V30 8 C 0.835904 -0.394103 -0.052066 0
M  V30 9 C 1.110043 -0.861510 -1.321029 0
M  V30 10 N 0.474428 -0.298882 -2.473402 0
M  V30 11 C -0.484763 0.756064 -2.276155 0
M  V30 12 N -0.129105 2.051200 -2.224519 0
M  V30 13 C -1.093160 2.998958 -2.037470 0
M  V30 14 C -2.360552 2.529141 -1.917359 0
M  V30 15 C -2.797226 1.247461 -1.958072 0
M  V30 16 C -4.110039 0.668359 -1.845518 0
M  V30 17 C -4.302478 -0.710393 -1.955611 0
M  V30 18 N -5.599956 -1.000987 -1.816023 0
M  V30 19 N -6.289652 0.091340 -1.619610 0
M  V30 20 N -7.566805 0.330975 -1.429469 0
M  V30 21 C -8.051253 1.559020 -1.245015 0
M  V30 22 C -7.165475 2.640231 -1.253497 0
M  V30 23 C -5.840194 2.348073 -1.455086 0
M  V30 24 C -5.390764 1.070436 -1.640058 0
M  V30 25 N -1.770063 0.394068 -2.145913 0
M  V30 26 C 2.015333 -1.889454 -1.466473 0
M  V30 27 C 2.665884 -2.478933 -0.401451 0
M  V30 28 C 3.621784 -3.581712 -0.664595 0
M  V30 29 F 3.256514 -4.733393 -0.016605 0
M  V30 30 F 4.858615 -3.199670 -0.202031 0
M  V30 31 F 3.763363 -3.801519 -2.026992 0
M  V30 32 C 2.112210 -3.260678 2.943509 0
M  V30 33 C 1.929941 -2.389709 4.159661 0
M  V30 34 H 2.322082 -1.353841 6.286057 0
M  V30 35 H 3.136635 0.072992 5.622165 0
M  V30 36 H 4.123041 -1.340459 6.265268 0
M  V30 37 H 4.312443 -3.319699 4.612634 0
M  V30 38 H 5.191355 -1.794403 4.399950 0
M  V30 39 H 4.805119 -3.630303 2.440933 0
M  V30 40 H 5.057227 -1.843723 2.074532 0
M  V30 41 H 1.216054 -0.559520 1.960217 0
M  V30 42 H 0.128078 0.407233 0.048149 0
M  V30 43 H 0.709868 -0.652879 -3.409608 0
M  V30 44 H -0.839783 4.034216 -1.992297 0
M  V30 45 H -3.076425 3.295163 -1.776038 0
M  V30 46 H -3.633406 -1.569599 -2.126276 0
M  V30 47 H -9.135032 1.657088 -1.094469 0
M  V30 48 H -7.573065 3.610854 -1.104271 0
M  V30 49 H -5.198761 3.196894 -1.453060 0
M  V30 50 H 2.206856 -2.234118 -2.492597 0
M  V30 51 H 2.564038 -4.225979 3.262864 0
M  V30 52 H 1.104236 -3.397042 2.507846 0
M  V30 53 H 1.048686 -1.732865 4.032841 0
M  V30 54 H 1.727050 -2.987606 5.073484 0
M  V30 END ATOM
M  V30 BEGIN BOND
M  V30 1 1 1 2
M  V30 2 1 2 3
M  V30 3 1 3 4
M  V30 4 1 4 5
M  V30 5 1 5 6
M  V30 6 2 6 7
M  V30 7 1 7 8
M  V30 8 2 8 9
M  V30 9 1 9 10
M  V30 10 1 10 11
M  V30 11 2 11 12
M  V30 12 1 12 13
M  V30 13 2 13 14
M  V30 14 1 14 15
M  V30 15 1 15 16
M  V30 16 1 16 17
M  V30 17 2 17 18
M  V30 18 1 18 19
M  V30 19 1 19 20
M  V30 20 2 20 21
M  V30 21 1 21 22
M  V30 22 2 22 23
M  V30 23 1 23 24
M  V30 24 2 15 25
M  V30 25 1 9 26
M  V30 26 2 26 27
M  V30 27 1 27 28
M  V30 28 1 28 29
M  V30 29 1 28 30
M  V30 30 1 28 31
M  V30 31 1 5 32
M  V30 32 1 32 33
M  V30 33 1 33 2
M  V30 34 1 27 6
M  V30 35 1 25 11
M  V30 36 2 24 16
M  V30 37 1 24 19
M  V30 38 1 1 34
M  V30 39 1 1 35
M  V30 40 1 1 36
M  V30 41 1 3 37
M  V30 42 1 3 38
M  V30 43 1 4 39
M  V30 44 1 4 40
M  V30 45 1 7 41
M  V30 46 1 8 42
M  V30 47 1 10 43
M  V30 48 1 13 44
M  V30 49 1 14 45
M  V30 50 1 17 46
M  V30 51 1 21 47
M  V30 52 1 22 48
M  V30 53 1 23 49
M  V30 54 1 26 50
M  V30 55 1 32 51
M  V30 56 1 32 52
M  V30 57 1 33 53
M  V30 58 1 33 54
M  V30 END BOND
M  V30 END CTAB
M  END
>  <Dataset>  (56) 
ChEMBL_Kinases

>  <Ligand_Instance>  (56) 
nan

>  <PDB_ID>  (56) 
nan

>  <Standardized_SMILES>  (56) 
CN1CCN(c2ccc(Nc3nccc(-c4cnn5ncccc45)n3)cc2C(F)(F)F)CC1

>  <Name>  (56) 
GW779439X

>  <Pocket>  (56) 
nan

>  <ATP_Site>  (56) 
nan

>  <Peripheral>  (56) 
nan

>  <Num_H_Atoms_ProtBoundConf>  (56) 
nan

>  <Num_Resolved_Atoms>  (56) 
nan

>  <Num_Not_Resolved_Atoms>  (56) 
nan

$$$$
CHEMBL203839
     RDKit          3D

  0  0  0  0  0  0  0  0  0  0999 V3000
M  V30 BEGIN CTAB
M  V30 COUNTS 47 50 0 0 0
M  V30 BEGIN ATOM
M  V30 1 O 0.039502 -2.768477 2.488952 0
M  V30 2 C 0.802234 -3.780863 2.580176 0
M  V30 3 N 2.160064 -3.364068 2.406047 0
M  V30 4 C 2.103997 -1.940487 2.201364 0
M  V30 5 C 1.962883 -1.340153 0.978649 0
M  V30 6 C 1.924523 0.036623 0.941751 0
M  V30 7 C 1.762163 0.785919 -0.304512 0
M  V30 8 C 2.239831 0.343813 -1.519664 0
M  V30 9 C 2.001035 1.168055 -2.621480 0
M  V30 10 N 1.342373 2.345726 -2.562637 0
M  V30 11 C 0.854260 2.822546 -1.392042 0
M  V30 12 N 0.132840 4.014368 -1.112744 0
M  V30 13 C -1.201748 3.971967 -0.612791 0
M  V30 14 C -1.959602 5.104570 -0.324860 0
M  V30 15 C -3.244177 5.028627 0.171402 0
M  V30 16 C -3.840462 3.805158 0.407292 0
M  V30 17 F -5.088416 3.714596 0.892265 0
M  V30 18 C -3.124647 2.639810 0.134832 0
M  V30 19 C -1.841435 2.770621 -0.361405 0
M  V30 20 C 1.092381 2.002829 -0.297171 0
M  V30 21 C 2.034162 0.714039 2.157611 0
M  V30 22 C 2.177763 0.090735 3.391720 0
M  V30 23 N 2.209146 -1.270043 3.374084 0
M  V30 24 C 0.218731 -5.108288 2.828285 0
M  V30 25 C 0.543830 -6.127901 1.757685 0
M  V30 26 C -0.717912 -6.084915 0.915655 0
M  V30 27 O -1.740121 -5.843966 1.797382 0
M  V30 28 C -1.268009 -5.008738 2.771390 0
M  V30 29 H 2.836628 -4.179022 2.469534 0
M  V30 30 H 1.885363 -1.932348 0.099390 0
M  V30 31 H 2.768608 -0.591130 -1.591096 0
M  V30 32 H 2.356048 0.873652 -3.603783 0
M  V30 33 H 0.524407 4.980025 -1.250047 0
M  V30 34 H -1.502907 6.074294 -0.503689 0
M  V30 35 H -3.799056 5.957846 0.382645 0
M  V30 36 H -3.584794 1.683068 0.313284 0
M  V30 37 H -1.352555 1.822218 -0.544430 0
M  V30 38 H 0.737617 2.304728 0.684565 0
M  V30 39 H 2.010165 1.805933 2.199225 0
M  V30 40 H 2.255605 0.671740 4.299538 0
M  V30 41 H 0.565414 -5.501861 3.817642 0
M  V30 42 H 1.457544 -5.918086 1.202026 0
M  V30 43 H 0.579868 -7.132104 2.208038 0
M  V30 44 H -0.600571 -5.258457 0.178406 0
M  V30 45 H -0.829489 -7.018585 0.336803 0
M  V30 46 H -1.617724 -3.966484 2.584687 0
M  V30 47 H -1.675271 -5.341800 3.751620 0
M  V30 END ATOM
M  V30 BEGIN BOND
M  V30 1 2 1 2
M  V30 2 1 2 3
M  V30 3 1 3 4
M  V30 4 2 4 5
M  V30 5 1 5 6
M  V30 6 1 6 7
M  V30 7 2 7 8
M  V30 8 1 8 9
M  V30 9 2 9 10
M  V30 10 1 10 11
M  V30 11 1 11 12
M  V30 12 1 12 13
M  V30 13 2 13 14
M  V30 14 1 14 15
M  V30 15 2 15 16
M  V30 16 1 16 17
M  V30 17 1 16 18
M  V30 18 2 18 19
M  V30 19 2 11 20
M  V30 20 2 6 21
M  V30 21 1 21 22
M  V30 22 2 22 23
M  V30 23 1 2 24
M  V30 24 1 24 25
M  V30 25 1 25 26
M  V30 26 1 26 27
M  V30 27 1 27 28
M  V30 28 1 23 4
M  V30 29 1 28 24
M  V30 30 1 20 7
M  V30 31 1 19 13
M  V30 32 1 3 29
M  V30 33 1 5 30
M  V30 34 1 8 31
M  V30 35 1 9 32
M  V30 36 1 12 33
M  V30 37 1 14 34
M  V30 38 1 15 35
M  V30 39 1 18 36
M  V30 40 1 19 37
M  V30 41 1 20 38
M  V30 42 1 21 39
M  V30 43 1 22 40
M  V30 44 1 24 41
M  V30 45 1 25 42
M  V30 46 1 25 43
M  V30 47 1 26 44
M  V30 48 1 26 45
M  V30 49 1 28 46
M  V30 50 1 28 47
M  V30 END BOND
M  V30 END CTAB
M  END
>  <Dataset>  (57) 
ChEMBL_Kinases

>  <Ligand_Instance>  (57) 
nan

>  <PDB_ID>  (57) 
nan

>  <Standardized_SMILES>  (57) 
O=C(Nc1cc(-c2ccnc(Nc3ccc(F)cc3)c2)ccn1)C1CCOC1

>  <Name>  (57) 
nan

>  <Pocket>  (57) 
nan

>  <ATP_Site>  (57) 
nan

>  <Peripheral>  (57) 
nan

>  <Num_H_Atoms_ProtBoundConf>  (57) 
nan

>  <Num_Resolved_Atoms>  (57) 
nan

>  <Num_Not_Resolved_Atoms>  (57) 
nan

$$$$
CHEMBL4474903
     RDKit          3D

  0  0  0  0  0  0  0  0  0  0999 V3000
M  V30 BEGIN CTAB
M  V30 COUNTS 43 46 0 0 0
M  V30 BEGIN ATOM
M  V30 1 C 3.986958 -0.107247 5.727551 0
M  V30 2 S 3.986206 1.320684 4.592246 0
M  V30 3 C 3.164026 0.905565 3.060115 0
M  V30 4 N 3.787647 0.384466 1.972660 0
M  V30 5 C 2.837531 0.204324 1.008602 0
M  V30 6 C 3.169635 -0.345588 -0.304277 0
M  V30 7 C 2.721978 -1.525003 -0.884916 0
M  V30 8 C 3.157109 -1.864676 -2.141101 0
M  V30 9 C 4.034861 -1.085418 -2.881243 0
M  V30 10 F 4.418943 -1.480962 -4.107238 0
M  V30 11 C 4.465870 0.085791 -2.278701 0
M  V30 12 C 4.047274 0.462647 -1.008733 0
M  V30 13 C 1.627964 0.637478 1.563743 0
M  V30 14 C 0.432830 0.552680 0.732325 0
M  V30 15 C 0.328329 1.262823 -0.440585 0
M  V30 16 C -0.792912 1.213698 -1.266085 0
M  V30 17 N -1.794363 0.409361 -0.837245 0
M  V30 18 C -1.700000 -0.286462 0.305434 0
M  V30 19 N -2.858497 -1.070048 0.577153 0
M  V30 20 C -3.980430 -0.629514 1.309642 0
M  V30 21 O -4.032854 0.537278 1.792514 0
M  V30 22 C -5.103030 -1.572041 1.501182 0
M  V30 23 C -4.637404 -3.010169 1.795342 0
M  V30 24 C -5.315440 -2.694647 0.513492 0
M  V30 25 C -0.599608 -0.259690 1.148468 0
M  V30 26 N 1.863318 1.062157 2.825151 0
M  V30 27 H 5.022780 -0.544880 5.825033 0
M  V30 28 H 3.671886 0.161329 6.750814 0
M  V30 29 H 3.327881 -0.919394 5.370106 0
M  V30 30 H 2.050224 -2.077761 -0.265086 0
M  V30 31 H 2.780089 -2.804646 -2.564164 0
M  V30 32 H 5.161379 0.720479 -2.844333 0
M  V30 33 H 4.458520 1.400700 -0.652863 0
M  V30 34 H 1.145989 1.898892 -0.759315 0
M  V30 35 H -0.833556 1.787350 -2.178629 0
M  V30 36 H -2.750457 -2.022216 0.150802 0
M  V30 37 H -5.996575 -1.247485 2.074947 0
M  V30 38 H -5.210212 -3.573206 2.574725 0
M  V30 39 H -3.551034 -3.221482 1.803338 0
M  V30 40 H -4.677623 -2.582248 -0.407672 0
M  V30 41 H -6.324128 -3.043422 0.285045 0
M  V30 42 H -0.607709 -0.843940 2.037567 0
M  V30 43 H 1.091569 1.425060 3.412976 0
M  V30 END ATOM
M  V30 BEGIN BOND
M  V30 1 1 1 2
M  V30 2 1 2 3
M  V30 3 2 3 4
M  V30 4 1 4 5
M  V30 5 1 5 6
M  V30 6 2 6 7
M  V30 7 1 7 8
M  V30 8 2 8 9
M  V30 9 1 9 10
M  V30 10 1 9 11
M  V30 11 2 11 12
M  V30 12 2 5 13
M  V30 13 1 13 14
M  V30 14 2 14 15
M  V30 15 1 15 16
M  V30 16 2 16 17
M  V30 17 1 17 18
M  V30 18 1 18 19
M  V30 19 1 19 20
M  V30 20 2 20 21
M  V30 21 1 20 22
M  V30 22 1 22 23
M  V30 23 1 23 24
M  V30 24 2 18 25
M  V30 25 1 13 26
M  V30 26 1 26 3
M  V30 27 1 12 6
M  V30 28 1 25 14
M  V30 29 1 24 22
M  V30 30 1 1 27
M  V30 31 1 1 28
M  V30 32 1 1 29
M  V30 33 1 7 30
M  V30 34 1 8 31
M  V30 35 1 11 32
M  V30 36 1 12 33
M  V30 37 1 15 34
M  V30 38 1 16 35
M  V30 39 1 19 36
M  V30 40 1 22 37
M  V30 41 1 23 38
M  V30 42 1 23 39
M  V30 43 1 24 40
M  V30 44 1 24 41
M  V30 45 1 25 42
M  V30 46 1 26 43
M  V30 END BOND
M  V30 END CTAB
M  END
>  <Dataset>  (58) 
ChEMBL_Kinases

>  <Ligand_Instance>  (58) 
nan

>  <PDB_ID>  (58) 
nan

>  <Standardized_SMILES>  (58) 
CSc1nc(-c2ccc(F)cc2)c(-c2ccnc(NC(=O)C3CC3)c2)[nH]1

>  <Name>  (58) 
nan

>  <Pocket>  (58) 
nan

>  <ATP_Site>  (58) 
nan

>  <Peripheral>  (58) 
nan

>  <Num_H_Atoms_ProtBoundConf>  (58) 
nan

>  <Num_Resolved_Atoms>  (58) 
nan

>  <Num_Not_Resolved_Atoms>  (58) 
nan

$$$$
CHEMBL4475305
     RDKit          3D

  0  0  0  0  0  0  0  0  0  0999 V3000
M  V30 BEGIN CTAB
M  V30 COUNTS 65 68 0 0 0
M  V30 BEGIN ATOM
M  V30 1 C 5.201585 -3.479767 2.152337 0
M  V30 2 O 4.056193 -2.664199 2.133407 0
M  V30 3 C 3.903741 -1.502425 1.420434 0
M  V30 4 C 4.909616 -1.009240 0.622995 0
M  V30 5 C 4.744366 0.165632 -0.089515 0
M  V30 6 C 3.520723 0.777086 0.064996 0
M  V30 7 N 3.288258 1.990664 -0.695298 0
M  V30 8 C 2.677730 1.399889 -1.855342 0
M  V30 9 O 2.613534 0.127166 -1.707142 0
M  V30 10 C 2.160620 2.026657 -3.091643 0
M  V30 11 C 1.648173 1.203905 -3.989004 0
M  V30 12 C 1.090534 1.659945 -5.273154 0
M  V30 13 N -0.294762 1.288862 -5.379910 0
M  V30 14 C -0.558272 -0.109437 -5.488604 0
M  V30 15 C -1.074819 1.855738 -4.306867 0
M  V30 16 C 2.498702 0.293439 0.863861 0
M  V30 17 C 2.686355 -0.881193 1.565941 0
M  V30 18 N 1.626406 -1.389392 2.316907 0
M  V30 19 C 0.418077 -0.820807 2.707899 0
M  V30 20 N -0.680920 -1.460140 3.144431 0
M  V30 21 C -1.785052 -0.807198 3.558320 0
M  V30 22 N -2.867722 -1.616344 3.952440 0
M  V30 23 C -3.552054 -2.771908 3.499797 0
M  V30 24 C -3.525559 -3.890977 4.285770 0
M  V30 25 C -4.149861 -5.111919 4.007931 0
M  V30 26 C -4.843759 -5.100193 2.791005 0
M  V30 27 C -4.930150 -4.005901 1.915102 0
M  V30 28 C -4.264010 -2.877943 2.330143 0
M  V30 29 C -4.341432 -1.723172 1.495252 0
M  V30 30 N -4.860114 -1.280230 0.289462 0
M  V30 31 O -3.953392 -0.538991 1.489626 0
M  V30 32 C -1.827262 0.568180 3.549169 0
M  V30 33 C -2.813233 1.472068 3.911493 0
M  V30 34 C -2.219743 2.687681 3.658096 0
M  V30 35 N -0.972949 2.531158 3.181015 0
M  V30 36 C -0.697764 1.213540 3.100379 0
M  V30 37 N 0.365239 0.513862 2.702326 0
M  V30 38 H 5.696651 -3.501346 1.171552 0
M  V30 39 H 5.933145 -3.151169 2.936623 0
M  V30 40 H 4.839288 -4.513022 2.439058 0
M  V30 41 H 5.857741 -1.531970 0.538933 0
M  V30 42 H 5.491112 0.598737 -0.722842 0
M  V30 43 H 3.367710 3.026530 -0.757714 0
M  V30 44 H 2.198678 3.088897 -3.250406 0
M  V30 45 H 1.613210 0.123944 -3.817513 0
M  V30 46 H 1.133649 2.762489 -5.377508 0
M  V30 47 H 1.706997 1.238932 -6.096105 0
M  V30 48 H -0.815054 -0.362130 -6.544980 0
M  V30 49 H -1.380203 -0.453111 -4.822287 0
M  V30 50 H 0.354690 -0.672284 -5.195707 0
M  V30 51 H -1.240932 1.151283 -3.452964 0
M  V30 52 H -2.080293 2.218215 -4.658950 0
M  V30 53 H -0.519945 2.721874 -3.873508 0
M  V30 54 H 1.635216 0.899367 0.850195 0
M  V30 55 H 1.745901 -2.390966 2.661491 0
M  V30 56 H -3.268175 -1.227107 4.848825 0
M  V30 57 H -2.984754 -3.893151 5.228874 0
M  V30 58 H -4.134645 -5.995045 4.620291 0
M  V30 59 H -5.353520 -6.023169 2.509796 0
M  V30 60 H -5.491566 -4.110572 1.012030 0
M  V30 61 H -5.858902 -1.395493 -0.052202 0
M  V30 62 H -5.539026 -1.106570 -0.445951 0
M  V30 63 H -3.790238 1.224017 4.294781 0
M  V30 64 H -2.723309 3.653131 3.831232 0
M  V30 65 H -0.271509 3.277785 2.895692 0
M  V30 END ATOM
M  V30 BEGIN BOND
M  V30 1 1 1 2
M  V30 2 1 2 3
M  V30 3 2 3 4
M  V30 4 1 4 5
M  V30 5 2 5 6
M  V30 6 1 6 7
M  V30 7 1 7 8
M  V30 8 2 8 9
M  V30 9 1 8 10
M  V30 10 2 10 11
M  V30 11 1 11 12
M  V30 12 1 12 13
M  V30 13 1 13 14
M  V30 14 1 13 15
M  V30 15 1 6 16
M  V30 16 2 16 17
M  V30 17 1 17 18
M  V30 18 1 18 19
M  V30 19 2 19 20
M  V30 20 1 20 21
M  V30 21 1 21 22
M  V30 22 1 22 23
M  V30 23 2 23 24
M  V30 24 1 24 25
M  V30 25 2 25 26
M  V30 26 1 26 27
M  V30 27 2 27 28
M  V30 28 1 28 29
M  V30 29 1 29 30
M  V30 30 2 29 31
M  V30 31 2 21 32
M  V30 32 1 32 33
M  V30 33 2 33 34
M  V30 34 1 34 35
M  V30 35 1 35 36
M  V30 36 2 36 37
M  V30 37 1 17 3
M  V30 38 1 37 19
M  V30 39 1 28 23
M  V30 40 1 36 32
M  V30 41 1 1 38
M  V30 42 1 1 39
M  V30 43 1 1 40
M  V30 44 1 4 41
M  V30 45 1 5 42
M  V30 46 1 7 43
M  V30 47 1 10 44
M  V30 48 1 11 45
M  V30 49 1 12 46
M  V30 50 1 12 47
M  V30 51 1 14 48
M  V30 52 1 14 49
M  V30 53 1 14 50
M  V30 54 1 15 51
M  V30 55 1 15 52
M  V30 56 1 15 53
M  V30 57 1 16 54
M  V30 58 1 18 55
M  V30 59 1 22 56
M  V30 60 1 24 57
M  V30 61 1 25 58
M  V30 62 1 26 59
M  V30 63 1 27 60
M  V30 64 1 30 61
M  V30 65 1 30 62
M  V30 66 1 33 63
M  V30 67 1 34 64
M  V30 68 1 35 65
M  V30 END BOND
M  V30 END CTAB
M  END
>  <Dataset>  (59) 
ChEMBL_Kinases

>  <Ligand_Instance>  (59) 
nan

>  <PDB_ID>  (59) 
nan

>  <Standardized_SMILES>  (59) 
COc1ccc(NC(=O)/C=C/CN(C)C)cc1Nc1nc(Nc2ccccc2C(N)=O)c2cc[nH]c2n1

>  <Name>  (59) 
nan

>  <Pocket>  (59) 
nan

>  <ATP_Site>  (59) 
nan

>  <Peripheral>  (59) 
nan

>  <Num_H_Atoms_ProtBoundConf>  (59) 
nan

>  <Num_Resolved_Atoms>  (59) 
nan

>  <Num_Not_Resolved_Atoms>  (59) 
nan

$$$$
CHEMBL4642516
     RDKit          3D

  0  0  0  0  0  0  0  0  0  0999 V3000
M  V30 BEGIN CTAB
M  V30 COUNTS 43 46 0 0 0
M  V30 BEGIN ATOM
M  V30 1 N 0.599615 -4.458920 3.706131 0
M  V30 2 C 0.481101 -4.475530 2.288618 0
M  V30 3 N 0.939338 -3.360735 1.686783 0
M  V30 4 C 0.906472 -3.201865 0.347200 0
M  V30 5 C 0.398444 -4.179976 -0.478271 0
M  V30 6 N 0.498030 -3.744898 -1.725446 0
M  V30 7 C 1.060154 -2.502254 -1.740724 0
M  V30 8 N 1.300434 -2.194492 -0.453694 0
M  V30 9 C 1.891878 -0.967673 -0.002948 0 CFG=2
M  V30 10 O 0.991780 0.105930 -0.054448 0
M  V30 11 C 1.796110 1.138508 0.384675 0 CFG=2
M  V30 12 C 1.208478 2.505959 0.165697 0
M  V30 13 O -0.001402 2.653338 0.855778 0
M  V30 14 C -1.167872 1.978354 0.693136 0
M  V30 15 O -1.354960 1.080594 -0.141462 0
M  V30 16 C -2.319130 2.304789 1.549133 0
M  V30 17 C -2.394464 3.250239 2.551501 0
M  V30 18 C -3.673527 3.234928 3.115428 0
M  V30 19 C -4.353662 2.241441 2.406202 0
M  V30 20 N -3.533768 1.699335 1.479499 0
M  V30 21 C 3.110782 0.994194 -0.395130 0 CFG=1
M  V30 22 O 4.219059 1.095377 0.423309 0
M  V30 23 C 3.014654 -0.464242 -0.859270 0 CFG=1
M  V30 24 O 4.182379 -1.159499 -0.558798 0
M  V30 25 C -0.062311 -5.309243 0.175207 0
M  V30 26 O -0.541039 -6.245774 -0.516745 0
M  V30 27 N -0.022255 -5.451812 1.512233 0
M  V30 28 H 1.488109 -4.688234 4.202985 0
M  V30 29 H -0.332617 -4.185468 4.125469 0
M  V30 30 H 1.247548 -1.933341 -2.641334 0
M  V30 31 H 2.249933 -1.008384 1.038349 0
M  V30 32 H 1.998876 0.956408 1.479956 0
M  V30 33 H 1.897436 3.309420 0.496466 0
M  V30 34 H 1.002960 2.666910 -0.933894 0
M  V30 35 H -1.582565 3.897280 2.846221 0
M  V30 36 H -4.053254 3.849877 3.917263 0
M  V30 37 H -5.393439 1.992087 2.622023 0
M  V30 38 H -3.857482 0.936453 0.844936 0
M  V30 39 H 3.119874 1.679849 -1.252402 0
M  V30 40 H 3.926556 1.149085 1.373314 0
M  V30 41 H 2.820347 -0.470455 -1.931352 0
M  V30 42 H 4.629406 -0.807650 0.253056 0
M  V30 43 H -0.361039 -6.289292 2.034143 0
M  V30 END ATOM
M  V30 BEGIN BOND
M  V30 1 1 1 2
M  V30 2 2 2 3
M  V30 3 1 3 4
M  V30 4 2 4 5
M  V30 5 1 5 6
M  V30 6 2 6 7
M  V30 7 1 7 8
M  V30 8 1 8 9
M  V30 9 1 9 10
M  V30 10 1 10 11
M  V30 11 1 11 12
M  V30 12 1 12 13
M  V30 13 1 13 14
M  V30 14 2 14 15
M  V30 15 1 14 16
M  V30 16 2 16 17
M  V30 17 1 17 18
M  V30 18 2 18 19
M  V30 19 1 19 20
M  V30 20 1 11 21
M  V30 21 1 21 22
M  V30 22 1 21 23
M  V30 23 1 23 24
M  V30 24 1 5 25
M  V30 25 2 25 26
M  V30 26 1 25 27
M  V30 27 1 27 2
M  V30 28 1 8 4
M  V30 29 1 23 9
M  V30 30 1 20 16
M  V30 31 1 1 28
M  V30 32 1 1 29
M  V30 33 1 7 30
M  V30 34 1 9 31 CFG=1
M  V30 35 1 11 32 CFG=1
M  V30 36 1 12 33
M  V30 37 1 12 34
M  V30 38 1 17 35
M  V30 39 1 18 36
M  V30 40 1 19 37
M  V30 41 1 20 38
M  V30 42 1 21 39 CFG=3
M  V30 43 1 22 40
M  V30 44 1 23 41 CFG=3
M  V30 45 1 24 42
M  V30 46 1 27 43
M  V30 END BOND
M  V30 END CTAB
M  END
>  <Dataset>  (60) 
ChEMBL_Kinases

>  <Ligand_Instance>  (60) 
nan

>  <PDB_ID>  (60) 
nan

>  <Standardized_SMILES>  (60) 
Nc1nc2c(ncn2[C@@H]2O[C@H](COC(=O)c3ccc[nH]3)[C@@H](O)[C@H]2O)c(=O)[nH]1

>  <Name>  (60) 
nan

>  <Pocket>  (60) 
nan

>  <ATP_Site>  (60) 
nan

>  <Peripheral>  (60) 
nan

>  <Num_H_Atoms_ProtBoundConf>  (60) 
nan

>  <Num_Resolved_Atoms>  (60) 
nan

>  <Num_Not_Resolved_Atoms>  (60) 
nan

$$$$
CHEMBL2046624
     RDKit          3D

  0  0  0  0  0  0  0  0  0  0999 V3000
M  V30 BEGIN CTAB
M  V30 COUNTS 41 43 0 0 0
M  V30 BEGIN ATOM
M  V30 1 N 4.817682 -3.785226 0.136293 0
M  V30 2 C 3.739305 -3.608973 1.041127 0
M  V30 3 N 3.690749 -4.567777 1.993613 0
M  V30 4 C 2.727405 -4.545584 2.929325 0
M  V30 5 C 1.772739 -3.551666 2.939610 0
M  V30 6 C 1.870088 -2.602353 1.947501 0
M  V30 7 C 2.834887 -2.584523 0.972897 0
M  V30 8 C 2.968322 -1.597486 -0.086246 0
M  V30 9 O 3.956477 -1.781895 -0.873543 0
M  V30 10 C 2.120028 -0.446665 -0.344165 0
M  V30 11 C 2.476391 0.363089 -1.402285 0
M  V30 12 C 1.729379 1.485436 -1.729184 0
M  V30 13 C 0.631062 1.726810 -0.938160 0
M  V30 14 C 0.247737 0.948404 0.116399 0
M  V30 15 N -0.873101 1.168679 0.957694 0
M  V30 16 C -1.668545 2.366523 0.854807 0
M  V30 17 C -3.078586 2.075941 0.389577 0
M  V30 18 C -3.386520 0.609899 0.298272 0
M  V30 19 N -3.588931 -0.008206 1.588843 0
M  V30 20 C -2.525396 0.228003 2.531878 0
M  V30 21 C -1.156332 0.112454 1.906419 0
M  V30 22 N 1.036106 -0.109037 0.346712 0
M  V30 23 H 4.664693 -4.276205 -0.787677 0
M  V30 24 H 5.814005 -3.466367 0.282650 0
M  V30 25 H 2.689130 -5.324158 3.701700 0
M  V30 26 H 0.994047 -3.518204 3.680652 0
M  V30 27 H 1.130105 -1.827449 1.953437 0
M  V30 28 H 3.347282 0.196699 -2.052279 0
M  V30 29 H 1.997996 2.126515 -2.554411 0
M  V30 30 H 0.045476 2.595590 -1.187825 0
M  V30 31 H -1.757497 2.754246 1.915613 0
M  V30 32 H -1.202060 3.173094 0.270427 0
M  V30 33 H -3.823509 2.550542 1.038946 0
M  V30 34 H -3.191380 2.474296 -0.654253 0
M  V30 35 H -2.684095 0.081532 -0.353869 0
M  V30 36 H -4.374972 0.543941 -0.225333 0
M  V30 37 H -3.784578 -1.019545 1.431776 0
M  V30 38 H -2.639332 1.192357 3.026899 0
M  V30 39 H -2.586971 -0.561258 3.309083 0
M  V30 40 H -0.414756 0.206605 2.725044 0
M  V30 41 H -1.011694 -0.894130 1.457118 0
M  V30 END ATOM
M  V30 BEGIN BOND
M  V30 1 1 1 2
M  V30 2 2 2 3
M  V30 3 1 3 4
M  V30 4 2 4 5
M  V30 5 1 5 6
M  V30 6 2 6 7
M  V30 7 1 7 8
M  V30 8 2 8 9
M  V30 9 1 8 10
M  V30 10 2 10 11
M  V30 11 1 11 12
M  V30 12 2 12 13
M  V30 13 1 13 14
M  V30 14 1 14 15
M  V30 15 1 15 16
M  V30 16 1 16 17
M  V30 17 1 17 18
M  V30 18 1 18 19
M  V30 19 1 19 20
M  V30 20 1 20 21
M  V30 21 2 14 22
M  V30 22 1 7 2
M  V30 23 1 22 10
M  V30 24 1 21 15
M  V30 25 1 1 23
M  V30 26 1 1 24
M  V30 27 1 4 25
M  V30 28 1 5 26
M  V30 29 1 6 27
M  V30 30 1 11 28
M  V30 31 1 12 29
M  V30 32 1 13 30
M  V30 33 1 16 31
M  V30 34 1 16 32
M  V30 35 1 17 33
M  V30 36 1 17 34
M  V30 37 1 18 35
M  V30 38 1 18 36
M  V30 39 1 19 37
M  V30 40 1 20 38
M  V30 41 1 20 39
M  V30 42 1 21 40
M  V30 43 1 21 41
M  V30 END BOND
M  V30 END CTAB
M  END
>  <Dataset>  (61) 
ChEMBL_Kinases

>  <Ligand_Instance>  (61) 
nan

>  <PDB_ID>  (61) 
nan

>  <Standardized_SMILES>  (61) 
Nc1ncccc1C(=O)c1cccc(N2CCCNCC2)n1

>  <Name>  (61) 
nan

>  <Pocket>  (61) 
nan

>  <ATP_Site>  (61) 
nan

>  <Peripheral>  (61) 
nan

>  <Num_H_Atoms_ProtBoundConf>  (61) 
nan

>  <Num_Resolved_Atoms>  (61) 
nan

>  <Num_Not_Resolved_Atoms>  (61) 
nan

$$$$
CHEMBL2046626
     RDKit          3D

  0  0  0  0  0  0  0  0  0  0999 V3000
M  V30 BEGIN CTAB
M  V30 COUNTS 38 40 0 0 0
M  V30 BEGIN ATOM
M  V30 1 N 4.001464 -3.527187 2.908915 0
M  V30 2 C 2.592776 -3.578551 2.775401 0
M  V30 3 N 2.046527 -4.693130 3.290198 0
M  V30 4 C 0.711900 -4.916777 3.254400 0
M  V30 5 C 0.007379 -3.905021 2.650769 0
M  V30 6 C 0.545712 -2.761642 2.120148 0
M  V30 7 C 1.885968 -2.565002 2.170585 0
M  V30 8 C 2.616251 -1.426956 1.664468 0
M  V30 9 O 3.873553 -1.425753 1.807191 0
M  V30 10 C 2.045296 -0.267497 0.998853 0
M  V30 11 C 2.909734 0.723093 0.584103 0
M  V30 12 C 2.465803 1.879843 -0.065829 0
M  V30 13 C 1.118628 2.067896 -0.316778 0
M  V30 14 C 0.291150 1.053818 0.114368 0
M  V30 15 N -1.099200 1.222955 -0.131676 0
M  V30 16 C -1.565226 2.419420 -0.806903 0
M  V30 17 C -2.991679 2.265268 -1.287735 0
M  V30 18 N -3.265081 0.971703 -1.827229 0
M  V30 19 C -2.819071 -0.140130 -1.054489 0
M  V30 20 C -2.158641 0.301264 0.227170 0
M  V30 21 N 0.767661 -0.019868 0.724975 0
M  V30 22 H 5.022582 -3.489922 3.004009 0
M  V30 23 H 4.338728 -3.534277 3.910781 0
M  V30 24 H 0.180700 -5.775097 3.638344 0
M  V30 25 H -1.066422 -3.995729 2.575782 0
M  V30 26 H -0.078309 -2.009229 1.659928 0
M  V30 27 H 4.001004 0.696252 0.722386 0
M  V30 28 H 3.174391 2.657493 -0.387980 0
M  V30 29 H 0.835004 2.979485 -0.821428 0
M  V30 30 H -0.954922 2.621139 -1.732180 0
M  V30 31 H -1.559119 3.307777 -0.139323 0
M  V30 32 H -3.145363 3.016401 -2.089867 0
M  V30 33 H -3.641293 2.433206 -0.403048 0
M  V30 34 H -2.953077 0.867698 -2.809891 0
M  V30 35 H -2.141335 -0.788680 -1.666137 0
M  V30 36 H -3.716090 -0.787645 -0.836479 0
M  V30 37 H -2.968028 0.832582 0.806360 0
M  V30 38 H -1.834634 -0.530331 0.850017 0
M  V30 END ATOM
M  V30 BEGIN BOND
M  V30 1 1 1 2
M  V30 2 2 2 3
M  V30 3 1 3 4
M  V30 4 2 4 5
M  V30 5 1 5 6
M  V30 6 2 6 7
M  V30 7 1 7 8
M  V30 8 2 8 9
M  V30 9 1 8 10
M  V30 10 2 10 11
M  V30 11 1 11 12
M  V30 12 2 12 13
M  V30 13 1 13 14
M  V30 14 1 14 15
M  V30 15 1 15 16
M  V30 16 1 16 17
M  V30 17 1 17 18
M  V30 18 1 18 19
M  V30 19 1 19 20
M  V30 20 2 14 21
M  V30 21 1 7 2
M  V30 22 1 21 10
M  V30 23 1 20 15
M  V30 24 1 1 22
M  V30 25 1 1 23
M  V30 26 1 4 24
M  V30 27 1 5 25
M  V30 28 1 6 26
M  V30 29 1 11 27
M  V30 30 1 12 28
M  V30 31 1 13 29
M  V30 32 1 16 30
M  V30 33 1 16 31
M  V30 34 1 17 32
M  V30 35 1 17 33
M  V30 36 1 18 34
M  V30 37 1 19 35
M  V30 38 1 19 36
M  V30 39 1 20 37
M  V30 40 1 20 38
M  V30 END BOND
M  V30 END CTAB
M  END
>  <Dataset>  (62) 
ChEMBL_Kinases

>  <Ligand_Instance>  (62) 
nan

>  <PDB_ID>  (62) 
nan

>  <Standardized_SMILES>  (62) 
Nc1ncccc1C(=O)c1cccc(N2CCNCC2)n1

>  <Name>  (62) 
nan

>  <Pocket>  (62) 
nan

>  <ATP_Site>  (62) 
nan

>  <Peripheral>  (62) 
nan

>  <Num_H_Atoms_ProtBoundConf>  (62) 
nan

>  <Num_Resolved_Atoms>  (62) 
nan

>  <Num_Not_Resolved_Atoms>  (62) 
nan

$$$$
CHEMBL2047864
     RDKit          3D

  0  0  0  0  0  0  0  0  0  0999 V3000
M  V30 BEGIN CTAB
M  V30 COUNTS 29 30 0 0 0
M  V30 BEGIN ATOM
M  V30 1 C -2.477003 -2.284887 2.035764 0
M  V30 2 C -1.533619 -2.966652 2.982973 0
M  V30 3 O -0.340402 -3.377383 2.335728 0
M  V30 4 C 0.535392 -2.523053 1.725167 0
M  V30 5 C 0.262789 -1.172140 1.769111 0
M  V30 6 C 1.095828 -0.238811 1.170034 0
M  V30 7 C 0.904672 1.208513 1.201112 0
M  V30 8 C 0.994035 1.783842 0.036753 0
M  V30 9 S 1.310573 1.122743 -1.629477 0
M  V30 10 C 0.182494 2.346820 -2.412054 0
M  V30 11 O -0.216563 1.555999 -3.288120 0
M  V30 12 N 0.405617 3.471135 -1.587421 0
M  V30 13 C 0.844179 3.181587 -0.265426 0
M  V30 14 O 1.056244 4.181048 0.501613 0
M  V30 15 C 2.248396 -0.667531 0.498740 0
M  V30 16 C 2.502464 -2.024920 0.468803 0
M  V30 17 C 1.658074 -2.963037 1.075451 0
M  V30 18 O 1.886313 -4.328912 1.062987 0
M  V30 19 H -2.919150 -1.358814 2.387464 0
M  V30 20 H -2.015514 -2.123782 1.029538 0
M  V30 21 H -3.353227 -2.975985 1.851045 0
M  V30 22 H -1.225147 -2.188084 3.721567 0
M  V30 23 H -2.049640 -3.816220 3.472785 0
M  V30 24 H -0.585963 -0.669187 2.244538 0
M  V30 25 H 0.700222 1.852687 2.057672 0
M  V30 26 H 0.163209 4.273346 -2.222252 0
M  V30 27 H 2.929518 0.008526 0.020184 0
M  V30 28 H 3.365878 -2.421552 -0.020775 0
M  V30 29 H 1.393228 -4.937694 0.425190 0
M  V30 END ATOM
M  V30 BEGIN BOND
M  V30 1 1 1 2
M  V30 2 1 2 3
M  V30 3 1 3 4
M  V30 4 2 4 5
M  V30 5 1 5 6
M  V30 6 1 6 7
M  V30 7 2 7 8
M  V30 8 1 8 9
M  V30 9 1 9 10
M  V30 10 2 10 11
M  V30 11 1 10 12
M  V30 12 1 12 13
M  V30 13 2 13 14
M  V30 14 2 6 15
M  V30 15 1 15 16
M  V30 16 2 16 17
M  V30 17 1 17 18
M  V30 18 1 17 4
M  V30 19 1 13 8
M  V30 20 1 1 19
M  V30 21 1 1 20
M  V30 22 1 1 21
M  V30 23 1 2 22
M  V30 24 1 2 23
M  V30 25 1 5 24
M  V30 26 1 7 25
M  V30 27 1 12 26
M  V30 28 1 15 27
M  V30 29 1 16 28
M  V30 30 1 18 29
M  V30 END BOND
M  V30 END CTAB
M  END
>  <Dataset>  (63) 
ChEMBL_Kinases

>  <Ligand_Instance>  (63) 
nan

>  <PDB_ID>  (63) 
nan

>  <Standardized_SMILES>  (63) 
CCOc1cc(/C=C2\SC(=O)NC2=O)ccc1O

>  <Name>  (63) 
nan

>  <Pocket>  (63) 
nan

>  <ATP_Site>  (63) 
nan

>  <Peripheral>  (63) 
nan

>  <Num_H_Atoms_ProtBoundConf>  (63) 
nan

>  <Num_Resolved_Atoms>  (63) 
nan

>  <Num_Not_Resolved_Atoms>  (63) 
nan

$$$$
CHEMBL4476724
     RDKit          3D

  0  0  0  0  0  0  0  0  0  0999 V3000
M  V30 BEGIN CTAB
M  V30 COUNTS 52 56 0 0 0
M  V30 BEGIN ATOM
M  V30 1 O -1.674019 -4.602261 -0.362638 0
M  V30 2 C -0.760365 -5.408361 -0.034983 0
M  V30 3 N 0.042613 -5.062373 1.089559 0
M  V30 4 C -0.400183 -3.813041 1.612249 0
M  V30 5 C 0.216438 -2.680711 1.072278 0
M  V30 6 C -0.177203 -1.444768 1.545102 0
M  V30 7 C 0.502531 -0.278033 0.943549 0
M  V30 8 N 1.762238 0.186104 0.860367 0
M  V30 9 C 1.749140 1.332468 0.161003 0
M  V30 10 C 3.014395 2.072683 -0.088950 0
M  V30 11 C 3.301995 3.063105 0.982379 0
M  V30 12 C 2.792404 4.353532 0.802338 0
M  V30 13 C 3.019380 5.330153 1.758096 0
M  V30 14 C 3.749791 5.035605 2.893775 0
M  V30 15 C 4.245663 3.765443 3.060735 0
M  V30 16 C 4.028105 2.786099 2.120246 0
M  V30 17 N 0.475700 1.586797 -0.194955 0
M  V30 18 C -0.333365 0.616285 0.267521 0
M  V30 19 C -1.792525 0.625530 0.032082 0
M  V30 20 C -2.544941 1.676049 0.521727 0
M  V30 21 C -3.910813 1.770064 0.351780 0
M  V30 22 C -4.530081 0.751758 -0.344916 0
M  V30 23 F -5.880284 0.732978 -0.578094 0
M  V30 24 C -3.822367 -0.318912 -0.853739 0
M  V30 25 C -2.449286 -0.376910 -0.661537 0
M  V30 26 C -1.150908 -1.329040 2.522374 0
M  V30 27 C -1.740172 -2.482041 3.033767 0
M  V30 28 N -1.355974 -3.690758 2.572053 0
M  V30 29 C -0.617881 -6.639797 -0.861316 0
M  V30 30 C -0.856246 -6.517188 -2.354235 0
M  V30 31 C -1.898681 -7.155385 -1.509988 0
M  V30 32 H 0.793340 -5.740043 1.346547 0
M  V30 33 H 0.964677 -2.769328 0.321489 0
M  V30 34 H 2.484025 -0.411838 1.338285 0
M  V30 35 H 2.959311 2.620408 -1.060799 0
M  V30 36 H 3.868959 1.377134 -0.212159 0
M  V30 37 H 2.209185 4.605625 -0.094807 0
M  V30 38 H 2.606472 6.314257 1.577791 0
M  V30 39 H 3.929931 5.791559 3.641808 0
M  V30 40 H 4.825247 3.454749 3.918642 0
M  V30 41 H 4.385850 1.779832 2.190259 0
M  V30 42 H -2.098946 2.495045 1.073248 0
M  V30 43 H -4.525394 2.578013 0.722641 0
M  V30 44 H -4.229899 -1.149653 -1.406025 0
M  V30 45 H -1.851354 -1.189221 -1.037239 0
M  V30 46 H -1.426201 -0.347861 2.860819 0
M  V30 47 H -2.508989 -2.401427 3.804557 0
M  V30 48 H 0.161218 -7.374419 -0.618325 0
M  V30 49 H -1.051836 -5.481548 -2.692960 0
M  V30 50 H -0.251875 -7.117745 -3.058290 0
M  V30 51 H -2.843150 -6.578529 -1.324688 0
M  V30 52 H -2.041332 -8.236626 -1.664731 0
M  V30 END ATOM
M  V30 BEGIN BOND
M  V30 1 2 1 2
M  V30 2 1 2 3
M  V30 3 1 3 4
M  V30 4 2 4 5
M  V30 5 1 5 6
M  V30 6 1 6 7
M  V30 7 1 7 8
M  V30 8 1 8 9
M  V30 9 1 9 10
M  V30 10 1 10 11
M  V30 11 2 11 12
M  V30 12 1 12 13
M  V30 13 2 13 14
M  V30 14 1 14 15
M  V30 15 2 15 16
M  V30 16 2 9 17
M  V30 17 1 17 18
M  V30 18 1 18 19
M  V30 19 2 19 20
M  V30 20 1 20 21
M  V30 21 2 21 22
M  V30 22 1 22 23
M  V30 23 1 22 24
M  V30 24 2 24 25
M  V30 25 2 6 26
M  V30 26 1 26 27
M  V30 27 2 27 28
M  V30 28 1 2 29
M  V30 29 1 29 30
M  V30 30 1 30 31
M  V30 31 1 28 4
M  V30 32 1 31 29
M  V30 33 2 18 7
M  V30 34 1 25 19
M  V30 35 1 16 11
M  V30 36 1 3 32
M  V30 37 1 5 33
M  V30 38 1 8 34
M  V30 39 1 10 35
M  V30 40 1 10 36
M  V30 41 1 12 37
M  V30 42 1 13 38
M  V30 43 1 14 39
M  V30 44 1 15 40
M  V30 45 1 16 41
M  V30 46 1 20 42
M  V30 47 1 21 43
M  V30 48 1 24 44
M  V30 49 1 25 45
M  V30 50 1 26 46
M  V30 51 1 27 47
M  V30 52 1 29 48
M  V30 53 1 30 49
M  V30 54 1 30 50
M  V30 55 1 31 51
M  V30 56 1 31 52
M  V30 END BOND
M  V30 END CTAB
M  END
>  <Dataset>  (64) 
ChEMBL_Kinases

>  <Ligand_Instance>  (64) 
nan

>  <PDB_ID>  (64) 
nan

>  <Standardized_SMILES>  (64) 
O=C(Nc1cc(-c2[nH]c(Cc3ccccc3)nc2-c2ccc(F)cc2)ccn1)C1CC1

>  <Name>  (64) 
nan

>  <Pocket>  (64) 
nan

>  <ATP_Site>  (64) 
nan

>  <Peripheral>  (64) 
nan

>  <Num_H_Atoms_ProtBoundConf>  (64) 
nan

>  <Num_Resolved_Atoms>  (64) 
nan

>  <Num_Not_Resolved_Atoms>  (64) 
nan

$$$$
CHEMBL4483071
     RDKit          3D

  0  0  0  0  0  0  0  0  0  0999 V3000
M  V30 BEGIN CTAB
M  V30 COUNTS 58 63 0 0 0
M  V30 BEGIN ATOM
M  V30 1 C 4.337591 -2.696508 -0.269312 0
M  V30 2 N 4.626995 -1.351926 0.184238 0
M  V30 3 C 5.998107 -1.006363 0.494951 0
M  V30 4 C 6.274073 0.449281 0.595614 0
M  V30 5 O 5.181607 1.301149 0.407860 0
M  V30 6 C 3.857833 0.900575 0.411131 0
M  V30 7 C 3.539269 -0.441342 0.299126 0
M  V30 8 C 2.219663 -0.812709 0.304905 0
M  V30 9 N 1.202651 0.082602 0.416372 0
M  V30 10 N 1.500010 1.366636 0.523751 0
M  V30 11 C 0.713883 2.459602 0.645837 0
M  V30 12 C -0.745687 2.503053 0.692827 0
M  V30 13 C -1.365101 3.729934 0.819430 0
M  V30 14 C -2.731881 3.915578 0.875465 0
M  V30 15 C -3.469209 2.753049 0.793912 0
M  V30 16 C -4.843418 2.849628 0.841976 0
M  V30 17 C -5.638907 1.722046 0.764882 0
M  V30 18 C -5.001538 0.501120 0.638390 0
M  V30 19 Cl -6.047563 -0.874484 0.545957 0
M  V30 20 C -3.633221 0.349062 0.585631 0
M  V30 21 N -2.989247 -0.896739 0.457600 0
M  V30 22 C -3.591858 -2.189007 0.361542 0
M  V30 23 C -2.607959 -3.330088 0.232166 0
M  V30 24 F -3.369580 -4.496723 0.151715 0
M  V30 25 C -1.767616 -3.232839 -1.004811 0
M  V30 26 C -0.858848 -4.417438 -1.100105 0
M  V30 27 N -0.701414 -5.112854 0.181822 0
M  V30 28 C -0.416991 -4.058974 1.166945 0
M  V30 29 C -1.783751 -3.437934 1.474245 0
M  V30 30 C -2.889578 1.507697 0.666885 0
M  V30 31 N -1.526750 1.409885 0.618691 0
M  V30 32 N 1.559363 3.530896 0.717369 0
M  V30 33 N 2.807341 3.098007 0.641180 0
M  V30 34 C 2.793293 1.773277 0.521971 0
M  V30 35 H 3.737885 -2.616073 -1.220432 0
M  V30 36 H 3.652447 -3.250443 0.423774 0
M  V30 37 H 5.271416 -3.261216 -0.455581 0
M  V30 38 H 6.242651 -1.576662 1.424122 0
M  V30 39 H 6.681340 -1.426791 -0.287373 0
M  V30 40 H 7.145391 0.773323 -0.040694 0
M  V30 41 H 6.635610 0.640764 1.641173 0
M  V30 42 H 2.097658 -1.899059 0.210139 0
M  V30 43 H -0.729520 4.625571 0.880053 0
M  V30 44 H -3.174569 4.898516 0.975485 0
M  V30 45 H -5.297603 3.825602 0.941586 0
M  V30 46 H -6.708728 1.835137 0.805655 0
M  V30 47 H -1.946301 -0.921448 0.425192 0
M  V30 48 H -4.207996 -2.217885 -0.565894 0
M  V30 49 H -4.178885 -2.413607 1.286922 0
M  V30 50 H -1.113494 -2.316323 -0.932194 0
M  V30 51 H -2.415597 -3.222109 -1.899905 0
M  V30 52 H 0.179720 -4.145963 -1.419777 0
M  V30 53 H -1.213237 -5.151574 -1.882669 0
M  V30 54 H 0.139779 -5.738881 0.073867 0
M  V30 55 H 0.194357 -3.291470 0.646709 0
M  V30 56 H 0.080296 -4.448944 2.061099 0
M  V30 57 H -1.711930 -2.443999 1.934438 0
M  V30 58 H -2.247644 -4.141467 2.201416 0
M  V30 END ATOM
M  V30 BEGIN BOND
M  V30 1 1 1 2
M  V30 2 1 2 3
M  V30 3 1 3 4
M  V30 4 1 4 5
M  V30 5 1 5 6
M  V30 6 2 6 7
M  V30 7 1 7 8
M  V30 8 2 8 9
M  V30 9 1 9 10
M  V30 10 1 10 11
M  V30 11 1 11 12
M  V30 12 2 12 13
M  V30 13 1 13 14
M  V30 14 2 14 15
M  V30 15 1 15 16
M  V30 16 2 16 17
M  V30 17 1 17 18
M  V30 18 1 18 19
M  V30 19 2 18 20
M  V30 20 1 20 21
M  V30 21 1 21 22
M  V30 22 1 22 23
M  V30 23 1 23 24
M  V30 24 1 23 25
M  V30 25 1 25 26
M  V30 26 1 26 27
M  V30 27 1 27 28
M  V30 28 1 28 29
M  V30 29 1 20 30
M  V30 30 2 30 31
M  V30 31 2 11 32
M  V30 32 1 32 33
M  V30 33 2 33 34
M  V30 34 1 7 2
M  V30 35 1 34 10
M  V30 36 1 34 6
M  V30 37 1 31 12
M  V30 38 1 30 15
M  V30 39 1 29 23
M  V30 40 1 1 35
M  V30 41 1 1 36
M  V30 42 1 1 37
M  V30 43 1 3 38
M  V30 44 1 3 39
M  V30 45 1 4 40
M  V30 46 1 4 41
M  V30 47 1 8 42
M  V30 48 1 13 43
M  V30 49 1 14 44
M  V30 50 1 16 45
M  V30 51 1 17 46
M  V30 52 1 21 47
M  V30 53 1 22 48
M  V30 54 1 22 49
M  V30 55 1 25 50
M  V30 56 1 25 51
M  V30 57 1 26 52
M  V30 58 1 26 53
M  V30 59 1 27 54
M  V30 60 1 28 55
M  V30 61 1 28 56
M  V30 62 1 29 57
M  V30 63 1 29 58
M  V30 END BOND
M  V30 END CTAB
M  END
>  <Dataset>  (65) 
ChEMBL_Kinases

>  <Ligand_Instance>  (65) 
nan

>  <PDB_ID>  (65) 
nan

>  <Standardized_SMILES>  (65) 
CN1CCOc2c1cnn1c(-c3ccc4ccc(Cl)c(NCC5(F)CCNCC5)c4n3)nnc21

>  <Name>  (65) 
nan

>  <Pocket>  (65) 
nan

>  <ATP_Site>  (65) 
nan

>  <Peripheral>  (65) 
nan

>  <Num_H_Atoms_ProtBoundConf>  (65) 
nan

>  <Num_Resolved_Atoms>  (65) 
nan

>  <Num_Not_Resolved_Atoms>  (65) 
nan

$$$$
CHEMBL4649135
     RDKit          3D

  0  0  0  0  0  0  0  0  0  0999 V3000
M  V30 BEGIN CTAB
M  V30 COUNTS 59 63 0 0 0
M  V30 BEGIN ATOM
M  V30 1 C 1.569038 -1.675800 5.784954 0
M  V30 2 C 2.542721 -2.295371 4.801815 0
M  V30 3 N 2.810845 -1.402509 3.699695 0
M  V30 4 C 3.767604 -0.477580 3.606381 0
M  V30 5 N 3.623539 0.100755 2.401893 0
M  V30 6 C 2.579309 -0.456191 1.735306 0
M  V30 7 C 2.074532 -0.173032 0.475825 0
M  V30 8 N 2.682822 0.825739 -0.304800 0
M  V30 9 C 2.263924 1.242953 -1.629435 0
M  V30 10 C 0.904146 1.870655 -1.559558 0
M  V30 11 N 0.880291 3.219342 -1.336698 0
M  V30 12 C -0.383765 3.650034 -1.298437 0
M  V30 13 C -0.996656 4.865469 -1.113082 0
M  V30 14 C -2.382513 4.954033 -1.134699 0
M  V30 15 C -3.148600 3.821220 -1.342476 0
M  V30 16 F -4.522077 3.852632 -1.373235 0
M  V30 17 C -2.572591 2.564554 -1.535629 0
M  V30 18 F -3.293606 1.434848 -1.741709 0
M  V30 19 C -1.190426 2.551871 -1.501535 0
M  V30 20 N -0.379353 1.492731 -1.655797 0
M  V30 21 N 1.031969 -0.909895 0.116508 0
M  V30 22 C 0.502540 -1.867186 0.923384 0
M  V30 23 N -0.608963 -2.681112 0.539554 0
M  V30 24 C -1.393906 -3.341348 1.601503 0
M  V30 25 C -2.829560 -3.375788 1.181334 0
M  V30 26 C -3.149144 -2.116361 0.410129 0
M  V30 27 C -2.457552 -2.238505 -0.963484 0
M  V30 28 C -1.159782 -3.014614 -0.738488 0 CFG=1
M  V30 29 C -0.273543 -2.816961 -1.913581 0
M  V30 30 C 0.989743 -3.655655 -1.846746 0
M  V30 31 O 0.571064 -4.988225 -1.800902 0
M  V30 32 N 1.028389 -2.101999 2.134720 0
M  V30 33 C 2.080578 -1.402933 2.572840 0
M  V30 34 H 0.531717 -1.929982 5.435671 0
M  V30 35 H 1.692284 -0.573009 5.848658 0
M  V30 36 H 1.674463 -2.132921 6.781713 0
M  V30 37 H 3.520773 -2.528514 5.282775 0
M  V30 38 H 2.141005 -3.259090 4.421564 0
M  V30 39 H 4.479943 -0.291886 4.390937 0
M  V30 40 H 3.515810 1.335093 0.073752 0
M  V30 41 H 2.997050 1.880488 -2.121542 0
M  V30 42 H 2.115287 0.319747 -2.245833 0
M  V30 43 H -0.414626 5.761188 -0.949417 0
M  V30 44 H -2.931283 5.866141 -0.997924 0
M  V30 45 H -0.561602 0.497661 -1.825504 0
M  V30 46 H -1.003318 -4.364074 1.780556 0
M  V30 47 H -1.347577 -2.722511 2.536043 0
M  V30 48 H -3.461826 -3.372809 2.099576 0
M  V30 49 H -3.045574 -4.261057 0.541370 0
M  V30 50 H -2.723506 -1.242212 0.914074 0
M  V30 51 H -4.234105 -2.043958 0.185973 0
M  V30 52 H -2.196197 -1.229444 -1.301032 0
M  V30 53 H -3.071908 -2.823890 -1.659993 0
M  V30 54 H -1.447447 -4.103850 -0.730626 0
M  V30 55 H -0.852309 -3.195307 -2.807918 0
M  V30 56 H -0.015130 -1.785779 -2.166046 0
M  V30 57 H 1.583965 -3.402187 -0.948102 0
M  V30 58 H 1.607252 -3.452891 -2.731527 0
M  V30 59 H 0.954711 -5.415654 -0.993198 0
M  V30 END ATOM
M  V30 BEGIN BOND
M  V30 1 1 1 2
M  V30 2 1 2 3
M  V30 3 1 3 4
M  V30 4 2 4 5
M  V30 5 1 5 6
M  V30 6 2 6 7
M  V30 7 1 7 8
M  V30 8 1 8 9
M  V30 9 1 9 10
M  V30 10 2 10 11
M  V30 11 1 11 12
M  V30 12 2 12 13
M  V30 13 1 13 14
M  V30 14 2 14 15
M  V30 15 1 15 16
M  V30 16 1 15 17
M  V30 17 1 17 18
M  V30 18 2 17 19
M  V30 19 1 19 20
M  V30 20 1 7 21
M  V30 21 2 21 22
M  V30 22 1 22 23
M  V30 23 1 23 24
M  V30 24 1 24 25
M  V30 25 1 25 26
M  V30 26 1 26 27
M  V30 27 1 27 28
M  V30 28 1 28 29
M  V30 29 1 29 30
M  V30 30 1 30 31
M  V30 31 1 22 32
M  V30 32 2 32 33
M  V30 33 1 33 3
M  V30 34 1 33 6
M  V30 35 1 20 10
M  V30 36 1 28 23
M  V30 37 1 19 12
M  V30 38 1 1 34
M  V30 39 1 1 35
M  V30 40 1 1 36
M  V30 41 1 2 37
M  V30 42 1 2 38
M  V30 43 1 4 39
M  V30 44 1 8 40
M  V30 45 1 9 41
M  V30 46 1 9 42
M  V30 47 1 13 43
M  V30 48 1 14 44
M  V30 49 1 20 45
M  V30 50 1 24 46
M  V30 51 1 24 47
M  V30 52 1 25 48
M  V30 53 1 25 49
M  V30 54 1 26 50
M  V30 55 1 26 51
M  V30 56 1 27 52
M  V30 57 1 27 53
M  V30 58 1 28 54 CFG=1
M  V30 59 1 29 55
M  V30 60 1 29 56
M  V30 61 1 30 57
M  V30 62 1 30 58
M  V30 63 1 31 59
M  V30 END BOND
M  V30 END CTAB
M  END
>  <Dataset>  (66) 
ChEMBL_Kinases

>  <Ligand_Instance>  (66) 
nan

>  <PDB_ID>  (66) 
nan

>  <Standardized_SMILES>  (66) 
CCn1cnc2c(NCc3nc4ccc(F)c(F)c4[nH]3)nc(N3CCCC[C@H]3CCO)nc21

>  <Name>  (66) 
nan

>  <Pocket>  (66) 
nan

>  <ATP_Site>  (66) 
nan

>  <Peripheral>  (66) 
nan

>  <Num_H_Atoms_ProtBoundConf>  (66) 
nan

>  <Num_Resolved_Atoms>  (66) 
nan

>  <Num_Not_Resolved_Atoms>  (66) 
nan

$$$$
CHEMBL2334966
     RDKit          3D

  0  0  0  0  0  0  0  0  0  0999 V3000
M  V30 BEGIN CTAB
M  V30 COUNTS 27 29 0 0 0
M  V30 BEGIN ATOM
M  V30 1 N -0.200484 -5.732829 1.125152 0
M  V30 2 C -0.017530 -4.651402 1.502787 0
M  V30 3 C 0.205321 -3.323236 1.988877 0
M  V30 4 C 0.338152 -3.107299 3.346856 0
M  V30 5 C 0.554328 -1.847972 3.872328 0
M  V30 6 C 0.640448 -0.761374 2.996349 0
M  V30 7 C 0.845242 0.585953 3.207808 0
M  V30 8 C 0.827125 1.146731 1.927386 0
M  V30 9 N 0.621316 0.157125 1.038705 0
M  V30 10 C 0.564117 0.498355 -0.351685 0
M  V30 11 C 1.564658 0.526785 -1.306127 0
M  V30 12 C 1.217685 0.898086 -2.581485 0
M  V30 13 N -0.040695 1.223254 -2.902141 0
M  V30 14 C -1.012492 1.196229 -1.977597 0
M  V30 15 N -2.355708 1.549124 -2.344365 0
M  V30 16 N -0.707522 0.836449 -0.715757 0
M  V30 17 C 0.500398 -1.035430 1.650624 0
M  V30 18 C 0.285544 -2.267950 1.092939 0
M  V30 19 H 0.271925 -3.955905 4.044576 0
M  V30 20 H 0.664939 -1.629456 4.931276 0
M  V30 21 H 0.984850 1.060130 4.176247 0
M  V30 22 H 0.965722 2.210379 1.788690 0
M  V30 23 H 2.514834 0.240236 -0.891114 0
M  V30 24 H 2.062949 0.896687 -3.280751 0
M  V30 25 H -3.130349 0.970623 -2.782546 0
M  V30 26 H -2.505641 2.569790 -2.100882 0
M  V30 27 H 0.186529 -2.397445 0.022084 0
M  V30 END ATOM
M  V30 BEGIN BOND
M  V30 1 3 1 2
M  V30 2 1 2 3
M  V30 3 2 3 4
M  V30 4 1 4 5
M  V30 5 2 5 6
M  V30 6 1 6 7
M  V30 7 2 7 8
M  V30 8 1 8 9
M  V30 9 1 9 10
M  V30 10 2 10 11
M  V30 11 1 11 12
M  V30 12 2 12 13
M  V30 13 1 13 14
M  V30 14 1 14 15
M  V30 15 2 14 16
M  V30 16 1 9 17
M  V30 17 2 17 18
M  V30 18 1 18 3
M  V30 19 1 17 6
M  V30 20 1 16 10
M  V30 21 1 4 19
M  V30 22 1 5 20
M  V30 23 1 7 21
M  V30 24 1 8 22
M  V30 25 1 11 23
M  V30 26 1 12 24
M  V30 27 1 15 25
M  V30 28 1 15 26
M  V30 29 1 18 27
M  V30 END BOND
M  V30 END CTAB
M  END
>  <Dataset>  (67) 
ChEMBL_Kinases

>  <Ligand_Instance>  (67) 
nan

>  <PDB_ID>  (67) 
nan

>  <Standardized_SMILES>  (67) 
N#Cc1ccc2ccn(-c3ccnc(N)n3)c2c1

>  <Name>  (67) 
nan

>  <Pocket>  (67) 
nan

>  <ATP_Site>  (67) 
nan

>  <Peripheral>  (67) 
nan

>  <Num_H_Atoms_ProtBoundConf>  (67) 
nan

>  <Num_Resolved_Atoms>  (67) 
nan

>  <Num_Not_Resolved_Atoms>  (67) 
nan

$$$$
CHEMBL4648947
     RDKit          3D

  0  0  0  0  0  0  0  0  0  0999 V3000
M  V30 BEGIN CTAB
M  V30 COUNTS 72 76 0 0 0
M  V30 BEGIN ATOM
M  V30 1 C 3.399987 -0.368961 2.292445 0
M  V30 2 C 4.061166 -1.364893 1.330819 0
M  V30 3 C 3.344797 -1.192571 0.009865 0
M  V30 4 C 1.916312 -1.553888 0.483134 0
M  V30 5 N 3.410306 0.175532 -0.376084 0
M  V30 6 C 4.766111 0.676270 -0.461643 0
M  V30 7 C 5.702365 -0.285503 -0.762961 0
M  V30 8 C 7.051572 -0.080292 -0.893111 0
M  V30 9 C 7.484607 1.226095 -0.698020 0
M  V30 10 C 6.590067 2.254627 -0.389394 0
M  V30 11 C 5.230062 1.987303 -0.269639 0
M  V30 12 C 4.451460 3.180192 0.053608 0
M  V30 13 O 5.099188 4.209107 0.370427 0
M  V30 14 N 3.009723 3.284100 0.042523 0
M  V30 15 C 2.449593 4.495976 0.571587 0
M  V30 16 C 2.075572 2.312191 -0.442883 0
M  V30 17 C 0.863188 2.865448 -0.748402 0
M  V30 18 N -0.059976 2.033104 -1.222079 0
M  V30 19 C 0.106475 0.702983 -1.421911 0
M  V30 20 N -1.108711 0.170179 -1.933520 0
M  V30 21 C -2.102700 -0.697162 -1.434480 0
M  V30 22 C -1.796523 -1.251842 -0.186534 0
M  V30 23 C -2.615507 -2.148996 0.476417 0
M  V30 24 C -3.801394 -2.487587 -0.175060 0
M  V30 25 N -4.671462 -3.423507 0.448963 0
M  V30 26 C -6.130414 -3.580412 0.310556 0
M  V30 27 C -6.678510 -3.458861 1.739717 0
M  V30 28 N -5.628175 -2.998059 2.644036 0
M  V30 29 C -6.183051 -2.656135 3.915057 0
M  V30 30 C -4.578697 -3.995320 2.763320 0
M  V30 31 C -4.203673 -4.459221 1.376035 0
M  V30 32 C -4.103095 -1.941536 -1.400999 0
M  V30 33 C -3.279000 -1.052795 -2.046009 0
M  V30 34 O -3.479470 -0.443706 -3.272874 0
M  V30 35 C -4.580908 -0.619765 -4.110624 0
M  V30 36 N 1.294645 0.148493 -1.124680 0
M  V30 37 C 2.255554 0.962870 -0.640649 0
M  V30 38 H 2.939482 0.481720 1.747650 0
M  V30 39 H 2.675196 -0.850114 2.965432 0
M  V30 40 H 4.172777 0.109911 2.958479 0
M  V30 41 H 3.792937 -2.385153 1.711523 0
M  V30 42 H 5.100251 -1.244013 1.422413 0
M  V30 43 H 3.495756 -1.962510 -0.732331 0
M  V30 44 H 1.463346 -0.732368 1.043951 0
M  V30 45 H 1.302476 -2.022146 -0.300663 0
M  V30 46 H 1.942256 -2.396624 1.247040 0
M  V30 47 H 5.315326 -1.267002 -0.908146 0
M  V30 48 H 7.732931 -0.887720 -1.130767 0
M  V30 49 H 8.550314 1.460880 -0.786330 0
M  V30 50 H 6.948357 3.281093 -0.239367 0
M  V30 51 H 1.597842 4.344365 1.270275 0
M  V30 52 H 2.265861 5.277736 -0.195679 0
M  V30 53 H 3.245438 4.950114 1.220635 0
M  V30 54 H 0.773062 3.917016 -0.576714 0
M  V30 55 H -1.327754 0.494990 -2.923737 0
M  V30 56 H -0.893701 -1.015148 0.353706 0
M  V30 57 H -2.363227 -2.569828 1.438931 0
M  V30 58 H -6.552429 -2.798417 -0.321947 0
M  V30 59 H -6.415856 -4.546601 -0.103937 0
M  V30 60 H -7.464428 -2.696983 1.730577 0
M  V30 61 H -7.103323 -4.433186 2.085271 0
M  V30 62 H -6.977401 -3.332041 4.267938 0
M  V30 63 H -6.566472 -1.596230 3.917971 0
M  V30 64 H -5.355822 -2.645881 4.684859 0
M  V30 65 H -3.681075 -3.540183 3.221588 0
M  V30 66 H -4.871251 -4.830707 3.431848 0
M  V30 67 H -4.634138 -5.455200 1.126074 0
M  V30 68 H -3.100506 -4.513726 1.294576 0
M  V30 69 H -5.010082 -2.190611 -1.916241 0
M  V30 70 H -4.389282 -1.364523 -4.922463 0
M  V30 71 H -5.447679 -0.963101 -3.483383 0
M  V30 72 H -4.838391 0.380603 -4.545355 0
M  V30 END ATOM
M  V30 BEGIN BOND
M  V30 1 1 1 2
M  V30 2 1 2 3
M  V30 3 1 3 4
M  V30 4 1 3 5
M  V30 5 1 5 6
M  V30 6 2 6 7
M  V30 7 1 7 8
M  V30 8 2 8 9
M  V30 9 1 9 10
M  V30 10 2 10 11
M  V30 11 1 11 12
M  V30 12 2 12 13
M  V30 13 1 12 14
M  V30 14 1 14 15
M  V30 15 1 14 16
M  V30 16 2 16 17
M  V30 17 1 17 18
M  V30 18 2 18 19
M  V30 19 1 19 20
M  V30 20 1 20 21
M  V30 21 2 21 22
M  V30 22 1 22 23
M  V30 23 2 23 24
M  V30 24 1 24 25
M  V30 25 1 25 26
M  V30 26 1 26 27
M  V30 27 1 27 28
M  V30 28 1 28 29
M  V30 29 1 28 30
M  V30 30 1 30 31
M  V30 31 1 24 32
M  V30 32 2 32 33
M  V30 33 1 33 34
M  V30 34 1 34 35
M  V30 35 1 19 36
M  V30 36 2 36 37
M  V30 37 1 37 5
M  V30 38 1 11 6
M  V30 39 1 37 16
M  V30 40 1 33 21
M  V30 41 1 31 25
M  V30 42 1 1 38
M  V30 43 1 1 39
M  V30 44 1 1 40
M  V30 45 1 2 41
M  V30 46 1 2 42
M  V30 47 1 3 43
M  V30 48 1 4 44
M  V30 49 1 4 45
M  V30 50 1 4 46
M  V30 51 1 7 47
M  V30 52 1 8 48
M  V30 53 1 9 49
M  V30 54 1 10 50
M  V30 55 1 15 51
M  V30 56 1 15 52
M  V30 57 1 15 53
M  V30 58 1 17 54
M  V30 59 1 20 55
M  V30 60 1 22 56
M  V30 61 1 23 57
M  V30 62 1 26 58
M  V30 63 1 26 59
M  V30 64 1 27 60
M  V30 65 1 27 61
M  V30 66 1 29 62
M  V30 67 1 29 63
M  V30 68 1 29 64
M  V30 69 1 30 65
M  V30 70 1 30 66
M  V30 71 1 31 67
M  V30 72 1 31 68
M  V30 73 1 32 69
M  V30 74 1 35 70
M  V30 75 1 35 71
M  V30 76 1 35 72
M  V30 END BOND
M  V30 END CTAB
M  END
>  <Dataset>  (68) 
ChEMBL_Kinases

>  <Ligand_Instance>  (68) 
nan

>  <PDB_ID>  (68) 
nan

>  <Standardized_SMILES>  (68) 
CCC(C)N1c2ccccc2C(=O)N(C)c2cnc(Nc3ccc(N4CCN(C)CC4)cc3OC)nc21

>  <Name>  (68) 
nan

>  <Pocket>  (68) 
nan

>  <ATP_Site>  (68) 
nan

>  <Peripheral>  (68) 
nan

>  <Num_H_Atoms_ProtBoundConf>  (68) 
nan

>  <Num_Resolved_Atoms>  (68) 
nan

>  <Num_Not_Resolved_Atoms>  (68) 
nan

$$$$
CHEMBL2334965
     RDKit          3D

  0  0  0  0  0  0  0  0  0  0999 V3000
M  V30 BEGIN CTAB
M  V30 COUNTS 26 28 0 0 0
M  V30 BEGIN ATOM
M  V30 1 N 0.340864 -4.335483 3.098576 0
M  V30 2 C -0.013927 -2.958774 2.957489 0
M  V30 3 N -0.901515 -2.399534 3.792760 0
M  V30 4 C -1.230176 -1.101983 3.652931 0
M  V30 5 C -0.675883 -0.325873 2.667826 0
M  V30 6 C 0.246816 -0.917168 1.803607 0
M  V30 7 N 0.945965 -0.305113 0.712146 0
M  V30 8 C 2.268069 -0.331629 0.471637 0
M  V30 9 C 2.493550 0.390090 -0.687924 0
M  V30 10 C 1.260640 0.832369 -1.106749 0
M  V30 11 C 0.870351 1.592576 -2.194514 0
M  V30 12 C -0.472227 1.906977 -2.393014 0
M  V30 13 C -1.451275 1.472871 -1.516079 0
M  V30 14 Br -3.304137 1.874956 -1.741059 0
M  V30 15 C -1.039464 0.720167 -0.444443 0
M  V30 16 C 0.271140 0.393789 -0.220687 0
M  V30 17 N 0.536141 -2.226906 1.995680 0
M  V30 18 H 0.532609 -4.887244 3.957339 0
M  V30 19 H 0.420467 -4.871980 2.203604 0
M  V30 20 H -1.937831 -0.567482 4.282363 0
M  V30 21 H -0.847525 0.715865 2.444847 0
M  V30 22 H 3.004828 -0.839060 1.096405 0
M  V30 23 H 3.462852 0.569407 -1.170403 0
M  V30 24 H 1.582734 1.975238 -2.935470 0
M  V30 25 H -0.772957 2.510016 -3.257752 0
M  V30 26 H -1.814152 0.376979 0.249029 0
M  V30 END ATOM
M  V30 BEGIN BOND
M  V30 1 1 1 2
M  V30 2 2 2 3
M  V30 3 1 3 4
M  V30 4 2 4 5
M  V30 5 1 5 6
M  V30 6 1 6 7
M  V30 7 1 7 8
M  V30 8 2 8 9
M  V30 9 1 9 10
M  V30 10 2 10 11
M  V30 11 1 11 12
M  V30 12 2 12 13
M  V30 13 1 13 14
M  V30 14 1 13 15
M  V30 15 2 15 16
M  V30 16 2 6 17
M  V30 17 1 17 2
M  V30 18 1 16 7
M  V30 19 1 16 10
M  V30 20 1 1 18
M  V30 21 1 1 19
M  V30 22 1 4 20
M  V30 23 1 5 21
M  V30 24 1 8 22
M  V30 25 1 9 23
M  V30 26 1 11 24
M  V30 27 1 12 25
M  V30 28 1 15 26
M  V30 END BOND
M  V30 END CTAB
M  END
>  <Dataset>  (69) 
ChEMBL_Kinases

>  <Ligand_Instance>  (69) 
nan

>  <PDB_ID>  (69) 
nan

>  <Standardized_SMILES>  (69) 
Nc1nccc(-n2ccc3ccc(Br)cc32)n1

>  <Name>  (69) 
nan

>  <Pocket>  (69) 
nan

>  <ATP_Site>  (69) 
nan

>  <Peripheral>  (69) 
nan

>  <Num_H_Atoms_ProtBoundConf>  (69) 
nan

>  <Num_Resolved_Atoms>  (69) 
nan

>  <Num_Not_Resolved_Atoms>  (69) 
nan

$$$$
CHEMBL2334964
     RDKit          3D

  0  0  0  0  0  0  0  0  0  0999 V3000
M  V30 BEGIN CTAB
M  V30 COUNTS 26 28 0 0 0
M  V30 BEGIN ATOM
M  V30 1 N -1.976000 -3.215025 3.751134 0
M  V30 2 C -0.829578 -2.456638 3.376345 0
M  V30 3 N 0.209914 -2.187112 4.187775 0
M  V30 4 C 1.255669 -1.449743 3.720388 0
M  V30 5 C 1.186463 -1.012640 2.413430 0
M  V30 6 C 0.130229 -1.277457 1.564024 0
M  V30 7 N 0.073961 -0.819127 0.217974 0
M  V30 8 C -0.307869 -1.651327 -0.774879 0
M  V30 9 C -0.285157 -0.994084 -1.970784 0
M  V30 10 C 0.121712 0.287865 -1.728838 0
M  V30 11 C 0.354836 1.448168 -2.469473 0
M  V30 12 C 0.781380 2.636964 -1.895515 0
M  V30 13 C 0.969626 2.622236 -0.528394 0
M  V30 14 Cl 1.510163 4.126998 0.202587 0
M  V30 15 C 0.762845 1.528110 0.262644 0
M  V30 16 C 0.338052 0.369418 -0.361042 0
M  V30 17 N -0.884507 -2.021094 2.095015 0
M  V30 18 H -1.720006 -4.205215 3.516507 0
M  V30 19 H -2.934866 -3.127078 4.158623 0
M  V30 20 H 2.099982 -1.225113 4.363727 0
M  V30 21 H 2.027543 -0.420766 2.040785 0
M  V30 22 H -0.600458 -2.689268 -0.709225 0
M  V30 23 H -0.534691 -1.370495 -2.965351 0
M  V30 24 H 0.161962 1.299848 -3.532780 0
M  V30 25 H 0.932488 3.472294 -2.547488 0
M  V30 26 H 0.932264 1.593350 1.330953 0
M  V30 END ATOM
M  V30 BEGIN BOND
M  V30 1 1 1 2
M  V30 2 2 2 3
M  V30 3 1 3 4
M  V30 4 2 4 5
M  V30 5 1 5 6
M  V30 6 1 6 7
M  V30 7 1 7 8
M  V30 8 2 8 9
M  V30 9 1 9 10
M  V30 10 2 10 11
M  V30 11 1 11 12
M  V30 12 2 12 13
M  V30 13 1 13 14
M  V30 14 1 13 15
M  V30 15 2 15 16
M  V30 16 2 6 17
M  V30 17 1 17 2
M  V30 18 1 16 7
M  V30 19 1 16 10
M  V30 20 1 1 18
M  V30 21 1 1 19
M  V30 22 1 4 20
M  V30 23 1 5 21
M  V30 24 1 8 22
M  V30 25 1 9 23
M  V30 26 1 11 24
M  V30 27 1 12 25
M  V30 28 1 15 26
M  V30 END BOND
M  V30 END CTAB
M  END
>  <Dataset>  (70) 
ChEMBL_Kinases

>  <Ligand_Instance>  (70) 
nan

>  <PDB_ID>  (70) 
nan

>  <Standardized_SMILES>  (70) 
Nc1nccc(-n2ccc3ccc(Cl)cc32)n1

>  <Name>  (70) 
nan

>  <Pocket>  (70) 
nan

>  <ATP_Site>  (70) 
nan

>  <Peripheral>  (70) 
nan

>  <Num_H_Atoms_ProtBoundConf>  (70) 
nan

>  <Num_Resolved_Atoms>  (70) 
nan

>  <Num_Not_Resolved_Atoms>  (70) 
nan

$$$$
CHEMBL4513257
     RDKit          3D

  0  0  0  0  0  0  0  0  0  0999 V3000
M  V30 BEGIN CTAB
M  V30 COUNTS 50 54 0 0 0
M  V30 BEGIN ATOM
M  V30 1 N 5.226353 -2.673471 -0.944603 0
M  V30 2 C 3.905659 -3.257380 -0.847356 0
M  V30 3 C 2.904119 -2.226879 -0.458767 0
M  V30 4 C 2.698369 -2.064401 0.904840 0
M  V30 5 C 1.787706 -1.131780 1.363307 0
M  V30 6 C 1.100425 -0.377689 0.396946 0
M  V30 7 N 0.135214 0.532140 0.841162 0
M  V30 8 C 0.152479 1.812538 1.170664 0
M  V30 9 C 1.198331 2.794812 1.201747 0
M  V30 10 C 0.877436 4.076169 1.604319 0
M  V30 11 C 1.767041 5.103711 1.680852 0
M  V30 12 C 3.085559 4.952361 1.358283 0
M  V30 13 N 3.424946 3.700518 0.959421 0
M  V30 14 C 2.526583 2.733907 0.900638 0
M  V30 15 N 3.112678 1.540167 0.463896 0
M  V30 16 N -1.100233 2.086358 1.510957 0
M  V30 17 C -1.873307 1.013259 1.397708 0
M  V30 18 C -3.240571 0.953874 1.675878 0
M  V30 19 C -3.854424 -0.271995 1.488695 0
M  V30 20 C -3.053477 -1.301166 1.048885 0
M  V30 21 C -3.645643 -2.615226 0.834397 0
M  V30 22 C -4.968201 -2.946735 1.032135 0
M  V30 23 C -5.491250 -4.195936 0.819736 0
M  V30 24 C -4.675216 -5.215782 0.379483 0
M  V30 25 C -3.348526 -4.973326 0.157711 0
M  V30 26 C -2.893045 -3.696938 0.391683 0
M  V30 27 N -1.739989 -1.180806 0.798117 0
M  V30 28 C -1.083819 -0.024339 0.958127 0
M  V30 29 C 1.302528 -0.535555 -0.987897 0
M  V30 30 C 2.217510 -1.473818 -1.416069 0
M  V30 31 H 5.236214 -1.707572 -0.540850 0
M  V30 32 H 5.541274 -2.568105 -1.936504 0
M  V30 33 H 3.872078 -4.138601 -0.175286 0
M  V30 34 H 3.632647 -3.619364 -1.861905 0
M  V30 35 H 3.227039 -2.643362 1.621896 0
M  V30 36 H 1.571514 -0.946150 2.406010 0
M  V30 37 H -0.152046 4.350493 1.896816 0
M  V30 38 H 1.434653 6.064616 2.002437 0
M  V30 39 H 3.744552 5.797282 1.436797 0
M  V30 40 H 3.902785 0.956444 0.849457 0
M  V30 41 H 3.820032 0.791053 0.593794 0
M  V30 42 H -3.773247 1.829873 2.018264 0
M  V30 43 H -4.906518 -0.338694 1.697288 0
M  V30 44 H -5.647702 -2.183470 1.376393 0
M  V30 45 H -6.540744 -4.397977 0.992517 0
M  V30 46 H -5.121659 -6.183418 0.223821 0
M  V30 47 H -2.708607 -5.749493 -0.181343 0
M  V30 48 H -1.823093 -3.548152 0.200687 0
M  V30 49 H 0.733863 0.083857 -1.666739 0
M  V30 50 H 2.403254 -1.627289 -2.469182 0
M  V30 END ATOM
M  V30 BEGIN BOND
M  V30 1 1 1 2
M  V30 2 1 2 3
M  V30 3 2 3 4
M  V30 4 1 4 5
M  V30 5 2 5 6
M  V30 6 1 6 7
M  V30 7 1 7 8
M  V30 8 1 8 9
M  V30 9 2 9 10
M  V30 10 1 10 11
M  V30 11 2 11 12
M  V30 12 1 12 13
M  V30 13 2 13 14
M  V30 14 1 14 15
M  V30 15 2 8 16
M  V30 16 1 16 17
M  V30 17 2 17 18
M  V30 18 1 18 19
M  V30 19 2 19 20
M  V30 20 1 20 21
M  V30 21 2 21 22
M  V30 22 1 22 23
M  V30 23 2 23 24
M  V30 24 1 24 25
M  V30 25 2 25 26
M  V30 26 1 20 27
M  V30 27 2 27 28
M  V30 28 1 6 29
M  V30 29 2 29 30
M  V30 30 1 30 3
M  V30 31 1 28 7
M  V30 32 1 14 9
M  V30 33 1 28 17
M  V30 34 1 26 21
M  V30 35 1 1 31
M  V30 36 1 1 32
M  V30 37 1 2 33
M  V30 38 1 2 34
M  V30 39 1 4 35
M  V30 40 1 5 36
M  V30 41 1 10 37
M  V30 42 1 11 38
M  V30 43 1 12 39
M  V30 44 1 15 40
M  V30 45 1 15 41
M  V30 46 1 18 42
M  V30 47 1 19 43
M  V30 48 1 22 44
M  V30 49 1 23 45
M  V30 50 1 24 46
M  V30 51 1 25 47
M  V30 52 1 26 48
M  V30 53 1 29 49
M  V30 54 1 30 50
M  V30 END BOND
M  V30 END CTAB
M  END
>  <Dataset>  (71) 
ChEMBL_Kinases

>  <Ligand_Instance>  (71) 
nan

>  <PDB_ID>  (71) 
nan

>  <Standardized_SMILES>  (71) 
NCc1ccc(-n2c(-c3cccnc3N)nc3ccc(-c4ccccc4)nc32)cc1

>  <Name>  (71) 
nan

>  <Pocket>  (71) 
nan

>  <ATP_Site>  (71) 
nan

>  <Peripheral>  (71) 
nan

>  <Num_H_Atoms_ProtBoundConf>  (71) 
nan

>  <Num_Resolved_Atoms>  (71) 
nan

>  <Num_Not_Resolved_Atoms>  (71) 
nan

$$$$
CHEMBL2048859
     RDKit          3D

  0  0  0  0  0  0  0  0  0  0999 V3000
M  V30 BEGIN CTAB
M  V30 COUNTS 41 43 0 0 0
M  V30 BEGIN ATOM
M  V30 1 C -1.773895 -3.451241 1.068987 0
M  V30 2 N -0.387342 -3.657125 0.829051 0
M  V30 3 C 0.315177 -4.317601 1.904265 0
M  V30 4 C 0.332697 -2.597413 0.221747 0
M  V30 5 C -0.246789 -2.274892 -1.139175 0
M  V30 6 C 0.315169 -0.900692 -1.376594 0
M  V30 7 N 0.796691 -0.378430 -0.114052 0
M  V30 8 C 1.710447 0.706746 -0.048568 0
M  V30 9 C 2.488085 1.038946 -1.136440 0
M  V30 10 C 3.443065 2.009383 -1.135693 0
M  V30 11 C 3.690485 2.737878 -0.002116 0
M  V30 12 C 2.920868 2.433587 1.126404 0
M  V30 13 C 1.971115 1.444807 1.064574 0
M  V30 14 C 1.208368 1.328614 2.275032 0
M  V30 15 C -0.104657 1.516104 2.223916 0
M  V30 16 S -1.244967 1.920646 0.870216 0
M  V30 17 C -2.719649 1.301161 1.722707 0
M  V30 18 O -3.794978 0.952341 1.172746 0
M  V30 19 N -2.367645 1.310235 3.100530 0
M  V30 20 C -1.002380 1.422068 3.386653 0
M  V30 21 O -0.563267 1.441369 4.588400 0
M  V30 22 C 0.173791 -1.243299 0.899281 0
M  V30 23 H -2.116079 -4.315880 1.715597 0
M  V30 24 H -2.032465 -2.535629 1.637965 0
M  V30 25 H -2.335181 -3.570945 0.132293 0
M  V30 26 H -0.046365 -5.368081 2.050821 0
M  V30 27 H 1.376866 -4.421786 1.594685 0
M  V30 28 H 0.261674 -3.728196 2.858997 0
M  V30 29 H 1.413658 -2.785942 0.176291 0
M  V30 30 H 0.136599 -3.030365 -1.850290 0
M  V30 31 H -1.354542 -2.273781 -1.078585 0
M  V30 32 H -0.483549 -0.270790 -1.818141 0
M  V30 33 H 1.119238 -1.027640 -2.136380 0
M  V30 34 H 2.397098 0.540162 -2.102968 0
M  V30 35 H 4.052240 2.262644 -2.003236 0
M  V30 36 H 4.446136 3.510382 0.013607 0
M  V30 37 H 3.145149 3.028750 1.999855 0
M  V30 38 H 1.680046 1.094794 3.209723 0
M  V30 39 H -3.141124 1.233383 3.796412 0
M  V30 40 H -0.872833 -0.992176 1.022334 0
M  V30 41 H 0.745880 -1.188143 1.834228 0
M  V30 END ATOM
M  V30 BEGIN BOND
M  V30 1 1 1 2
M  V30 2 1 2 3
M  V30 3 1 2 4
M  V30 4 1 4 5
M  V30 5 1 5 6
M  V30 6 1 6 7
M  V30 7 1 7 8
M  V30 8 2 8 9
M  V30 9 1 9 10
M  V30 10 2 10 11
M  V30 11 1 11 12
M  V30 12 2 12 13
M  V30 13 1 13 14
M  V30 14 2 14 15
M  V30 15 1 15 16
M  V30 16 1 16 17
M  V30 17 2 17 18
M  V30 18 1 17 19
M  V30 19 1 19 20
M  V30 20 2 20 21
M  V30 21 1 7 22
M  V30 22 1 22 4
M  V30 23 1 13 8
M  V30 24 1 20 15
M  V30 25 1 1 23
M  V30 26 1 1 24
M  V30 27 1 1 25
M  V30 28 1 3 26
M  V30 29 1 3 27
M  V30 30 1 3 28
M  V30 31 1 4 29
M  V30 32 1 5 30
M  V30 33 1 5 31
M  V30 34 1 6 32
M  V30 35 1 6 33
M  V30 36 1 9 34
M  V30 37 1 10 35
M  V30 38 1 11 36
M  V30 39 1 12 37
M  V30 40 1 14 38
M  V30 41 1 19 39
M  V30 42 1 22 40
M  V30 43 1 22 41
M  V30 END BOND
M  V30 END CTAB
M  END
>  <Dataset>  (72) 
ChEMBL_Kinases

>  <Ligand_Instance>  (72) 
nan

>  <PDB_ID>  (72) 
nan

>  <Standardized_SMILES>  (72) 
CN(C)C1CCN(c2ccccc2/C=C2\SC(=O)NC2=O)C1

>  <Name>  (72) 
nan

>  <Pocket>  (72) 
nan

>  <ATP_Site>  (72) 
nan

>  <Peripheral>  (72) 
nan

>  <Num_H_Atoms_ProtBoundConf>  (72) 
nan

>  <Num_Resolved_Atoms>  (72) 
nan

>  <Num_Not_Resolved_Atoms>  (72) 
nan

$$$$
CHEMBL2048861
     RDKit          3D

  0  0  0  0  0  0  0  0  0  0999 V3000
M  V30 BEGIN CTAB
M  V30 COUNTS 35 37 0 0 0
M  V30 BEGIN ATOM
M  V30 1 O 1.225243 -5.137062 3.744638 0
M  V30 2 C 1.841668 -4.173265 3.186243 0
M  V30 3 N 2.785292 -3.200082 3.624410 0
M  V30 4 C 2.952646 -2.085389 2.811764 0
M  V30 5 O 3.767386 -1.157029 3.106872 0
M  V30 6 C 2.124892 -2.053164 1.592181 0
M  V30 7 C 1.865536 -0.953113 0.851775 0
M  V30 8 C 1.024671 -1.224830 -0.289811 0
M  V30 9 C 1.142775 -2.308169 -1.135150 0
M  V30 10 C 0.338066 -2.578317 -2.199007 0
M  V30 11 C -0.691076 -1.700561 -2.468608 0
M  V30 12 C -0.857115 -0.600820 -1.658584 0
M  V30 13 C -0.008261 -0.352523 -0.568910 0
M  V30 14 N -0.319059 0.841068 0.170355 0
M  V30 15 C -0.554141 0.970394 1.591599 0
M  V30 16 C -1.970906 1.460902 1.877674 0
M  V30 17 N -2.113582 2.724707 1.144218 0
M  V30 18 C -1.942774 2.469409 -0.292045 0
M  V30 19 C -0.469111 2.166093 -0.479391 0
M  V30 20 S 1.602727 -3.783047 1.432542 0
M  V30 21 H 3.279936 -3.413289 4.532218 0
M  V30 22 H 2.279929 -0.004002 1.148333 0
M  V30 23 H 1.947338 -3.008405 -0.945864 0
M  V30 24 H 0.509618 -3.462937 -2.813746 0
M  V30 25 H -1.306889 -1.957644 -3.324457 0
M  V30 26 H -1.702283 -0.008800 -1.995541 0
M  V30 27 H -0.254581 0.145663 2.217671 0
M  V30 28 H 0.074953 1.837839 1.963889 0
M  V30 29 H -1.961627 1.751148 2.966800 0
M  V30 30 H -2.741573 0.725864 1.635350 0
M  V30 31 H -3.045069 3.176229 1.331353 0
M  V30 32 H -2.315376 3.305800 -0.883355 0
M  V30 33 H -2.594948 1.559744 -0.442354 0
M  V30 34 H 0.076803 2.954245 0.089524 0
M  V30 35 H -0.096949 2.201891 -1.493294 0
M  V30 END ATOM
M  V30 BEGIN BOND
M  V30 1 2 1 2
M  V30 2 1 2 3
M  V30 3 1 3 4
M  V30 4 2 4 5
M  V30 5 1 4 6
M  V30 6 2 6 7
M  V30 7 1 7 8
M  V30 8 2 8 9
M  V30 9 1 9 10
M  V30 10 2 10 11
M  V30 11 1 11 12
M  V30 12 2 12 13
M  V30 13 1 13 14
M  V30 14 1 14 15
M  V30 15 1 15 16
M  V30 16 1 16 17
M  V30 17 1 17 18
M  V30 18 1 18 19
M  V30 19 1 6 20
M  V30 20 1 20 2
M  V30 21 1 13 8
M  V30 22 1 19 14
M  V30 23 1 3 21
M  V30 24 1 7 22
M  V30 25 1 9 23
M  V30 26 1 10 24
M  V30 27 1 11 25
M  V30 28 1 12 26
M  V30 29 1 15 27
M  V30 30 1 15 28
M  V30 31 1 16 29
M  V30 32 1 16 30
M  V30 33 1 17 31
M  V30 34 1 18 32
M  V30 35 1 18 33
M  V30 36 1 19 34
M  V30 37 1 19 35
M  V30 END BOND
M  V30 END CTAB
M  END
>  <Dataset>  (73) 
ChEMBL_Kinases

>  <Ligand_Instance>  (73) 
nan

>  <PDB_ID>  (73) 
nan

>  <Standardized_SMILES>  (73) 
O=C1NC(=O)/C(=C/c2ccccc2N2CCNCC2)S1

>  <Name>  (73) 
nan

>  <Pocket>  (73) 
nan

>  <ATP_Site>  (73) 
nan

>  <Peripheral>  (73) 
nan

>  <Num_H_Atoms_ProtBoundConf>  (73) 
nan

>  <Num_Resolved_Atoms>  (73) 
nan

>  <Num_Not_Resolved_Atoms>  (73) 
nan

$$$$
CHEMBL2048862
     RDKit          3D

  0  0  0  0  0  0  0  0  0  0999 V3000
M  V30 BEGIN CTAB
M  V30 COUNTS 35 37 0 0 0
M  V30 BEGIN ATOM
M  V30 1 N -1.347939 -2.141090 3.575932 0
M  V30 2 C -0.316767 -2.674714 2.724366 0 CFG=1
M  V30 3 C -0.847094 -3.059024 1.362611 0
M  V30 4 C 0.370139 -2.911328 0.484686 0
M  V30 5 N 0.967909 -1.687132 0.998220 0
M  V30 6 C 1.574084 -0.701424 0.186762 0
M  V30 7 C 2.950844 -0.614128 0.305597 0
M  V30 8 C 3.611897 0.304363 -0.463642 0
M  V30 9 C 3.024187 1.162911 -1.359267 0
M  V30 10 C 1.631005 1.078275 -1.481927 0
M  V30 11 C 0.969102 0.153857 -0.707008 0
M  V30 12 C -0.498841 -0.009027 -0.753780 0
M  V30 13 C -1.111854 1.165556 -0.765714 0
M  V30 14 S -0.591266 2.908592 -0.739491 0
M  V30 15 C -2.006213 3.448711 0.264803 0
M  V30 16 O -2.039463 4.346677 1.139697 0
M  V30 17 N -3.033287 2.567081 -0.229238 0
M  V30 18 C -2.583536 1.334084 -0.788903 0
M  V30 19 O -3.451355 0.507706 -1.246180 0
M  V30 20 C 0.796048 -1.701165 2.446942 0
M  V30 21 H -1.377573 -1.105003 3.571480 0
M  V30 22 H -1.322346 -2.591604 4.501240 0
M  V30 23 H 0.085409 -3.600315 3.192578 0
M  V30 24 H -1.645534 -2.373162 1.012713 0
M  V30 25 H -1.200606 -4.116920 1.402995 0
M  V30 26 H 0.161883 -2.880463 -0.589039 0
M  V30 27 H 1.049509 -3.753848 0.762616 0
M  V30 28 H 3.573582 -1.211513 0.958532 0
M  V30 29 H 4.704809 0.425920 -0.420168 0
M  V30 30 H 3.574728 1.884941 -1.957914 0
M  V30 31 H 1.109645 1.711380 -2.161945 0
M  V30 32 H -1.106026 -0.879355 -0.777780 0
M  V30 33 H -4.046183 2.890591 -0.136996 0
M  V30 34 H 0.547301 -0.685115 2.825954 0
M  V30 35 H 1.717964 -2.065767 2.890558 0
M  V30 END ATOM
M  V30 BEGIN BOND
M  V30 1 1 1 2
M  V30 2 1 2 3
M  V30 3 1 3 4
M  V30 4 1 4 5
M  V30 5 1 5 6
M  V30 6 2 6 7
M  V30 7 1 7 8
M  V30 8 2 8 9
M  V30 9 1 9 10
M  V30 10 2 10 11
M  V30 11 1 11 12
M  V30 12 2 12 13
M  V30 13 1 13 14
M  V30 14 1 14 15
M  V30 15 2 15 16
M  V30 16 1 15 17
M  V30 17 1 17 18
M  V30 18 2 18 19
M  V30 19 1 5 20
M  V30 20 1 20 2
M  V30 21 1 11 6
M  V30 22 1 18 13
M  V30 23 1 1 21
M  V30 24 1 1 22
M  V30 25 1 2 23 CFG=1
M  V30 26 1 3 24
M  V30 27 1 3 25
M  V30 28 1 4 26
M  V30 29 1 4 27
M  V30 30 1 7 28
M  V30 31 1 8 29
M  V30 32 1 9 30
M  V30 33 1 10 31
M  V30 34 1 12 32
M  V30 35 1 17 33
M  V30 36 1 20 34
M  V30 37 1 20 35
M  V30 END BOND
M  V30 END CTAB
M  END
>  <Dataset>  (74) 
ChEMBL_Kinases

>  <Ligand_Instance>  (74) 
nan

>  <PDB_ID>  (74) 
nan

>  <Standardized_SMILES>  (74) 
N[C@H]1CCN(c2ccccc2/C=C2\SC(=O)NC2=O)C1

>  <Name>  (74) 
nan

>  <Pocket>  (74) 
nan

>  <ATP_Site>  (74) 
nan

>  <Peripheral>  (74) 
nan

>  <Num_H_Atoms_ProtBoundConf>  (74) 
nan

>  <Num_Resolved_Atoms>  (74) 
nan

>  <Num_Not_Resolved_Atoms>  (74) 
nan

$$$$
CHEMBL4513415
     RDKit          3D

  0  0  0  0  0  0  0  0  0  0999 V3000
M  V30 BEGIN CTAB
M  V30 COUNTS 57 62 0 0 0
M  V30 BEGIN ATOM
M  V30 1 C 3.526996 -4.456091 0.299921 0
M  V30 2 N 4.188910 -3.343352 -0.412143 0
M  V30 3 C 5.393015 -3.576732 -1.156514 0
M  V30 4 C 5.783947 -2.333235 -1.919740 0
M  V30 5 O 5.553264 -1.168532 -1.143807 0
M  V30 6 C 4.323252 -0.837053 -0.702137 0
M  V30 7 C 3.606550 -2.015472 -0.317379 0
M  V30 8 C 2.354378 -1.829109 0.149871 0
M  V30 9 N 1.597889 -0.675179 0.331359 0
M  V30 10 N 2.290166 0.483146 -0.041333 0
M  V30 11 C 2.027619 1.791017 -0.062623 0
M  V30 12 C 0.783060 2.376111 0.508360 0
M  V30 13 C 0.807646 3.755103 0.792263 0
M  V30 14 C -0.263960 4.265545 1.472401 0
M  V30 15 C -1.340587 3.537461 1.890339 0
M  V30 16 C -2.418771 3.915175 2.672595 0
M  V30 17 C -3.321758 2.894241 3.039075 0
M  V30 18 C -3.030343 1.556320 2.555994 0
M  V30 19 C -1.878729 1.035456 1.684541 0
M  V30 20 N -2.465464 -0.241230 1.878071 0
M  V30 21 C -2.405819 -0.883267 0.603570 0
M  V30 22 C -2.829556 -2.334463 0.565085 0
M  V30 23 C -4.219790 -2.622900 1.008307 0
M  V30 24 C -4.907549 -3.665912 0.116572 0
M  V30 25 O -5.219693 -3.053910 -1.086730 0
M  V30 26 C -4.187487 -2.221424 -1.477508 0
M  V30 27 C -2.834106 -2.700775 -0.956713 0
M  V30 28 C -1.371129 2.234385 1.620394 0
M  V30 29 N -0.299572 1.623635 0.916027 0
M  V30 30 N 3.107448 2.388976 -0.544975 0
M  V30 31 N 4.049213 1.471037 -0.825850 0
M  V30 32 C 3.509243 0.238876 -0.488888 0
M  V30 33 H 4.263764 -5.066013 0.866505 0
M  V30 34 H 2.832562 -3.994750 1.036970 0
M  V30 35 H 2.915671 -5.051037 -0.379544 0
M  V30 36 H 5.180186 -4.347595 -1.927993 0
M  V30 37 H 6.221714 -3.935991 -0.482741 0
M  V30 38 H 5.103283 -2.280202 -2.821717 0
M  V30 39 H 6.835137 -2.372709 -2.298506 0
M  V30 40 H 1.655098 -2.618681 0.477464 0
M  V30 41 H 1.657446 4.286350 0.475320 0
M  V30 42 H -0.297565 5.292866 1.731404 0
M  V30 43 H -2.422090 4.947786 2.913975 0
M  V30 44 H -4.084929 3.381650 3.643050 0
M  V30 45 H -3.983532 1.151030 3.079695 0
M  V30 46 H -2.792073 -0.856273 2.623484 0
M  V30 47 H -3.025516 -0.257185 -0.090183 0
M  V30 48 H -1.344211 -0.835810 0.224871 0
M  V30 49 H -2.102257 -2.957090 1.078014 0
M  V30 50 H -4.877626 -1.752151 1.082340 0
M  V30 51 H -4.204400 -3.119706 2.023061 0
M  V30 52 H -4.221016 -4.537145 -0.082599 0
M  V30 53 H -5.840921 -4.043656 0.601801 0
M  V30 54 H -4.225273 -2.058961 -2.551617 0
M  V30 55 H -4.393364 -1.189191 -1.034317 0
M  V30 56 H -2.696729 -3.777172 -1.078192 0
M  V30 57 H -1.999628 -2.129963 -1.387856 0
M  V30 END ATOM
M  V30 BEGIN BOND
M  V30 1 1 1 2
M  V30 2 1 2 3
M  V30 3 1 3 4
M  V30 4 1 4 5
M  V30 5 1 5 6
M  V30 6 2 6 7
M  V30 7 1 7 8
M  V30 8 2 8 9
M  V30 9 1 9 10
M  V30 10 1 10 11
M  V30 11 1 11 12
M  V30 12 2 12 13
M  V30 13 1 13 14
M  V30 14 2 14 15
M  V30 15 1 15 16
M  V30 16 2 16 17
M  V30 17 1 17 18
M  V30 18 2 18 19
M  V30 19 1 19 20
M  V30 20 1 20 21
M  V30 21 1 21 22
M  V30 22 1 22 23
M  V30 23 1 23 24
M  V30 24 1 24 25
M  V30 25 1 25 26
M  V30 26 1 26 27
M  V30 27 1 19 28
M  V30 28 2 28 29
M  V30 29 2 11 30
M  V30 30 1 30 31
M  V30 31 2 31 32
M  V30 32 1 7 2
M  V30 33 1 32 10
M  V30 34 1 32 6
M  V30 35 1 29 12
M  V30 36 1 28 15
M  V30 37 1 27 22
M  V30 38 1 1 33
M  V30 39 1 1 34
M  V30 40 1 1 35
M  V30 41 1 3 36
M  V30 42 1 3 37
M  V30 43 1 4 38
M  V30 44 1 4 39
M  V30 45 1 8 40
M  V30 46 1 13 41
M  V30 47 1 14 42
M  V30 48 1 16 43
M  V30 49 1 17 44
M  V30 50 1 18 45
M  V30 51 1 20 46
M  V30 52 1 21 47
M  V30 53 1 21 48
M  V30 54 1 22 49
M  V30 55 1 23 50
M  V30 56 1 23 51
M  V30 57 1 24 52
M  V30 58 1 24 53
M  V30 59 1 26 54
M  V30 60 1 26 55
M  V30 61 1 27 56
M  V30 62 1 27 57
M  V30 END BOND
M  V30 END CTAB
M  END
>  <Dataset>  (75) 
ChEMBL_Kinases

>  <Ligand_Instance>  (75) 
nan

>  <PDB_ID>  (75) 
nan

>  <Standardized_SMILES>  (75) 
CN1CCOc2c1cnn1c(-c3ccc4cccc(NCC5CCOCC5)c4n3)nnc21

>  <Name>  (75) 
nan

>  <Pocket>  (75) 
nan

>  <ATP_Site>  (75) 
nan

>  <Peripheral>  (75) 
nan

>  <Num_H_Atoms_ProtBoundConf>  (75) 
nan

>  <Num_Resolved_Atoms>  (75) 
nan

>  <Num_Not_Resolved_Atoms>  (75) 
nan

$$$$
CHEMBL2046468
     RDKit          3D

  0  0  0  0  0  0  0  0  0  0999 V3000
M  V30 BEGIN CTAB
M  V30 COUNTS 35 37 0 0 0
M  V30 BEGIN ATOM
M  V30 1 N -0.538517 -1.609317 3.860609 0
M  V30 2 C 0.572419 -1.823048 2.948821 0 CFG=1
M  V30 3 C 0.100837 -2.544809 1.721572 0
M  V30 4 C 0.989603 -2.011345 0.628581 0
M  V30 5 N 1.191355 -0.631859 1.015785 0
M  V30 6 C 1.468905 0.272450 -0.040913 0
M  V30 7 C 2.679985 0.930902 0.166031 0
M  V30 8 C 3.125580 1.838084 -0.796557 0
M  V30 9 Cl 4.635633 2.708156 -0.617237 0
M  V30 10 C 2.355654 2.053654 -1.918343 0
M  V30 11 C 1.140164 1.402598 -2.139743 0
M  V30 12 C 0.715647 0.498761 -1.161074 0
M  V30 13 C -0.557218 -0.144514 -1.374605 0
M  V30 14 C -1.583733 -0.178095 -0.570665 0
M  V30 15 S -1.881300 0.510368 1.053850 0
M  V30 16 C -3.626566 0.116761 1.102234 0
M  V30 17 O -4.194015 0.641832 2.085563 0
M  V30 18 N -3.842985 -0.701305 -0.030210 0
M  V30 19 C -2.802738 -0.884483 -0.932939 0
M  V30 20 O -2.992372 -1.619266 -1.953845 0
M  V30 21 C 1.081705 -0.507323 2.475466 0
M  V30 22 H -0.223971 -1.032099 4.660284 0
M  V30 23 H -0.915713 -2.533597 4.159874 0
M  V30 24 H 1.370771 -2.413859 3.480148 0
M  V30 25 H -0.956007 -2.276324 1.484867 0
M  V30 26 H 0.200899 -3.647208 1.840929 0
M  V30 27 H 0.547155 -2.146351 -0.376005 0
M  V30 28 H 1.966370 -2.563220 0.721071 0
M  V30 29 H 3.343573 0.821740 1.013203 0
M  V30 30 H 2.716733 2.758627 -2.651614 0
M  V30 31 H 0.527502 1.565117 -3.018426 0
M  V30 32 H -0.570115 -0.643010 -2.359209 0
M  V30 33 H -4.827484 -1.097027 -0.053002 0
M  V30 34 H 0.527689 0.370585 2.797444 0
M  V30 35 H 2.148718 -0.353030 2.807347 0
M  V30 END ATOM
M  V30 BEGIN BOND
M  V30 1 1 1 2
M  V30 2 1 2 3
M  V30 3 1 3 4
M  V30 4 1 4 5
M  V30 5 1 5 6
M  V30 6 2 6 7
M  V30 7 1 7 8
M  V30 8 1 8 9
M  V30 9 2 8 10
M  V30 10 1 10 11
M  V30 11 2 11 12
M  V30 12 1 12 13
M  V30 13 2 13 14
M  V30 14 1 14 15
M  V30 15 1 15 16
M  V30 16 2 16 17
M  V30 17 1 16 18
M  V30 18 1 18 19
M  V30 19 2 19 20
M  V30 20 1 5 21
M  V30 21 1 21 2
M  V30 22 1 12 6
M  V30 23 1 19 14
M  V30 24 1 1 22
M  V30 25 1 1 23
M  V30 26 1 2 24 CFG=1
M  V30 27 1 3 25
M  V30 28 1 3 26
M  V30 29 1 4 27
M  V30 30 1 4 28
M  V30 31 1 7 29
M  V30 32 1 10 30
M  V30 33 1 11 31
M  V30 34 1 13 32
M  V30 35 1 18 33
M  V30 36 1 21 34
M  V30 37 1 21 35
M  V30 END BOND
M  V30 END CTAB
M  END
>  <Dataset>  (76) 
ChEMBL_Kinases

>  <Ligand_Instance>  (76) 
nan

>  <PDB_ID>  (76) 
nan

>  <Standardized_SMILES>  (76) 
N[C@H]1CCN(c2cc(Cl)ccc2/C=C2\SC(=O)NC2=O)C1

>  <Name>  (76) 
nan

>  <Pocket>  (76) 
nan

>  <ATP_Site>  (76) 
nan

>  <Peripheral>  (76) 
nan

>  <Num_H_Atoms_ProtBoundConf>  (76) 
nan

>  <Num_Resolved_Atoms>  (76) 
nan

>  <Num_Not_Resolved_Atoms>  (76) 
nan

$$$$
CHEMBL2035609
     RDKit          3D

  0  0  0  0  0  0  0  0  0  0999 V3000
M  V30 BEGIN CTAB
M  V30 COUNTS 34 37 0 0 0
M  V30 BEGIN ATOM
M  V30 1 O 2.424889 2.947304 -0.685601 0
M  V30 2 C 1.851655 1.863334 -0.414881 0
M  V30 3 N 2.121260 0.734896 -1.067812 0
M  V30 4 C 1.598069 -0.472299 -0.890625 0
M  V30 5 C 1.837482 -1.727906 -1.551841 0
M  V30 6 C 1.135570 -2.844146 -1.152305 0
M  V30 7 C 1.283314 -4.085830 -1.710132 0
M  V30 8 C 2.173550 -4.286154 -2.735316 0
M  V30 9 C 2.900062 -3.205618 -3.172859 0
M  V30 10 C 2.706683 -1.990154 -2.574189 0
M  V30 11 Cl 3.704025 -0.730155 -3.246564 0
M  V30 12 N 0.688951 -0.454612 0.095944 0
M  V30 13 C 0.330527 0.603091 0.822013 0
M  V30 14 C 0.911347 1.825479 0.587520 0
M  V30 15 O 0.381418 2.656090 1.425775 0
M  V30 16 C -0.513258 2.063580 2.200987 0
M  V30 17 C -1.338338 2.480869 3.225083 0
M  V30 18 C -2.198143 1.579666 3.863633 0
M  V30 19 C -2.205363 0.248722 3.444409 0
M  V30 20 O -3.066700 -0.624863 4.093468 0
M  V30 21 C -4.397404 -0.800695 3.592377 0
M  V30 22 F -4.405797 -1.274439 2.296314 0
M  V30 23 F -5.009675 0.456157 3.641825 0
M  V30 24 F -5.127913 -1.617664 4.399573 0
M  V30 25 C -1.411365 -0.222177 2.436648 0
M  V30 26 C -0.586013 0.711432 1.845671 0
M  V30 27 H 2.834026 0.834443 -1.804888 0
M  V30 28 H 0.404802 -2.778999 -0.342616 0
M  V30 29 H 0.701632 -4.918668 -1.349447 0
M  V30 30 H 2.258482 -5.276749 -3.144784 0
M  V30 31 H 3.588816 -3.402790 -3.979554 0
M  V30 32 H -1.324518 3.526197 3.545557 0
M  V30 33 H -2.854378 1.886640 4.670173 0
M  V30 34 H -1.399303 -1.247470 2.094685 0
M  V30 END ATOM
M  V30 BEGIN BOND
M  V30 1 2 1 2
M  V30 2 1 2 3
M  V30 3 1 3 4
M  V30 4 1 4 5
M  V30 5 2 5 6
M  V30 6 1 6 7
M  V30 7 2 7 8
M  V30 8 1 8 9
M  V30 9 2 9 10
M  V30 10 1 10 11
M  V30 11 2 4 12
M  V30 12 1 12 13
M  V30 13 2 13 14
M  V30 14 1 14 15
M  V30 15 1 15 16
M  V30 16 2 16 17
M  V30 17 1 17 18
M  V30 18 2 18 19
M  V30 19 1 19 20
M  V30 20 1 20 21
M  V30 21 1 21 22
M  V30 22 1 21 23
M  V30 23 1 21 24
M  V30 24 1 19 25
M  V30 25 2 25 26
M  V30 26 1 14 2
M  V30 27 1 26 16
M  V30 28 1 10 5
M  V30 29 1 26 13
M  V30 30 1 3 27
M  V30 31 1 6 28
M  V30 32 1 7 29
M  V30 33 1 8 30
M  V30 34 1 9 31
M  V30 35 1 17 32
M  V30 36 1 18 33
M  V30 37 1 25 34
M  V30 END BOND
M  V30 END CTAB
M  END
>  <Dataset>  (77) 
ChEMBL_Kinases

>  <Ligand_Instance>  (77) 
nan

>  <PDB_ID>  (77) 
nan

>  <Standardized_SMILES>  (77) 
O=c1[nH]c(-c2ccccc2Cl)nc2c1oc1ccc(OC(F)(F)F)cc12

>  <Name>  (77) 
nan

>  <Pocket>  (77) 
nan

>  <ATP_Site>  (77) 
nan

>  <Peripheral>  (77) 
nan

>  <Num_H_Atoms_ProtBoundConf>  (77) 
nan

>  <Num_Resolved_Atoms>  (77) 
nan

>  <Num_Not_Resolved_Atoms>  (77) 
nan

$$$$
CHEMBL2035610
     RDKit          3D

  0  0  0  0  0  0  0  0  0  0999 V3000
M  V30 BEGIN CTAB
M  V30 COUNTS 33 36 0 0 0
M  V30 BEGIN ATOM
M  V30 1 O 0.886021 0.598395 4.437737 0
M  V30 2 C 0.754597 0.150262 3.248718 0
M  V30 3 N 1.657118 -0.712955 2.747232 0
M  V30 4 C 1.515656 -1.179977 1.501134 0
M  V30 5 C 2.446323 -2.115420 0.884380 0
M  V30 6 C 3.554005 -2.607192 1.517384 0
M  V30 7 C 4.395982 -3.491703 0.875347 0
M  V30 8 C 4.171408 -3.921526 -0.417588 0
M  V30 9 C 3.053397 -3.430783 -1.068834 0
M  V30 10 C 2.226071 -2.547200 -0.406160 0
M  V30 11 Cl 0.813775 -1.935137 -1.246058 0
M  V30 12 N 0.447318 -0.740398 0.814238 0
M  V30 13 C -0.470884 0.109520 1.262198 0
M  V30 14 C -0.343865 0.603465 2.545153 0
M  V30 15 O -1.360332 1.407418 2.739918 0
M  V30 16 C -2.134344 1.468559 1.676300 0
M  V30 17 C -3.296568 2.133260 1.339204 0
M  V30 18 C -3.903946 2.000918 0.107997 0
M  V30 19 C -3.349079 1.168891 -0.863014 0
M  V30 20 C -3.894151 0.932597 -2.226441 0
M  V30 21 F -4.991971 1.736378 -2.418941 0
M  V30 22 F -4.361248 -0.378710 -2.308117 0
M  V30 23 F -2.942482 1.066800 -3.205408 0
M  V30 24 C -2.189885 0.493378 -0.554387 0
M  V30 25 C -1.606959 0.647930 0.687813 0
M  V30 26 H 2.462066 -1.012548 3.334273 0
M  V30 27 H 3.787514 -2.318429 2.513882 0
M  V30 28 H 5.280388 -3.905645 1.333886 0
M  V30 29 H 4.800891 -4.613982 -0.966186 0
M  V30 30 H 2.795709 -3.715406 -2.093689 0
M  V30 31 H -3.754714 2.793819 2.082823 0
M  V30 32 H -4.812890 2.509163 -0.181209 0
M  V30 33 H -1.693942 -0.175815 -1.258478 0
M  V30 END ATOM
M  V30 BEGIN BOND
M  V30 1 2 1 2
M  V30 2 1 2 3
M  V30 3 1 3 4
M  V30 4 1 4 5
M  V30 5 2 5 6
M  V30 6 1 6 7
M  V30 7 2 7 8
M  V30 8 1 8 9
M  V30 9 2 9 10
M  V30 10 1 10 11
M  V30 11 2 4 12
M  V30 12 1 12 13
M  V30 13 2 13 14
M  V30 14 1 14 15
M  V30 15 1 15 16
M  V30 16 2 16 17
M  V30 17 1 17 18
M  V30 18 2 18 19
M  V30 19 1 19 20
M  V30 20 1 20 21
M  V30 21 1 20 22
M  V30 22 1 20 23
M  V30 23 1 19 24
M  V30 24 2 24 25
M  V30 25 1 14 2
M  V30 26 1 25 16
M  V30 27 1 10 5
M  V30 28 1 25 13
M  V30 29 1 3 26
M  V30 30 1 6 27
M  V30 31 1 7 28
M  V30 32 1 8 29
M  V30 33 1 9 30
M  V30 34 1 17 31
M  V30 35 1 18 32
M  V30 36 1 24 33
M  V30 END BOND
M  V30 END CTAB
M  END
>  <Dataset>  (78) 
ChEMBL_Kinases

>  <Ligand_Instance>  (78) 
nan

>  <PDB_ID>  (78) 
nan

>  <Standardized_SMILES>  (78) 
O=c1[nH]c(-c2ccccc2Cl)nc2c1oc1ccc(C(F)(F)F)cc12

>  <Name>  (78) 
nan

>  <Pocket>  (78) 
nan

>  <ATP_Site>  (78) 
nan

>  <Peripheral>  (78) 
nan

>  <Num_H_Atoms_ProtBoundConf>  (78) 
nan

>  <Num_Resolved_Atoms>  (78) 
nan

>  <Num_Not_Resolved_Atoms>  (78) 
nan

$$$$
CHEMBL2035611
     RDKit          3D

  0  0  0  0  0  0  0  0  0  0999 V3000
M  V30 BEGIN CTAB
M  V30 COUNTS 32 35 0 0 0
M  V30 BEGIN ATOM
M  V30 1 N 0.253731 -4.341553 4.025708 0
M  V30 2 C 0.278230 -4.191600 2.605236 0
M  V30 3 C 0.359162 -5.261398 1.726930 0
M  V30 4 C 0.378981 -5.047451 0.351895 0
M  V30 5 C 0.317993 -3.762233 -0.153770 0
M  V30 6 O 0.316700 -3.241186 -1.368086 0
M  V30 7 C 0.242136 -1.937980 -1.332898 0
M  V30 8 C 0.204609 -0.903837 -2.237011 0
M  V30 9 O 0.247256 -1.156513 -3.457853 0
M  V30 10 N 0.123296 0.340563 -1.767938 0
M  V30 11 C 0.071066 0.745258 -0.504841 0
M  V30 12 C -0.016992 2.059869 0.081720 0
M  V30 13 C -0.055393 2.177688 1.454410 0
M  V30 14 C -0.138543 3.374509 2.116359 0
M  V30 15 C -0.189309 4.555596 1.415450 0
M  V30 16 C -0.153856 4.490507 0.040996 0
M  V30 17 C -0.070287 3.263889 -0.566014 0
M  V30 18 Cl -0.035522 3.355819 -2.296668 0
M  V30 19 N 0.111426 -0.308514 0.325178 0
M  V30 20 C 0.191725 -1.589467 -0.011181 0
M  V30 21 C 0.237322 -2.718892 0.777782 0
M  V30 22 C 0.214582 -2.879947 2.149667 0
M  V30 23 H -0.507132 -4.979936 4.351288 0
M  V30 24 H 0.855734 -3.927127 4.756135 0
M  V30 25 H 0.404743 -6.250273 2.173992 0
M  V30 26 H 0.441820 -5.884844 -0.313414 0
M  V30 27 H 0.099013 1.068571 -2.495935 0
M  V30 28 H -0.019867 1.294582 2.083789 0
M  V30 29 H -0.164912 3.403483 3.186550 0
M  V30 30 H -0.254473 5.478401 1.971227 0
M  V30 31 H -0.195736 5.436249 -0.467216 0
M  V30 32 H 0.150382 -2.006530 2.785889 0
M  V30 END ATOM
M  V30 BEGIN BOND
M  V30 1 1 1 2
M  V30 2 2 2 3
M  V30 3 1 3 4
M  V30 4 2 4 5
M  V30 5 1 5 6
M  V30 6 1 6 7
M  V30 7 1 7 8
M  V30 8 2 8 9
M  V30 9 1 8 10
M  V30 10 1 10 11
M  V30 11 1 11 12
M  V30 12 2 12 13
M  V30 13 1 13 14
M  V30 14 2 14 15
M  V30 15 1 15 16
M  V30 16 2 16 17
M  V30 17 1 17 18
M  V30 18 2 11 19
M  V30 19 1 19 20
M  V30 20 1 20 21
M  V30 21 2 21 22
M  V30 22 1 22 2
M  V30 23 1 21 5
M  V30 24 2 20 7
M  V30 25 1 17 12
M  V30 26 1 1 23
M  V30 27 1 1 24
M  V30 28 1 3 25
M  V30 29 1 4 26
M  V30 30 1 10 27
M  V30 31 1 13 28
M  V30 32 1 14 29
M  V30 33 1 15 30
M  V30 34 1 16 31
M  V30 35 1 22 32
M  V30 END BOND
M  V30 END CTAB
M  END
>  <Dataset>  (79) 
ChEMBL_Kinases

>  <Ligand_Instance>  (79) 
nan

>  <PDB_ID>  (79) 
nan

>  <Standardized_SMILES>  (79) 
Nc1ccc2oc3c(=O)[nH]c(-c4ccccc4Cl)nc3c2c1

>  <Name>  (79) 
nan

>  <Pocket>  (79) 
nan

>  <ATP_Site>  (79) 
nan

>  <Peripheral>  (79) 
nan

>  <Num_H_Atoms_ProtBoundConf>  (79) 
nan

>  <Num_Resolved_Atoms>  (79) 
nan

>  <Num_Not_Resolved_Atoms>  (79) 
nan

$$$$
CHEMBL2035612
     RDKit          3D

  0  0  0  0  0  0  0  0  0  0999 V3000
M  V30 BEGIN CTAB
M  V30 COUNTS 35 38 0 0 0
M  V30 BEGIN ATOM
M  V30 1 C 0.870936 -5.114285 0.074073 0
M  V30 2 N 2.108364 -4.798761 0.736199 0
M  V30 3 C 2.412479 -3.456886 1.134113 0
M  V30 4 C 3.625241 -3.187104 1.775675 0
M  V30 5 C 3.880305 -1.861644 2.146667 0
M  V30 6 C 2.942712 -0.886577 1.870900 0
M  V30 7 O 2.928403 0.406214 2.104472 0
M  V30 8 C 1.823733 0.966672 1.670101 0
M  V30 9 C 1.335072 2.264836 1.673380 0
M  V30 10 O 2.021207 3.202439 2.182416 0
M  V30 11 N 0.116909 2.526405 1.128054 0
M  V30 12 C -0.656079 1.582162 0.575425 0
M  V30 13 C -1.961073 1.857120 -0.009677 0
M  V30 14 C -2.529514 3.110857 -0.053298 0
M  V30 15 C -3.766572 3.372576 -0.607741 0
M  V30 16 C -4.451328 2.295707 -1.142239 0
M  V30 17 C -3.947101 1.001809 -1.137412 0
M  V30 18 C -2.702303 0.834255 -0.561654 0
M  V30 19 Cl -2.081097 -0.805430 -0.564201 0
M  V30 20 N -0.180321 0.326289 0.573729 0
M  V30 21 C 1.019594 0.002819 1.098641 0
M  V30 22 C 1.747776 -1.160781 1.237203 0
M  V30 23 C 1.488601 -2.461335 0.868843 0
M  V30 24 H 0.789130 -4.449375 -0.818607 0
M  V30 25 H 0.912499 -6.140599 -0.329940 0
M  V30 26 H -0.014278 -5.023732 0.731385 0
M  V30 27 H 2.802946 -5.560731 0.933160 0
M  V30 28 H 4.344518 -3.966508 1.981406 0
M  V30 29 H 4.779321 -1.578709 2.637696 0
M  V30 30 H -0.194138 3.512180 1.159816 0
M  V30 31 H -2.007998 3.952330 0.357750 0
M  V30 32 H -4.162295 4.374016 -0.614132 0
M  V30 33 H -5.431157 2.490992 -1.583634 0
M  V30 34 H -4.529549 0.213397 -1.568294 0
M  V30 35 H 0.559224 -2.712071 0.369014 0
M  V30 END ATOM
M  V30 BEGIN BOND
M  V30 1 1 1 2
M  V30 2 1 2 3
M  V30 3 2 3 4
M  V30 4 1 4 5
M  V30 5 2 5 6
M  V30 6 1 6 7
M  V30 7 1 7 8
M  V30 8 1 8 9
M  V30 9 2 9 10
M  V30 10 1 9 11
M  V30 11 1 11 12
M  V30 12 1 12 13
M  V30 13 2 13 14
M  V30 14 1 14 15
M  V30 15 2 15 16
M  V30 16 1 16 17
M  V30 17 2 17 18
M  V30 18 1 18 19
M  V30 19 2 12 20
M  V30 20 1 20 21
M  V30 21 1 21 22
M  V30 22 2 22 23
M  V30 23 1 23 3
M  V30 24 1 22 6
M  V30 25 2 21 8
M  V30 26 1 18 13
M  V30 27 1 1 24
M  V30 28 1 1 25
M  V30 29 1 1 26
M  V30 30 1 2 27
M  V30 31 1 4 28
M  V30 32 1 5 29
M  V30 33 1 11 30
M  V30 34 1 14 31
M  V30 35 1 15 32
M  V30 36 1 16 33
M  V30 37 1 17 34
M  V30 38 1 23 35
M  V30 END BOND
M  V30 END CTAB
M  END
>  <Dataset>  (80) 
ChEMBL_Kinases

>  <Ligand_Instance>  (80) 
nan

>  <PDB_ID>  (80) 
nan

>  <Standardized_SMILES>  (80) 
CNc1ccc2oc3c(=O)[nH]c(-c4ccccc4Cl)nc3c2c1

>  <Name>  (80) 
nan

>  <Pocket>  (80) 
nan

>  <ATP_Site>  (80) 
nan

>  <Peripheral>  (80) 
nan

>  <Num_H_Atoms_ProtBoundConf>  (80) 
nan

>  <Num_Resolved_Atoms>  (80) 
nan

>  <Num_Not_Resolved_Atoms>  (80) 
nan

$$$$
CHEMBL2035613
     RDKit          3D

  0  0  0  0  0  0  0  0  0  0999 V3000
M  V30 BEGIN CTAB
M  V30 COUNTS 37 40 0 0 0
M  V30 BEGIN ATOM
M  V30 1 C 4.831857 -2.856282 3.772233 0
M  V30 2 C 3.888259 -2.867765 2.627830 0
M  V30 3 O 2.793120 -3.517767 2.540891 0
M  V30 4 N 4.110318 -2.116081 1.436947 0
M  V30 5 C 3.039645 -2.312230 0.495632 0
M  V30 6 C 3.183290 -3.352001 -0.399524 0
M  V30 7 C 2.155100 -3.561672 -1.324191 0
M  V30 8 C 1.040001 -2.753727 -1.335003 0
M  V30 9 O -0.050250 -2.717874 -2.068110 0
M  V30 10 C -0.853728 -1.749581 -1.705904 0
M  V30 11 C -2.076409 -1.242135 -2.080343 0
M  V30 12 O -2.683531 -1.774915 -3.018157 0
M  V30 13 N -2.546705 -0.194239 -1.407338 0
M  V30 14 C -1.999026 0.460516 -0.394470 0
M  V30 15 C -2.445513 1.592820 0.376201 0
M  V30 16 C -1.654303 2.074762 1.395273 0
M  V30 17 C -1.971883 3.137513 2.190096 0
M  V30 18 C -3.155163 3.807078 1.998434 0
M  V30 19 C -3.990459 3.373398 0.994525 0
M  V30 20 C -3.608957 2.298568 0.233153 0
M  V30 21 Cl -4.770699 1.875135 -0.990901 0
M  V30 22 N -0.812418 -0.075111 -0.072411 0
M  V30 23 C -0.226371 -1.117867 -0.659031 0
M  V30 24 C 0.981789 -1.728330 -0.393491 0
M  V30 25 C 1.956899 -1.463518 0.546656 0
M  V30 26 H 4.499740 -2.005955 4.435314 0
M  V30 27 H 4.788459 -3.785444 4.357690 0
M  V30 28 H 5.820100 -2.600300 3.395135 0
M  V30 29 H 4.982579 -1.517656 1.348781 0
M  V30 30 H 4.030190 -4.010194 -0.434009 0
M  V30 31 H 2.265873 -4.376026 -2.026565 0
M  V30 32 H -3.465432 0.135747 -1.737831 0
M  V30 33 H -0.696560 1.601980 1.616712 0
M  V30 34 H -1.321722 3.466029 2.962849 0
M  V30 35 H -3.386755 4.644890 2.638196 0
M  V30 36 H -4.911184 3.924013 0.873765 0
M  V30 37 H 1.857496 -0.652204 1.253937 0
M  V30 END ATOM
M  V30 BEGIN BOND
M  V30 1 1 1 2
M  V30 2 2 2 3
M  V30 3 1 2 4
M  V30 4 1 4 5
M  V30 5 2 5 6
M  V30 6 1 6 7
M  V30 7 2 7 8
M  V30 8 1 8 9
M  V30 9 1 9 10
M  V30 10 1 10 11
M  V30 11 2 11 12
M  V30 12 1 11 13
M  V30 13 1 13 14
M  V30 14 1 14 15
M  V30 15 2 15 16
M  V30 16 1 16 17
M  V30 17 2 17 18
M  V30 18 1 18 19
M  V30 19 2 19 20
M  V30 20 1 20 21
M  V30 21 2 14 22
M  V30 22 1 22 23
M  V30 23 1 23 24
M  V30 24 2 24 25
M  V30 25 1 25 5
M  V30 26 1 24 8
M  V30 27 2 23 10
M  V30 28 1 20 15
M  V30 29 1 1 26
M  V30 30 1 1 27
M  V30 31 1 1 28
M  V30 32 1 4 29
M  V30 33 1 6 30
M  V30 34 1 7 31
M  V30 35 1 13 32
M  V30 36 1 16 33
M  V30 37 1 17 34
M  V30 38 1 18 35
M  V30 39 1 19 36
M  V30 40 1 25 37
M  V30 END BOND
M  V30 END CTAB
M  END
>  <Dataset>  (81) 
ChEMBL_Kinases

>  <Ligand_Instance>  (81) 
nan

>  <PDB_ID>  (81) 
nan

>  <Standardized_SMILES>  (81) 
CC(=O)Nc1ccc2oc3c(=O)[nH]c(-c4ccccc4Cl)nc3c2c1

>  <Name>  (81) 
nan

>  <Pocket>  (81) 
nan

>  <ATP_Site>  (81) 
nan

>  <Peripheral>  (81) 
nan

>  <Num_H_Atoms_ProtBoundConf>  (81) 
nan

>  <Num_Resolved_Atoms>  (81) 
nan

>  <Num_Not_Resolved_Atoms>  (81) 
nan

$$$$
CHEMBL2035614
     RDKit          3D

  0  0  0  0  0  0  0  0  0  0999 V3000
M  V30 BEGIN CTAB
M  V30 COUNTS 31 34 0 0 0
M  V30 BEGIN ATOM
M  V30 1 O 1.423029 -0.954422 4.264997 0
M  V30 2 C 1.103905 -0.896806 3.053672 0
M  V30 3 N 1.891315 -1.368554 2.070734 0
M  V30 4 C 1.579596 -1.322417 0.765335 0
M  V30 5 C 2.428688 -1.831661 -0.301578 0
M  V30 6 C 3.653256 -2.419394 -0.072506 0
M  V30 7 C 4.492021 -2.916057 -1.049765 0
M  V30 8 C 4.054733 -2.808842 -2.368972 0
M  V30 9 C 2.836092 -2.226164 -2.623560 0
M  V30 10 C 2.011182 -1.733185 -1.607947 0
M  V30 11 Cl 0.472957 -1.005247 -2.020097 0
M  V30 12 N 0.393961 -0.759037 0.474531 0
M  V30 13 C -0.451374 -0.263533 1.397848 0
M  V30 14 C -0.109643 -0.321951 2.734508 0
M  V30 15 O -1.074274 0.214377 3.437383 0
M  V30 16 C -2.045555 0.631079 2.658971 0
M  V30 17 C -3.258181 1.254659 2.932420 0
M  V30 18 C -4.112724 1.591614 1.890123 0
M  V30 19 O -5.331668 2.218347 2.163826 0
M  V30 20 C -3.738831 1.297437 0.577759 0
M  V30 21 C -2.523431 0.671627 0.294002 0
M  V30 22 C -1.696868 0.349626 1.349450 0
M  V30 23 H 2.796871 -1.793075 2.362432 0
M  V30 24 H 4.034427 -2.525181 0.928857 0
M  V30 25 H 5.446075 -3.369663 -0.819611 0
M  V30 26 H 4.685707 -3.187340 -3.162949 0
M  V30 27 H 2.533013 -2.161383 -3.652738 0
M  V30 28 H -3.546965 1.482174 3.949605 0
M  V30 29 H -6.170420 1.633867 2.256507 0
M  V30 30 H -4.401727 1.556674 -0.256619 0
M  V30 31 H -2.220530 0.438121 -0.711154 0
M  V30 END ATOM
M  V30 BEGIN BOND
M  V30 1 2 1 2
M  V30 2 1 2 3
M  V30 3 1 3 4
M  V30 4 1 4 5
M  V30 5 2 5 6
M  V30 6 1 6 7
M  V30 7 2 7 8
M  V30 8 1 8 9
M  V30 9 2 9 10
M  V30 10 1 10 11
M  V30 11 2 4 12
M  V30 12 1 12 13
M  V30 13 2 13 14
M  V30 14 1 14 15
M  V30 15 1 15 16
M  V30 16 2 16 17
M  V30 17 1 17 18
M  V30 18 1 18 19
M  V30 19 2 18 20
M  V30 20 1 20 21
M  V30 21 2 21 22
M  V30 22 1 14 2
M  V30 23 1 22 16
M  V30 24 1 10 5
M  V30 25 1 22 13
M  V30 26 1 3 23
M  V30 27 1 6 24
M  V30 28 1 7 25
M  V30 29 1 8 26
M  V30 30 1 9 27
M  V30 31 1 17 28
M  V30 32 1 19 29
M  V30 33 1 20 30
M  V30 34 1 21 31
M  V30 END BOND
M  V30 END CTAB
M  END
>  <Dataset>  (82) 
ChEMBL_Kinases

>  <Ligand_Instance>  (82) 
nan

>  <PDB_ID>  (82) 
nan

>  <Standardized_SMILES>  (82) 
O=c1[nH]c(-c2ccccc2Cl)nc2c1oc1cc(O)ccc12

>  <Name>  (82) 
nan

>  <Pocket>  (82) 
nan

>  <ATP_Site>  (82) 
nan

>  <Peripheral>  (82) 
nan

>  <Num_H_Atoms_ProtBoundConf>  (82) 
nan

>  <Num_Resolved_Atoms>  (82) 
nan

>  <Num_Not_Resolved_Atoms>  (82) 
nan

$$$$
CHEMBL2035615
     RDKit          3D

  0  0  0  0  0  0  0  0  0  0999 V3000
M  V30 BEGIN CTAB
M  V30 COUNTS 34 37 0 0 0
M  V30 BEGIN ATOM
M  V30 1 C -0.007373 -6.940775 1.719941 0
M  V30 2 O 0.953175 -5.937604 1.998036 0
M  V30 3 C 0.756834 -4.606391 1.659285 0
M  V30 4 C -0.362476 -4.104854 1.028519 0
M  V30 5 C -0.511668 -2.771437 0.712134 0
M  V30 6 C 0.517566 -1.921324 1.051685 0
M  V30 7 C 1.654309 -2.385512 1.684023 0
M  V30 8 C 1.802938 -3.741496 2.004232 0
M  V30 9 O 2.448541 -1.358677 1.878131 0
M  V30 10 C 1.911130 -0.251630 1.416508 0
M  V30 11 C 2.276456 1.077410 1.348792 0
M  V30 12 O 3.380453 1.414747 1.818464 0
M  V30 13 N 1.480017 2.016856 0.793209 0
M  V30 14 C 0.287338 1.695758 0.277897 0
M  V30 15 C -0.608915 2.669357 -0.331746 0
M  V30 16 C -0.331205 4.014002 -0.444022 0
M  V30 17 C -1.188950 4.924747 -1.023771 0
M  V30 18 C -2.404710 4.484269 -1.528725 0
M  V30 19 C -2.717784 3.161724 -1.437550 0
M  V30 20 C -1.825345 2.271375 -0.844820 0
M  V30 21 Cl -2.254750 0.572053 -0.740797 0
M  V30 22 N -0.082250 0.407436 0.336093 0
M  V30 23 C 0.678230 -0.560390 0.879555 0
M  V30 24 H -0.882875 -6.883335 2.390176 0
M  V30 25 H 0.440749 -7.946818 1.849017 0
M  V30 26 H -0.331050 -6.872949 0.641628 0
M  V30 27 H -1.140727 -4.821508 0.785326 0
M  V30 28 H -1.396435 -2.392216 0.216601 0
M  V30 29 H 2.692058 -4.117794 2.501420 0
M  V30 30 H 1.819605 2.999888 0.776557 0
M  V30 31 H 0.605334 4.394287 -0.062513 0
M  V30 32 H -0.932968 5.980257 -1.093578 0
M  V30 33 H -3.061503 5.214501 -1.978694 0
M  V30 34 H -3.665354 2.772557 -1.822771 0
M  V30 END ATOM
M  V30 BEGIN BOND
M  V30 1 1 1 2
M  V30 2 1 2 3
M  V30 3 2 3 4
M  V30 4 1 4 5
M  V30 5 2 5 6
M  V30 6 1 6 7
M  V30 7 2 7 8
M  V30 8 1 7 9
M  V30 9 1 9 10
M  V30 10 1 10 11
M  V30 11 2 11 12
M  V30 12 1 11 13
M  V30 13 1 13 14
M  V30 14 1 14 15
M  V30 15 2 15 16
M  V30 16 1 16 17
M  V30 17 2 17 18
M  V30 18 1 18 19
M  V30 19 2 19 20
M  V30 20 1 20 21
M  V30 21 2 14 22
M  V30 22 1 22 23
M  V30 23 1 8 3
M  V30 24 2 23 10
M  V30 25 1 23 6
M  V30 26 1 20 15
M  V30 27 1 1 24
M  V30 28 1 1 25
M  V30 29 1 1 26
M  V30 30 1 4 27
M  V30 31 1 5 28
M  V30 32 1 8 29
M  V30 33 1 13 30
M  V30 34 1 16 31
M  V30 35 1 17 32
M  V30 36 1 18 33
M  V30 37 1 19 34
M  V30 END BOND
M  V30 END CTAB
M  END
>  <Dataset>  (83) 
ChEMBL_Kinases

>  <Ligand_Instance>  (83) 
nan

>  <PDB_ID>  (83) 
nan

>  <Standardized_SMILES>  (83) 
COc1ccc2c(c1)oc1c(=O)[nH]c(-c3ccccc3Cl)nc12

>  <Name>  (83) 
nan

>  <Pocket>  (83) 
nan

>  <ATP_Site>  (83) 
nan

>  <Peripheral>  (83) 
nan

>  <Num_H_Atoms_ProtBoundConf>  (83) 
nan

>  <Num_Resolved_Atoms>  (83) 
nan

>  <Num_Not_Resolved_Atoms>  (83) 
nan

$$$$
CHEMBL2035616
     RDKit          3D

  0  0  0  0  0  0  0  0  0  0999 V3000
M  V30 BEGIN CTAB
M  V30 COUNTS 34 37 0 0 0
M  V30 BEGIN ATOM
M  V30 1 C -0.243770 -4.264758 1.900962 0
M  V30 2 O 0.265762 -3.021300 1.523401 0
M  V30 3 C 1.567157 -2.608105 1.590313 0
M  V30 4 C 2.526589 -3.475924 2.077280 0
M  V30 5 C 3.848505 -3.087224 2.156824 0
M  V30 6 C 4.237321 -1.824050 1.751390 0
M  V30 7 C 3.271943 -0.950995 1.261458 0
M  V30 8 O 3.300016 0.268028 0.811202 0
M  V30 9 C 2.121773 0.684584 0.455492 0
M  V30 10 C 1.686843 1.892839 -0.069417 0
M  V30 11 O 2.534926 2.815489 -0.269702 0
M  V30 12 N 0.373921 2.031416 -0.344242 0
M  V30 13 C -0.533630 1.077097 -0.142241 0
M  V30 14 C -1.945645 1.262336 -0.451310 0
M  V30 15 C -2.473208 2.421210 -0.973565 0
M  V30 16 C -3.807148 2.607834 -1.269848 0
M  V30 17 C -4.694744 1.584099 -1.038452 0
M  V30 18 C -4.202576 0.406253 -0.515128 0
M  V30 19 C -2.860081 0.255132 -0.230645 0
M  V30 20 Cl -2.380175 -1.293028 0.428829 0
M  V30 21 N -0.126920 -0.099919 0.366208 0
M  V30 22 C 1.164971 -0.307328 0.663153 0
M  V30 23 C 1.945534 -1.342166 1.182075 0
M  V30 24 H 0.495878 -5.094115 1.793609 0
M  V30 25 H -0.636833 -4.175068 2.943369 0
M  V30 26 H -1.118549 -4.576610 1.261335 0
M  V30 27 H 2.338145 -4.478596 2.419517 0
M  V30 28 H 4.624757 -3.751280 2.536611 0
M  V30 29 H 5.274564 -1.509681 1.810303 0
M  V30 30 H 0.127486 2.952562 -0.729945 0
M  V30 31 H -1.828500 3.258399 -1.176587 0
M  V30 32 H -4.183747 3.543819 -1.683246 0
M  V30 33 H -5.753122 1.661799 -1.247247 0
M  V30 34 H -4.919049 -0.406232 -0.333512 0
M  V30 END ATOM
M  V30 BEGIN BOND
M  V30 1 1 1 2
M  V30 2 1 2 3
M  V30 3 2 3 4
M  V30 4 1 4 5
M  V30 5 2 5 6
M  V30 6 1 6 7
M  V30 7 1 7 8
M  V30 8 1 8 9
M  V30 9 1 9 10
M  V30 10 2 10 11
M  V30 11 1 10 12
M  V30 12 1 12 13
M  V30 13 1 13 14
M  V30 14 2 14 15
M  V30 15 1 15 16
M  V30 16 2 16 17
M  V30 17 1 17 18
M  V30 18 2 18 19
M  V30 19 1 19 20
M  V30 20 2 13 21
M  V30 21 1 21 22
M  V30 22 1 22 23
M  V30 23 1 23 3
M  V30 24 2 23 7
M  V30 25 2 22 9
M  V30 26 1 19 14
M  V30 27 1 1 24
M  V30 28 1 1 25
M  V30 29 1 1 26
M  V30 30 1 4 27
M  V30 31 1 5 28
M  V30 32 1 6 29
M  V30 33 1 12 30
M  V30 34 1 15 31
M  V30 35 1 16 32
M  V30 36 1 17 33
M  V30 37 1 18 34
M  V30 END BOND
M  V30 END CTAB
M  END
>  <Dataset>  (84) 
ChEMBL_Kinases

>  <Ligand_Instance>  (84) 
nan

>  <PDB_ID>  (84) 
nan

>  <Standardized_SMILES>  (84) 
COc1cccc2oc3c(=O)[nH]c(-c4ccccc4Cl)nc3c12

>  <Name>  (84) 
nan

>  <Pocket>  (84) 
nan

>  <ATP_Site>  (84) 
nan

>  <Peripheral>  (84) 
nan

>  <Num_H_Atoms_ProtBoundConf>  (84) 
nan

>  <Num_Resolved_Atoms>  (84) 
nan

>  <Num_Not_Resolved_Atoms>  (84) 
nan

$$$$
CHEMBL2035617
     RDKit          3D

  0  0  0  0  0  0  0  0  0  0999 V3000
M  V30 BEGIN CTAB
M  V30 COUNTS 37 41 0 0 0
M  V30 BEGIN ATOM
M  V30 1 O 0.379520 -3.714919 4.128061 0
M  V30 2 C 0.569075 -2.887978 3.206399 0
M  V30 3 N 1.800067 -2.501135 2.840678 0
M  V30 4 C 2.115893 -1.631643 1.878265 0
M  V30 5 C 3.428175 -1.193363 1.459181 0
M  V30 6 C 4.639133 -1.584429 1.969523 0
M  V30 7 F 4.673003 -2.478979 2.980225 0
M  V30 8 C 5.871644 -1.145833 1.545501 0
M  V30 9 C 5.928066 -0.234781 0.521355 0
M  V30 10 C 4.742037 0.194477 -0.030627 0
M  V30 11 C 3.536572 -0.278983 0.434255 0
M  V30 12 Cl 2.071740 0.339907 -0.347546 0
M  V30 13 N 1.042025 -1.128272 1.249113 0
M  V30 14 C -0.232103 -1.441247 1.529066 0
M  V30 15 C -0.504835 -2.345444 2.533084 0
M  V30 16 O -1.803911 -2.462688 2.590887 0
M  V30 17 C -2.386676 -1.689856 1.686004 0
M  V30 18 C -3.721411 -1.490102 1.384295 0
M  V30 19 C -4.014316 -0.603233 0.367417 0
M  V30 20 C -3.064351 0.086982 -0.356507 0
M  V30 21 C -3.451236 1.028667 -1.440558 0
M  V30 22 C -2.639010 2.232966 -1.717444 0
M  V30 23 C -2.597286 1.061194 -2.694573 0
M  V30 24 C -1.713653 -0.113935 -0.052572 0
M  V30 25 C -1.409616 -0.997856 0.961620 0
M  V30 26 H 2.567786 -2.942144 3.381971 0
M  V30 27 H 6.791454 -1.485707 1.981440 0
M  V30 28 H 6.836814 0.175346 0.110903 0
M  V30 29 H 4.758613 0.911716 -0.838493 0
M  V30 30 H -4.479091 -2.010873 1.928149 0
M  V30 31 H -5.053257 -0.433367 0.116358 0
M  V30 32 H -4.536874 1.110581 -1.594990 0
M  V30 33 H -3.171606 3.154938 -2.032566 0
M  V30 34 H -1.659649 2.435168 -1.252766 0
M  V30 35 H -1.689318 0.425925 -2.719151 0
M  V30 36 H -3.080996 1.276207 -3.667837 0
M  V30 37 H -0.944772 0.406270 -0.595151 0
M  V30 END ATOM
M  V30 BEGIN BOND
M  V30 1 2 1 2
M  V30 2 1 2 3
M  V30 3 1 3 4
M  V30 4 1 4 5
M  V30 5 2 5 6
M  V30 6 1 6 7
M  V30 7 1 6 8
M  V30 8 2 8 9
M  V30 9 1 9 10
M  V30 10 2 10 11
M  V30 11 1 11 12
M  V30 12 2 4 13
M  V30 13 1 13 14
M  V30 14 2 14 15
M  V30 15 1 15 16
M  V30 16 1 16 17
M  V30 17 2 17 18
M  V30 18 1 18 19
M  V30 19 2 19 20
M  V30 20 1 20 21
M  V30 21 1 21 22
M  V30 22 1 22 23
M  V30 23 1 20 24
M  V30 24 2 24 25
M  V30 25 1 15 2
M  V30 26 1 25 17
M  V30 27 1 11 5
M  V30 28 1 25 14
M  V30 29 1 23 21
M  V30 30 1 3 26
M  V30 31 1 8 27
M  V30 32 1 9 28
M  V30 33 1 10 29
M  V30 34 1 18 30
M  V30 35 1 19 31
M  V30 36 1 21 32
M  V30 37 1 22 33
M  V30 38 1 22 34
M  V30 39 1 23 35
M  V30 40 1 23 36
M  V30 41 1 24 37
M  V30 END BOND
M  V30 END CTAB
M  END
>  <Dataset>  (85) 
ChEMBL_Kinases

>  <Ligand_Instance>  (85) 
nan

>  <PDB_ID>  (85) 
nan

>  <Standardized_SMILES>  (85) 
O=c1[nH]c(-c2c(F)cccc2Cl)nc2c1oc1ccc(C3CC3)cc12

>  <Name>  (85) 
nan

>  <Pocket>  (85) 
nan

>  <ATP_Site>  (85) 
nan

>  <Peripheral>  (85) 
nan

>  <Num_H_Atoms_ProtBoundConf>  (85) 
nan

>  <Num_Resolved_Atoms>  (85) 
nan

>  <Num_Not_Resolved_Atoms>  (85) 
nan

$$$$
CHEMBL2035619
     RDKit          3D

  0  0  0  0  0  0  0  0  0  0999 V3000
M  V30 BEGIN CTAB
M  V30 COUNTS 39 42 0 0 0
M  V30 BEGIN ATOM
M  V30 1 C 0.092138 -2.851050 0.383955 0
M  V30 2 C -0.178820 -1.878338 -0.746764 0
M  V30 3 C -0.973296 -2.668183 -1.774628 0
M  V30 4 C 1.124316 -1.436558 -1.274192 0
M  V30 5 C 1.569343 -2.140688 -2.400704 0
M  V30 6 C 2.764541 -1.831581 -3.013730 0
M  V30 7 C 3.508734 -0.801286 -2.476771 0
M  V30 8 C 3.042240 -0.130608 -1.369350 0
M  V30 9 C 1.864183 -0.409244 -0.736107 0
M  V30 10 C 1.446964 0.318605 0.421709 0
M  V30 11 N 0.349035 0.117493 1.154061 0
M  V30 12 C -0.030860 0.796496 2.238887 0
M  V30 13 C 0.758820 1.827437 2.696511 0
M  V30 14 O 0.157276 2.302179 3.747428 0
M  V30 15 C -0.959688 1.664926 4.011957 0
M  V30 16 C -1.919741 1.799038 4.996621 0
M  V30 17 C -3.024351 0.984507 5.053497 0
M  V30 18 C -3.168577 0.001449 4.087195 0
M  V30 19 Br -4.699390 -1.138580 4.153522 0
M  V30 20 C -2.237557 -0.172311 3.083767 0
M  V30 21 C -1.137493 0.664195 3.055257 0
M  V30 22 C 1.909525 2.078861 1.974077 0
M  V30 23 O 2.597883 3.022581 2.423005 0
M  V30 24 N 2.190715 1.328763 0.896197 0
M  V30 25 H -0.825805 -2.889953 1.000129 0
M  V30 26 H 0.193052 -3.879225 -0.054829 0
M  V30 27 H 0.992677 -2.594643 0.978130 0
M  V30 28 H -0.837690 -1.097931 -0.372732 0
M  V30 29 H -2.015786 -2.786794 -1.401692 0
M  V30 30 H -0.564913 -3.699580 -1.779776 0
M  V30 31 H -0.913593 -2.277050 -2.788133 0
M  V30 32 H 1.001346 -2.966718 -2.853494 0
M  V30 33 H 3.089465 -2.387703 -3.882272 0
M  V30 34 H 4.436631 -0.599907 -2.995362 0
M  V30 35 H 3.739654 0.641075 -1.078120 0
M  V30 36 H -1.780849 2.572050 5.734278 0
M  V30 37 H -3.737864 1.145410 5.853304 0
M  V30 38 H -2.324512 -0.931513 2.316237 0
M  V30 39 H 3.089213 1.663576 0.485048 0
M  V30 END ATOM
M  V30 BEGIN BOND
M  V30 1 1 1 2
M  V30 2 1 2 3
M  V30 3 1 2 4
M  V30 4 2 4 5
M  V30 5 1 5 6
M  V30 6 2 6 7
M  V30 7 1 7 8
M  V30 8 2 8 9
M  V30 9 1 9 10
M  V30 10 2 10 11
M  V30 11 1 11 12
M  V30 12 2 12 13
M  V30 13 1 13 14
M  V30 14 1 14 15
M  V30 15 2 15 16
M  V30 16 1 16 17
M  V30 17 2 17 18
M  V30 18 1 18 19
M  V30 19 1 18 20
M  V30 20 2 20 21
M  V30 21 1 13 22
M  V30 22 2 22 23
M  V30 23 1 22 24
M  V30 24 1 9 4
M  V30 25 1 24 10
M  V30 26 1 21 12
M  V30 27 1 21 15
M  V30 28 1 1 25
M  V30 29 1 1 26
M  V30 30 1 1 27
M  V30 31 1 2 28
M  V30 32 1 3 29
M  V30 33 1 3 30
M  V30 34 1 3 31
M  V30 35 1 5 32
M  V30 36 1 6 33
M  V30 37 1 7 34
M  V30 38 1 8 35
M  V30 39 1 16 36
M  V30 40 1 17 37
M  V30 41 1 20 38
M  V30 42 1 24 39
M  V30 END BOND
M  V30 END CTAB
M  END
>  <Dataset>  (86) 
ChEMBL_Kinases

>  <Ligand_Instance>  (86) 
nan

>  <PDB_ID>  (86) 
nan

>  <Standardized_SMILES>  (86) 
CC(C)c1ccccc1-c1nc2c(oc3ccc(Br)cc32)c(=O)[nH]1

>  <Name>  (86) 
nan

>  <Pocket>  (86) 
nan

>  <ATP_Site>  (86) 
nan

>  <Peripheral>  (86) 
nan

>  <Num_H_Atoms_ProtBoundConf>  (86) 
nan

>  <Num_Resolved_Atoms>  (86) 
nan

>  <Num_Not_Resolved_Atoms>  (86) 
nan

$$$$
CHEMBL2035620
     RDKit          3D

  0  0  0  0  0  0  0  0  0  0999 V3000
M  V30 BEGIN CTAB
M  V30 COUNTS 30 33 0 0 0
M  V30 BEGIN ATOM
M  V30 1 O 1.374913 -3.037279 3.583707 0
M  V30 2 C 1.013055 -2.269260 2.659532 0
M  V30 3 N 1.743637 -2.111993 1.541179 0
M  V30 4 C 1.397919 -1.302972 0.526727 0
M  V30 5 C 2.181910 -1.125171 -0.689157 0
M  V30 6 C 3.371672 -1.780064 -0.918519 0
M  V30 7 C 4.147582 -1.645030 -2.050333 0
M  V30 8 C 3.660683 -0.765727 -3.024621 0
M  V30 9 F 4.426510 -0.625299 -4.154220 0
M  V30 10 C 2.472079 -0.091576 -2.830250 0
M  V30 11 C 1.730195 -0.267246 -1.666716 0
M  V30 12 Cl 0.248427 0.630078 -1.523814 0
M  V30 13 N 0.243461 -0.633296 0.689553 0
M  V30 14 C -0.545418 -0.733518 1.775541 0
M  V30 15 C -0.169202 -1.571798 2.805904 0
M  V30 16 O -1.095428 -1.485902 3.725268 0
M  V30 17 C -2.041689 -0.654095 3.364407 0
M  V30 18 C -3.206829 -0.238514 3.983558 0
M  V30 19 C -4.011377 0.670124 3.324819 0
M  V30 20 C -3.697009 1.183456 2.064877 0
M  V30 21 Br -4.826284 2.437679 1.177244 0
M  V30 22 C -2.525776 0.774701 1.426766 0
M  V30 23 C -1.750778 -0.133639 2.119101 0
M  V30 24 H 2.628207 -2.659232 1.476031 0
M  V30 25 H 3.774363 -2.464734 -0.187092 0
M  V30 26 H 5.071995 -2.168460 -2.203028 0
M  V30 27 H 2.158442 0.574847 -3.632601 0
M  V30 28 H -3.426992 -0.645847 4.949520 0
M  V30 29 H -4.932661 0.999975 3.812195 0
M  V30 30 H -2.212731 1.122651 0.457328 0
M  V30 END ATOM
M  V30 BEGIN BOND
M  V30 1 2 1 2
M  V30 2 1 2 3
M  V30 3 1 3 4
M  V30 4 1 4 5
M  V30 5 2 5 6
M  V30 6 1 6 7
M  V30 7 2 7 8
M  V30 8 1 8 9
M  V30 9 1 8 10
M  V30 10 2 10 11
M  V30 11 1 11 12
M  V30 12 2 4 13
M  V30 13 1 13 14
M  V30 14 2 14 15
M  V30 15 1 15 16
M  V30 16 1 16 17
M  V30 17 2 17 18
M  V30 18 1 18 19
M  V30 19 2 19 20
M  V30 20 1 20 21
M  V30 21 1 20 22
M  V30 22 2 22 23
M  V30 23 1 15 2
M  V30 24 1 23 17
M  V30 25 1 11 5
M  V30 26 1 23 14
M  V30 27 1 3 24
M  V30 28 1 6 25
M  V30 29 1 7 26
M  V30 30 1 10 27
M  V30 31 1 18 28
M  V30 32 1 19 29
M  V30 33 1 22 30
M  V30 END BOND
M  V30 END CTAB
M  END
>  <Dataset>  (87) 
ChEMBL_Kinases

>  <Ligand_Instance>  (87) 
nan

>  <PDB_ID>  (87) 
nan

>  <Standardized_SMILES>  (87) 
O=c1[nH]c(-c2ccc(F)cc2Cl)nc2c1oc1ccc(Br)cc12

>  <Name>  (87) 
nan

>  <Pocket>  (87) 
nan

>  <ATP_Site>  (87) 
nan

>  <Peripheral>  (87) 
nan

>  <Num_H_Atoms_ProtBoundConf>  (87) 
nan

>  <Num_Resolved_Atoms>  (87) 
nan

>  <Num_Not_Resolved_Atoms>  (87) 
nan

$$$$
CHEMBL2035621
     RDKit          3D

  0  0  0  0  0  0  0  0  0  0999 V3000
M  V30 BEGIN CTAB
M  V30 COUNTS 30 33 0 0 0
M  V30 BEGIN ATOM
M  V30 1 O 1.974370 -2.021533 3.892194 0
M  V30 2 C 1.405872 -1.577296 2.861250 0
M  V30 3 N 2.003280 -1.648528 1.658482 0
M  V30 4 C 1.455501 -1.195280 0.519473 0
M  V30 5 C 2.095562 -1.268263 -0.788124 0
M  V30 6 C 3.343895 -1.819492 -0.975477 0
M  V30 7 C 3.986663 -1.908005 -2.200407 0
M  V30 8 F 5.203585 -2.451226 -2.349081 0
M  V30 9 C 3.311962 -1.400362 -3.310800 0
M  V30 10 C 2.060878 -0.845803 -3.135264 0
M  V30 11 C 1.434354 -0.768535 -1.889241 0
M  V30 12 Cl -0.154234 -0.049791 -1.750505 0
M  V30 13 N 0.235210 -0.647213 0.649895 0
M  V30 14 C -0.434066 -0.535374 1.812206 0
M  V30 15 C 0.153491 -1.010016 2.967353 0
M  V30 16 O -0.662460 -0.802911 3.975507 0
M  V30 17 C -1.765369 -0.212668 3.544981 0
M  V30 18 C -2.919227 0.213278 4.201622 0
M  V30 19 C -3.890964 0.803054 3.419321 0
M  V30 20 C -3.823543 1.007183 2.057461 0
M  V30 21 Br -5.255388 1.839544 1.116656 0
M  V30 22 C -2.660534 0.575078 1.411686 0
M  V30 23 C -1.666862 -0.019439 2.162108 0
M  V30 24 H 2.949377 -2.085738 1.628397 0
M  V30 25 H 3.902746 -2.222200 -0.158438 0
M  V30 26 H 3.759427 -1.436036 -4.313448 0
M  V30 27 H 1.514993 -0.440701 -4.001201 0
M  V30 28 H -3.010983 0.073982 5.254549 0
M  V30 29 H -4.781254 1.122699 3.978005 0
M  V30 30 H -2.563405 0.714453 0.343744 0
M  V30 END ATOM
M  V30 BEGIN BOND
M  V30 1 2 1 2
M  V30 2 1 2 3
M  V30 3 1 3 4
M  V30 4 1 4 5
M  V30 5 2 5 6
M  V30 6 1 6 7
M  V30 7 1 7 8
M  V30 8 2 7 9
M  V30 9 1 9 10
M  V30 10 2 10 11
M  V30 11 1 11 12
M  V30 12 2 4 13
M  V30 13 1 13 14
M  V30 14 2 14 15
M  V30 15 1 15 16
M  V30 16 1 16 17
M  V30 17 2 17 18
M  V30 18 1 18 19
M  V30 19 2 19 20
M  V30 20 1 20 21
M  V30 21 1 20 22
M  V30 22 2 22 23
M  V30 23 1 15 2
M  V30 24 1 23 17
M  V30 25 1 11 5
M  V30 26 1 23 14
M  V30 27 1 3 24
M  V30 28 1 6 25
M  V30 29 1 9 26
M  V30 30 1 10 27
M  V30 31 1 18 28
M  V30 32 1 19 29
M  V30 33 1 22 30
M  V30 END BOND
M  V30 END CTAB
M  END
>  <Dataset>  (88) 
ChEMBL_Kinases

>  <Ligand_Instance>  (88) 
nan

>  <PDB_ID>  (88) 
nan

>  <Standardized_SMILES>  (88) 
O=c1[nH]c(-c2cc(F)ccc2Cl)nc2c1oc1ccc(Br)cc12

>  <Name>  (88) 
nan

>  <Pocket>  (88) 
nan

>  <ATP_Site>  (88) 
nan

>  <Peripheral>  (88) 
nan

>  <Num_H_Atoms_ProtBoundConf>  (88) 
nan

>  <Num_Resolved_Atoms>  (88) 
nan

>  <Num_Not_Resolved_Atoms>  (88) 
nan

$$$$
CHEMBL2035622
     RDKit          3D

  0  0  0  0  0  0  0  0  0  0999 V3000
M  V30 BEGIN CTAB
M  V30 COUNTS 30 33 0 0 0
M  V30 BEGIN ATOM
M  V30 1 O 2.299560 0.101131 4.028167 0
M  V30 2 C 1.662509 -0.142605 2.991160 0
M  V30 3 N 2.262041 -0.456338 1.833022 0
M  V30 4 C 1.664552 -0.732795 0.672368 0
M  V30 5 C 2.281407 -1.073908 -0.591124 0
M  V30 6 C 3.619579 -1.187492 -0.870768 0
M  V30 7 F 4.515757 -0.965086 0.114611 0
M  V30 8 C 4.150239 -1.514242 -2.088475 0
M  V30 9 C 3.320878 -1.755336 -3.138988 0
M  V30 10 C 1.968141 -1.657863 -2.924458 0
M  V30 11 C 1.478333 -1.326167 -1.682235 0
M  V30 12 Cl -0.279984 -1.226993 -1.511532 0
M  V30 13 N 0.333699 -0.672784 0.742529 0
M  V30 14 C -0.373148 -0.370471 1.842439 0
M  V30 15 C 0.288408 -0.092168 3.018316 0
M  V30 16 O -0.636738 0.160884 3.897486 0
M  V30 17 C -1.850683 0.065845 3.372968 0
M  V30 18 C -3.126784 0.234524 3.876932 0
M  V30 19 C -4.244628 0.068720 3.086304 0
M  V30 20 C -4.095465 -0.278362 1.741084 0
M  V30 21 Br -5.652673 -0.506128 0.652336 0
M  V30 22 C -2.825686 -0.455733 1.202180 0
M  V30 23 C -1.739471 -0.281536 2.021850 0
M  V30 24 H 3.299085 -0.477653 1.878347 0
M  V30 25 H 5.206868 -1.590080 -2.254840 0
M  V30 26 H 3.645374 -2.019060 -4.134752 0
M  V30 27 H 1.284346 -1.843360 -3.738428 0
M  V30 28 H -3.292059 0.499118 4.896009 0
M  V30 29 H -5.243679 0.202199 3.486439 0
M  V30 30 H -2.716901 -0.723402 0.163956 0
M  V30 END ATOM
M  V30 BEGIN BOND
M  V30 1 2 1 2
M  V30 2 1 2 3
M  V30 3 1 3 4
M  V30 4 1 4 5
M  V30 5 2 5 6
M  V30 6 1 6 7
M  V30 7 1 6 8
M  V30 8 2 8 9
M  V30 9 1 9 10
M  V30 10 2 10 11
M  V30 11 1 11 12
M  V30 12 2 4 13
M  V30 13 1 13 14
M  V30 14 2 14 15
M  V30 15 1 15 16
M  V30 16 1 16 17
M  V30 17 2 17 18
M  V30 18 1 18 19
M  V30 19 2 19 20
M  V30 20 1 20 21
M  V30 21 1 20 22
M  V30 22 2 22 23
M  V30 23 1 15 2
M  V30 24 1 23 17
M  V30 25 1 11 5
M  V30 26 1 23 14
M  V30 27 1 3 24
M  V30 28 1 8 25
M  V30 29 1 9 26
M  V30 30 1 10 27
M  V30 31 1 18 28
M  V30 32 1 19 29
M  V30 33 1 22 30
M  V30 END BOND
M  V30 END CTAB
M  END
>  <Dataset>  (89) 
ChEMBL_Kinases

>  <Ligand_Instance>  (89) 
nan

>  <PDB_ID>  (89) 
nan

>  <Standardized_SMILES>  (89) 
O=c1[nH]c(-c2c(F)cccc2Cl)nc2c1oc1ccc(Br)cc12

>  <Name>  (89) 
nan

>  <Pocket>  (89) 
nan

>  <ATP_Site>  (89) 
nan

>  <Peripheral>  (89) 
nan

>  <Num_H_Atoms_ProtBoundConf>  (89) 
nan

>  <Num_Resolved_Atoms>  (89) 
nan

>  <Num_Not_Resolved_Atoms>  (89) 
nan

$$$$
CHEMBL2035623
     RDKit          3D

  0  0  0  0  0  0  0  0  0  0999 V3000
M  V30 BEGIN CTAB
M  V30 COUNTS 30 33 0 0 0
M  V30 BEGIN ATOM
M  V30 1 O 1.427854 -2.549889 3.887072 0
M  V30 2 C 1.050588 -1.940634 2.863006 0
M  V30 3 N 1.806010 -1.910513 1.750454 0
M  V30 4 C 1.453459 -1.273476 0.622181 0
M  V30 5 C 2.264022 -1.234296 -0.588930 0
M  V30 6 C 3.487862 -1.858779 -0.687707 0
M  V30 7 C 4.285290 -1.842875 -1.821895 0
M  V30 8 C 3.770673 -1.132452 -2.913515 0
M  V30 9 C 2.548483 -0.493636 -2.853264 0
M  V30 10 Cl 1.917426 0.390955 -4.225866 0
M  V30 11 C 1.797450 -0.546600 -1.688948 0
M  V30 12 Cl 0.261035 0.268453 -1.643558 0
M  V30 13 N 0.264821 -0.645770 0.664514 0
M  V30 14 C -0.547827 -0.626912 1.731639 0
M  V30 15 C -0.165455 -1.288301 2.880622 0
M  V30 16 O -1.092174 -1.152707 3.808849 0
M  V30 17 C -2.088932 -0.426608 3.338983 0
M  V30 18 C -3.299848 0.015760 3.880845 0
M  V30 19 C -4.102046 0.777005 3.055130 0
M  V30 20 C -3.799589 1.126745 1.755238 0
M  V30 21 Br -4.988987 2.188772 0.699620 0
M  V30 22 C -2.585524 0.679050 1.222536 0
M  V30 23 C -1.779071 -0.080791 2.038858 0
M  V30 24 H 2.713579 -2.416433 1.785543 0
M  V30 25 H 3.899245 -2.408206 0.138149 0
M  V30 26 H 5.236726 -2.340067 -1.869069 0
M  V30 27 H 4.381204 -1.109540 -3.809029 0
M  V30 28 H -3.555743 -0.243413 4.887681 0
M  V30 29 H -5.060907 1.136158 3.461764 0
M  V30 30 H -2.296751 0.921860 0.212001 0
M  V30 END ATOM
M  V30 BEGIN BOND
M  V30 1 2 1 2
M  V30 2 1 2 3
M  V30 3 1 3 4
M  V30 4 1 4 5
M  V30 5 2 5 6
M  V30 6 1 6 7
M  V30 7 2 7 8
M  V30 8 1 8 9
M  V30 9 1 9 10
M  V30 10 2 9 11
M  V30 11 1 11 12
M  V30 12 2 4 13
M  V30 13 1 13 14
M  V30 14 2 14 15
M  V30 15 1 15 16
M  V30 16 1 16 17
M  V30 17 2 17 18
M  V30 18 1 18 19
M  V30 19 2 19 20
M  V30 20 1 20 21
M  V30 21 1 20 22
M  V30 22 2 22 23
M  V30 23 1 15 2
M  V30 24 1 23 17
M  V30 25 1 11 5
M  V30 26 1 23 14
M  V30 27 1 3 24
M  V30 28 1 6 25
M  V30 29 1 7 26
M  V30 30 1 8 27
M  V30 31 1 18 28
M  V30 32 1 19 29
M  V30 33 1 22 30
M  V30 END BOND
M  V30 END CTAB
M  END
>  <Dataset>  (90) 
ChEMBL_Kinases

>  <Ligand_Instance>  (90) 
nan

>  <PDB_ID>  (90) 
nan

>  <Standardized_SMILES>  (90) 
O=c1[nH]c(-c2cccc(Cl)c2Cl)nc2c1oc1ccc(Br)cc12

>  <Name>  (90) 
nan

>  <Pocket>  (90) 
nan

>  <ATP_Site>  (90) 
nan

>  <Peripheral>  (90) 
nan

>  <Num_H_Atoms_ProtBoundConf>  (90) 
nan

>  <Num_Resolved_Atoms>  (90) 
nan

>  <Num_Not_Resolved_Atoms>  (90) 
nan

$$$$
CHEMBL2035624
     RDKit          3D

  0  0  0  0  0  0  0  0  0  0999 V3000
M  V30 BEGIN CTAB
M  V30 COUNTS 30 33 0 0 0
M  V30 BEGIN ATOM
M  V30 1 O 1.267345 -3.105940 3.574883 0
M  V30 2 C 0.944968 -2.314514 2.646452 0
M  V30 3 N 1.693344 -2.161840 1.539202 0
M  V30 4 C 1.381814 -1.330154 0.532340 0
M  V30 5 C 2.187465 -1.158556 -0.671553 0
M  V30 6 C 3.362268 -1.842623 -0.895263 0
M  V30 7 C 4.150191 -1.707312 -2.019380 0
M  V30 8 C 3.733823 -0.816138 -3.003738 0
M  V30 9 Cl 4.673696 -0.584329 -4.460078 0
M  V30 10 C 2.558626 -0.124695 -2.791667 0
M  V30 11 C 1.770529 -0.274374 -1.643793 0
M  V30 12 Cl 0.297813 0.662726 -1.493806 0
M  V30 13 N 0.244549 -0.630946 0.688198 0
M  V30 14 C -0.559083 -0.725683 1.763729 0
M  V30 15 C -0.219310 -1.587366 2.787434 0
M  V30 16 O -1.158479 -1.496619 3.714056 0
M  V30 17 C -2.072211 -0.628602 3.337184 0
M  V30 18 C -3.241056 -0.187335 3.952105 0
M  V30 19 C -4.028272 0.755097 3.308356 0
M  V30 20 C -3.668332 1.256858 2.073545 0
M  V30 21 Br -4.819318 2.555574 1.262192 0
M  V30 22 C -2.505697 0.839454 1.426614 0
M  V30 23 C -1.754832 -0.097788 2.103475 0
M  V30 24 H 2.563145 -2.732429 1.478723 0
M  V30 25 H 3.735080 -2.547125 -0.167088 0
M  V30 26 H 5.072748 -2.269843 -2.153513 0
M  V30 27 H 2.207856 0.576570 -3.539763 0
M  V30 28 H -3.466925 -0.618135 4.917043 0
M  V30 29 H -4.918277 1.046984 3.848900 0
M  V30 30 H -2.230594 1.231938 0.468116 0
M  V30 END ATOM
M  V30 BEGIN BOND
M  V30 1 2 1 2
M  V30 2 1 2 3
M  V30 3 1 3 4
M  V30 4 1 4 5
M  V30 5 2 5 6
M  V30 6 1 6 7
M  V30 7 2 7 8
M  V30 8 1 8 9
M  V30 9 1 8 10
M  V30 10 2 10 11
M  V30 11 1 11 12
M  V30 12 2 4 13
M  V30 13 1 13 14
M  V30 14 2 14 15
M  V30 15 1 15 16
M  V30 16 1 16 17
M  V30 17 2 17 18
M  V30 18 1 18 19
M  V30 19 2 19 20
M  V30 20 1 20 21
M  V30 21 1 20 22
M  V30 22 2 22 23
M  V30 23 1 15 2
M  V30 24 1 23 17
M  V30 25 1 11 5
M  V30 26 1 23 14
M  V30 27 1 3 24
M  V30 28 1 6 25
M  V30 29 1 7 26
M  V30 30 1 10 27
M  V30 31 1 18 28
M  V30 32 1 19 29
M  V30 33 1 22 30
M  V30 END BOND
M  V30 END CTAB
M  END
>  <Dataset>  (91) 
ChEMBL_Kinases

>  <Ligand_Instance>  (91) 
nan

>  <PDB_ID>  (91) 
nan

>  <Standardized_SMILES>  (91) 
O=c1[nH]c(-c2ccc(Cl)cc2Cl)nc2c1oc1ccc(Br)cc12

>  <Name>  (91) 
nan

>  <Pocket>  (91) 
nan

>  <ATP_Site>  (91) 
nan

>  <Peripheral>  (91) 
nan

>  <Num_H_Atoms_ProtBoundConf>  (91) 
nan

>  <Num_Resolved_Atoms>  (91) 
nan

>  <Num_Not_Resolved_Atoms>  (91) 
nan

$$$$
CHEMBL2035641
     RDKit          3D

  0  0  0  0  0  0  0  0  0  0999 V3000
M  V30 BEGIN CTAB
M  V30 COUNTS 47 51 0 0 0
M  V30 BEGIN ATOM
M  V30 1 C -2.131696 -3.806610 3.376164 0
M  V30 2 N -2.385039 -2.555476 2.685631 0
M  V30 3 C -1.589283 -2.539845 1.495633 0
M  V30 4 C -2.170470 -1.744788 0.359699 0
M  V30 5 N -3.115850 -0.748080 0.733358 0
M  V30 6 C -2.594848 0.447247 1.304692 0
M  V30 7 C -1.665545 1.177095 0.402250 0
M  V30 8 N -0.348275 0.840376 0.498810 0
M  V30 9 C 0.589184 1.430885 -0.265419 0
M  V30 10 C 0.229885 2.412124 -1.184158 0
M  V30 11 O 1.317873 2.821667 -1.794394 0
M  V30 12 C 2.366381 2.169892 -1.332491 0
M  V30 13 C 3.727750 2.161380 -1.573342 0
M  V30 14 C 4.604951 1.334090 -0.903947 0
M  V30 15 C 4.117898 0.461660 0.060667 0
M  V30 16 C 5.029569 -0.448227 0.806645 0
M  V30 17 C 4.478980 -1.838180 1.030462 0
M  V30 18 C 4.625126 -0.882485 2.184475 0
M  V30 19 C 2.784461 0.422648 0.344085 0
M  V30 20 C 1.958735 1.275612 -0.360507 0
M  V30 21 C -1.110469 2.706867 -1.234366 0
M  V30 22 O -1.460184 3.599206 -2.065650 0
M  V30 23 N -2.052092 2.122022 -0.475058 0
M  V30 24 C -4.153379 -1.287615 1.549584 0
M  V30 25 C -3.786450 -2.458232 2.392876 0
M  V30 26 H -2.875261 -4.579643 3.070061 0
M  V30 27 H -1.146142 -4.236211 3.042314 0
M  V30 28 H -2.063793 -3.702717 4.473016 0
M  V30 29 H -0.580026 -2.141611 1.797910 0
M  V30 30 H -1.391278 -3.585059 1.180329 0
M  V30 31 H -2.717760 -2.480690 -0.291793 0
M  V30 32 H -1.339719 -1.386679 -0.245142 0
M  V30 33 H -2.114888 0.256994 2.305005 0
M  V30 34 H -3.441952 1.118911 1.510437 0
M  V30 35 H 4.101730 2.848761 -2.331544 0
M  V30 36 H 5.678331 1.344128 -1.110650 0
M  V30 37 H 6.117921 -0.406588 0.564922 0
M  V30 38 H 3.446858 -2.066740 0.684788 0
M  V30 39 H 5.133083 -2.720097 0.974141 0
M  V30 40 H 3.733935 -0.384469 2.599707 0
M  V30 41 H 5.474435 -1.128733 2.865462 0
M  V30 42 H 2.367011 -0.246238 1.091699 0
M  V30 43 H -3.066053 2.357100 -0.525195 0
M  V30 44 H -4.999257 -1.591590 0.897840 0
M  V30 45 H -4.575468 -0.473343 2.208117 0
M  V30 46 H -4.111225 -3.429014 1.938315 0
M  V30 47 H -4.307610 -2.383973 3.386157 0
M  V30 END ATOM
M  V30 BEGIN BOND
M  V30 1 1 1 2
M  V30 2 1 2 3
M  V30 3 1 3 4
M  V30 4 1 4 5
M  V30 5 1 5 6
M  V30 6 1 6 7
M  V30 7 2 7 8
M  V30 8 1 8 9
M  V30 9 2 9 10
M  V30 10 1 10 11
M  V30 11 1 11 12
M  V30 12 2 12 13
M  V30 13 1 13 14
M  V30 14 2 14 15
M  V30 15 1 15 16
M  V30 16 1 16 17
M  V30 17 1 17 18
M  V30 18 1 15 19
M  V30 19 2 19 20
M  V30 20 1 10 21
M  V30 21 2 21 22
M  V30 22 1 21 23
M  V30 23 1 5 24
M  V30 24 1 24 25
M  V30 25 1 25 2
M  V30 26 1 23 7
M  V30 27 1 20 9
M  V30 28 1 20 12
M  V30 29 1 18 16
M  V30 30 1 1 26
M  V30 31 1 1 27
M  V30 32 1 1 28
M  V30 33 1 3 29
M  V30 34 1 3 30
M  V30 35 1 4 31
M  V30 36 1 4 32
M  V30 37 1 6 33
M  V30 38 1 6 34
M  V30 39 1 13 35
M  V30 40 1 14 36
M  V30 41 1 16 37
M  V30 42 1 17 38
M  V30 43 1 17 39
M  V30 44 1 18 40
M  V30 45 1 18 41
M  V30 46 1 19 42
M  V30 47 1 23 43
M  V30 48 1 24 44
M  V30 49 1 24 45
M  V30 50 1 25 46
M  V30 51 1 25 47
M  V30 END BOND
M  V30 END CTAB
M  END
>  <Dataset>  (92) 
ChEMBL_Kinases

>  <Ligand_Instance>  (92) 
nan

>  <PDB_ID>  (92) 
nan

>  <Standardized_SMILES>  (92) 
CN1CCN(Cc2nc3c(oc4ccc(C5CC5)cc43)c(=O)[nH]2)CC1

>  <Name>  (92) 
nan

>  <Pocket>  (92) 
nan

>  <ATP_Site>  (92) 
nan

>  <Peripheral>  (92) 
nan

>  <Num_H_Atoms_ProtBoundConf>  (92) 
nan

>  <Num_Resolved_Atoms>  (92) 
nan

>  <Num_Not_Resolved_Atoms>  (92) 
nan

$$$$
CHEMBL2035626
     RDKit          3D

  0  0  0  0  0  0  0  0  0  0999 V3000
M  V30 BEGIN CTAB
M  V30 COUNTS 35 38 0 0 0
M  V30 BEGIN ATOM
M  V30 1 N 2.160208 -4.846129 4.168217 0
M  V30 2 C 2.448527 -4.878363 2.727342 0
M  V30 3 C 1.533946 -3.929026 2.044469 0
M  V30 4 C 1.949987 -2.627842 1.890088 0
M  V30 5 C 1.136629 -1.718889 1.265450 0
M  V30 6 C -0.112722 -2.007770 0.758116 0
M  V30 7 C -0.870575 -0.960403 0.122353 0
M  V30 8 N -0.314307 0.258297 0.056001 0
M  V30 9 C -0.858961 1.341185 -0.489434 0
M  V30 10 C -2.099636 1.277471 -1.053294 0
M  V30 11 O -2.370634 2.471348 -1.500349 0
M  V30 12 C -1.381536 3.315217 -1.263508 0
M  V30 13 C -1.151113 4.652334 -1.514189 0
M  V30 14 C 0.021354 5.268846 -1.130507 0
M  V30 15 C 0.998089 4.539324 -0.477511 0
M  V30 16 Br 2.607436 5.416907 0.040672 0
M  V30 17 C 0.828957 3.182415 -0.192824 0
M  V30 18 C -0.365050 2.619394 -0.600937 0
M  V30 19 C -2.716098 0.050172 -1.012818 0
M  V30 20 O -3.855850 -0.076806 -1.512465 0
M  V30 21 N -2.075154 -0.966205 -0.440132 0
M  V30 22 C -0.472255 -3.316457 0.940955 0
M  V30 23 Cl -1.993966 -3.914189 0.388895 0
M  V30 24 C 0.292567 -4.276492 1.556586 0
M  V30 25 H 1.923348 -3.825869 4.360416 0
M  V30 26 H 1.213937 -5.324900 4.260502 0
M  V30 27 H 2.267035 -5.925295 2.412662 0
M  V30 28 H 3.499205 -4.613813 2.602325 0
M  V30 29 H 2.913667 -2.330642 2.261465 0
M  V30 30 H 1.545823 -0.704242 1.184759 0
M  V30 31 H -1.922299 5.205803 -2.023741 0
M  V30 32 H 0.107686 6.319948 -1.371959 0
M  V30 33 H 1.573921 2.596838 0.313042 0
M  V30 34 H -2.588831 -1.848762 -0.443993 0
M  V30 35 H 0.020828 -5.294858 1.702636 0
M  V30 END ATOM
M  V30 BEGIN BOND
M  V30 1 1 1 2
M  V30 2 1 2 3
M  V30 3 2 3 4
M  V30 4 1 4 5
M  V30 5 2 5 6
M  V30 6 1 6 7
M  V30 7 2 7 8
M  V30 8 1 8 9
M  V30 9 2 9 10
M  V30 10 1 10 11
M  V30 11 1 11 12
M  V30 12 2 12 13
M  V30 13 1 13 14
M  V30 14 2 14 15
M  V30 15 1 15 16
M  V30 16 1 15 17
M  V30 17 2 17 18
M  V30 18 1 10 19
M  V30 19 2 19 20
M  V30 20 1 19 21
M  V30 21 1 6 22
M  V30 22 1 22 23
M  V30 23 2 22 24
M  V30 24 1 24 3
M  V30 25 1 21 7
M  V30 26 1 18 9
M  V30 27 1 18 12
M  V30 28 1 1 25
M  V30 29 1 1 26
M  V30 30 1 2 27
M  V30 31 1 2 28
M  V30 32 1 4 29
M  V30 33 1 5 30
M  V30 34 1 13 31
M  V30 35 1 14 32
M  V30 36 1 17 33
M  V30 37 1 21 34
M  V30 38 1 24 35
M  V30 END BOND
M  V30 END CTAB
M  END
>  <Dataset>  (93) 
ChEMBL_Kinases

>  <Ligand_Instance>  (93) 
nan

>  <PDB_ID>  (93) 
nan

>  <Standardized_SMILES>  (93) 
NCc1ccc(-c2nc3c(oc4ccc(Br)cc43)c(=O)[nH]2)c(Cl)c1

>  <Name>  (93) 
nan

>  <Pocket>  (93) 
nan

>  <ATP_Site>  (93) 
nan

>  <Peripheral>  (93) 
nan

>  <Num_H_Atoms_ProtBoundConf>  (93) 
nan

>  <Num_Resolved_Atoms>  (93) 
nan

>  <Num_Not_Resolved_Atoms>  (93) 
nan

$$$$
CHEMBL2035627
     RDKit          3D

  0  0  0  0  0  0  0  0  0  0999 V3000
M  V30 BEGIN CTAB
M  V30 COUNTS 55 59 0 0 0
M  V30 BEGIN ATOM
M  V30 1 O 1.696940 3.462154 0.244356 0
M  V30 2 C 1.162554 2.445503 0.780008 0
M  V30 3 N 1.327156 2.174352 2.158095 0
M  V30 4 C 2.137651 3.119831 2.920930 0
M  V30 5 C 2.193032 2.655279 4.360224 0
M  V30 6 N 2.768277 1.369758 4.419084 0
M  V30 7 C 4.119458 1.194596 4.114955 0
M  V30 8 C 4.485772 -0.179433 3.605008 0
M  V30 9 C 4.053382 -1.149839 4.699230 0
M  V30 10 C 2.553237 -1.049588 4.797022 0
M  V30 11 C 2.075229 0.342683 5.082606 0
M  V30 12 C 0.386015 1.598964 -0.108039 0
M  V30 13 C 0.272771 1.931025 -1.441410 0
M  V30 14 C -0.464768 1.143164 -2.329550 0
M  V30 15 C -1.108709 0.002259 -1.908158 0
M  V30 16 C -1.887755 -0.850342 -2.798744 0
M  V30 17 N -2.498756 -1.950713 -2.330800 0
M  V30 18 C -3.234263 -2.785515 -3.089294 0
M  V30 19 C -3.375754 -2.497140 -4.447487 0
M  V30 20 O -4.121098 -3.439793 -4.955702 0
M  V30 21 C -4.481753 -4.318806 -4.059551 0
M  V30 22 C -5.251315 -5.464037 -4.118845 0
M  V30 23 C -5.463482 -6.211716 -2.968223 0
M  V30 24 C -4.920630 -5.845950 -1.732426 0
M  V30 25 Br -5.235763 -6.900236 -0.175966 0
M  V30 26 C -4.148335 -4.692515 -1.684302 0
M  V30 27 C -3.941769 -3.956164 -2.826969 0
M  V30 28 C -2.754357 -1.359519 -4.973350 0
M  V30 29 O -2.868636 -1.085221 -6.181417 0
M  V30 30 N -2.047649 -0.607411 -4.109332 0
M  V30 31 C -1.006586 -0.347091 -0.573990 0
M  V30 32 Cl -1.785192 -1.788184 0.095744 0
M  V30 33 C -0.271333 0.449862 0.281162 0
M  V30 34 H 0.886496 1.339392 2.591091 0
M  V30 35 H 3.142478 3.173142 2.476956 0
M  V30 36 H 1.635902 4.132452 2.853404 0
M  V30 37 H 2.764753 3.420843 4.964781 0
M  V30 38 H 1.158864 2.704984 4.747507 0
M  V30 39 H 4.811215 1.372008 4.990928 0
M  V30 40 H 4.459429 1.914491 3.348544 0
M  V30 41 H 3.850538 -0.395096 2.709870 0
M  V30 42 H 5.559684 -0.197028 3.404155 0
M  V30 43 H 4.498988 -0.808336 5.653766 0
M  V30 44 H 4.323220 -2.183750 4.447132 0
M  V30 45 H 2.201773 -1.781226 5.550393 0
M  V30 46 H 2.135260 -1.365573 3.819230 0
M  V30 47 H 0.986758 0.437652 4.895709 0
M  V30 48 H 2.212996 0.499147 6.179977 0
M  V30 49 H 0.756633 2.825584 -1.857171 0
M  V30 50 H -0.516189 1.455322 -3.362014 0
M  V30 51 H -5.691211 -5.778893 -5.070807 0
M  V30 52 H -6.078605 -7.122660 -3.026915 0
M  V30 53 H -3.706815 -4.370173 -0.746162 0
M  V30 54 H -1.606787 0.223908 -4.546209 0
M  V30 55 H -0.203873 0.152659 1.338212 0
M  V30 END ATOM
M  V30 BEGIN BOND
M  V30 1 2 1 2
M  V30 2 1 2 3
M  V30 3 1 3 4
M  V30 4 1 4 5
M  V30 5 1 5 6
M  V30 6 1 6 7
M  V30 7 1 7 8
M  V30 8 1 8 9
M  V30 9 1 9 10
M  V30 10 1 10 11
M  V30 11 1 2 12
M  V30 12 2 12 13
M  V30 13 1 13 14
M  V30 14 2 14 15
M  V30 15 1 15 16
M  V30 16 2 16 17
M  V30 17 1 17 18
M  V30 18 2 18 19
M  V30 19 1 19 20
M  V30 20 1 20 21
M  V30 21 2 21 22
M  V30 22 1 22 23
M  V30 23 2 23 24
M  V30 24 1 24 25
M  V30 25 1 24 26
M  V30 26 2 26 27
M  V30 27 1 19 28
M  V30 28 2 28 29
M  V30 29 1 28 30
M  V30 30 1 15 31
M  V30 31 1 31 32
M  V30 32 2 31 33
M  V30 33 1 11 6
M  V30 34 1 33 12
M  V30 35 1 30 16
M  V30 36 1 27 18
M  V30 37 1 27 21
M  V30 38 1 3 34
M  V30 39 1 4 35
M  V30 40 1 4 36
M  V30 41 1 5 37
M  V30 42 1 5 38
M  V30 43 1 7 39
M  V30 44 1 7 40
M  V30 45 1 8 41
M  V30 46 1 8 42
M  V30 47 1 9 43
M  V30 48 1 9 44
M  V30 49 1 10 45
M  V30 50 1 10 46
M  V30 51 1 11 47
M  V30 52 1 11 48
M  V30 53 1 13 49
M  V30 54 1 14 50
M  V30 55 1 22 51
M  V30 56 1 23 52
M  V30 57 1 26 53
M  V30 58 1 30 54
M  V30 59 1 33 55
M  V30 END BOND
M  V30 END CTAB
M  END
>  <Dataset>  (94) 
ChEMBL_Kinases

>  <Ligand_Instance>  (94) 
nan

>  <PDB_ID>  (94) 
nan

>  <Standardized_SMILES>  (94) 
O=C(NCCN1CCCCC1)c1ccc(-c2nc3c(oc4ccc(Br)cc43)c(=O)[nH]2)c(Cl)c1

>  <Name>  (94) 
nan

>  <Pocket>  (94) 
nan

>  <ATP_Site>  (94) 
nan

>  <Peripheral>  (94) 
nan

>  <Num_H_Atoms_ProtBoundConf>  (94) 
nan

>  <Num_Resolved_Atoms>  (94) 
nan

>  <Num_Not_Resolved_Atoms>  (94) 
nan

$$$$
CHEMBL2035628
     RDKit          3D

  0  0  0  0  0  0  0  0  0  0999 V3000
M  V30 BEGIN CTAB
M  V30 COUNTS 50 54 0 0 0
M  V30 BEGIN ATOM
M  V30 1 O -4.087627 -3.868320 2.790068 0
M  V30 2 C -3.232216 -3.674503 1.891258 0
M  V30 3 N -2.714071 -2.474186 1.634961 0
M  V30 4 C -1.811563 -2.147610 0.719148 0
M  V30 5 C -1.210742 -0.882196 0.388363 0
M  V30 6 C -0.281774 -0.824162 -0.628577 0
M  V30 7 C 0.346850 0.326529 -1.020807 0
M  V30 8 C 0.096800 1.524597 -0.423922 0
M  V30 9 C 0.792161 2.703946 -0.928642 0
M  V30 10 N 2.072210 3.013319 -0.490344 0
M  V30 11 C 2.429055 3.319997 0.806790 0
M  V30 12 C 2.264432 2.220654 1.838906 0
M  V30 13 C 3.218766 2.544691 2.995177 0
M  V30 14 N 3.293128 3.987507 3.176644 0
M  V30 15 C 2.054026 4.641251 2.858745 0
M  V30 16 C 1.883319 4.637794 1.350764 0
M  V30 17 C -0.827070 1.500184 0.596311 0
M  V30 18 C -1.442239 0.333799 0.969408 0
M  V30 19 Cl -2.567787 0.514872 2.268519 0
M  V30 20 N -1.434723 -3.222622 0.014437 0
M  V30 21 C -1.876113 -4.469757 0.173001 0
M  V30 22 C -2.811720 -4.745326 1.139159 0
M  V30 23 O -3.051160 -6.029064 1.063615 0
M  V30 24 C -2.334507 -6.597384 0.116184 0
M  V30 25 C -2.207017 -7.887711 -0.368780 0
M  V30 26 C -1.337085 -8.169280 -1.410210 0
M  V30 27 C -0.572566 -7.149545 -1.988282 0
M  V30 28 Br 0.617389 -7.564689 -3.420800 0
M  V30 29 C -0.665091 -5.855462 -1.541168 0
M  V30 30 C -1.543560 -5.623336 -0.503409 0
M  V30 31 H -3.081699 -1.728045 2.241914 0
M  V30 32 H -0.014275 -1.745921 -1.171269 0
M  V30 33 H 1.060389 0.265863 -1.829898 0
M  V30 34 H 0.148457 3.621548 -0.828866 0
M  V30 35 H 0.843630 2.565945 -2.058688 0
M  V30 36 H 2.829952 3.010560 -1.210721 0
M  V30 37 H 3.560515 3.504936 0.808263 0
M  V30 38 H 1.277838 2.178120 2.303542 0
M  V30 39 H 2.635679 1.286099 1.386558 0
M  V30 40 H 4.229356 2.142156 2.837841 0
M  V30 41 H 2.807041 2.120338 3.927276 0
M  V30 42 H 4.101989 4.399249 2.672016 0
M  V30 43 H 1.230292 4.104338 3.345964 0
M  V30 44 H 2.145635 5.699948 3.181720 0
M  V30 45 H 2.422103 5.518971 0.947072 0
M  V30 46 H 0.814532 4.765481 1.131738 0
M  V30 47 H -1.017469 2.469304 1.065948 0
M  V30 48 H -2.792227 -8.684395 0.069431 0
M  V30 49 H -1.261167 -9.186120 -1.765108 0
M  V30 50 H -0.098554 -5.033802 -1.951984 0
M  V30 END ATOM
M  V30 BEGIN BOND
M  V30 1 2 1 2
M  V30 2 1 2 3
M  V30 3 1 3 4
M  V30 4 1 4 5
M  V30 5 2 5 6
M  V30 6 1 6 7
M  V30 7 2 7 8
M  V30 8 1 8 9
M  V30 9 1 9 10
M  V30 10 1 10 11
M  V30 11 1 11 12
M  V30 12 1 12 13
M  V30 13 1 13 14
M  V30 14 1 14 15
M  V30 15 1 15 16
M  V30 16 1 8 17
M  V30 17 2 17 18
M  V30 18 1 18 19
M  V30 19 2 4 20
M  V30 20 1 20 21
M  V30 21 2 21 22
M  V30 22 1 22 23
M  V30 23 1 23 24
M  V30 24 2 24 25
M  V30 25 1 25 26
M  V30 26 2 26 27
M  V30 27 1 27 28
M  V30 28 1 27 29
M  V30 29 2 29 30
M  V30 30 1 22 2
M  V30 31 1 30 24
M  V30 32 1 18 5
M  V30 33 1 30 21
M  V30 34 1 16 11
M  V30 35 1 3 31
M  V30 36 1 6 32
M  V30 37 1 7 33
M  V30 38 1 9 34
M  V30 39 1 9 35
M  V30 40 1 10 36
M  V30 41 1 11 37
M  V30 42 1 12 38
M  V30 43 1 12 39
M  V30 44 1 13 40
M  V30 45 1 13 41
M  V30 46 1 14 42
M  V30 47 1 15 43
M  V30 48 1 15 44
M  V30 49 1 16 45
M  V30 50 1 16 46
M  V30 51 1 17 47
M  V30 52 1 25 48
M  V30 53 1 26 49
M  V30 54 1 29 50
M  V30 END BOND
M  V30 END CTAB
M  END
>  <Dataset>  (95) 
ChEMBL_Kinases

>  <Ligand_Instance>  (95) 
nan

>  <PDB_ID>  (95) 
nan

>  <Standardized_SMILES>  (95) 
O=c1[nH]c(-c2ccc(CNC3CCNCC3)cc2Cl)nc2c1oc1ccc(Br)cc12

>  <Name>  (95) 
nan

>  <Pocket>  (95) 
nan

>  <ATP_Site>  (95) 
nan

>  <Peripheral>  (95) 
nan

>  <Num_H_Atoms_ProtBoundConf>  (95) 
nan

>  <Num_Resolved_Atoms>  (95) 
nan

>  <Num_Not_Resolved_Atoms>  (95) 
nan

$$$$
CHEMBL2035629
     RDKit          3D

  0  0  0  0  0  0  0  0  0  0999 V3000
M  V30 BEGIN CTAB
M  V30 COUNTS 55 59 0 0 0
M  V30 BEGIN ATOM
M  V30 1 O 1.923776 0.806643 1.742851 0
M  V30 2 C 1.048859 0.513150 2.579333 0
M  V30 3 C 1.364640 1.190513 3.860459 0
M  V30 4 C 2.684461 1.897407 3.640933 0
M  V30 5 N 3.149288 2.629694 4.799319 0
M  V30 6 C 4.446953 3.165802 4.470067 0
M  V30 7 C 4.379926 4.439693 3.673105 0
M  V30 8 C 3.873050 5.524248 4.606586 0
M  V30 9 C 2.918242 4.952820 5.632823 0
M  V30 10 C 2.252633 3.695095 5.168398 0
M  V30 11 N -0.025465 -0.328705 2.274840 0
M  V30 12 C -0.314061 -0.963288 1.047237 0
M  V30 13 C 0.429893 -0.868429 -0.107573 0
M  V30 14 C 0.082774 -1.521954 -1.267140 0
M  V30 15 C -1.032926 -2.316973 -1.356284 0
M  V30 16 C -1.443953 -3.036948 -2.554376 0
M  V30 17 N -2.570656 -3.780432 -2.508710 0
M  V30 18 C -2.993587 -4.473693 -3.605838 0
M  V30 19 C -2.240485 -4.399452 -4.773095 0
M  V30 20 O -2.832457 -5.135520 -5.677759 0
M  V30 21 C -3.928233 -5.698162 -5.201929 0
M  V30 22 C -4.896759 -6.545271 -5.720593 0
M  V30 23 C -5.941679 -6.942349 -4.890888 0
M  V30 24 C -6.049105 -6.520723 -3.562717 0
M  V30 25 Br -7.503323 -7.093835 -2.460888 0
M  V30 26 C -5.100577 -5.685176 -3.039055 0
M  V30 27 C -4.076672 -5.309271 -3.887375 0
M  V30 28 C -1.081849 -3.638459 -4.830408 0
M  V30 29 O -0.418695 -3.588303 -5.900091 0
M  V30 30 N -0.726992 -2.973873 -3.686961 0
M  V30 31 C -1.777291 -2.411299 -0.200692 0
M  V30 32 Cl -3.224488 -3.389926 -0.163716 0
M  V30 33 C -1.427109 -1.755802 0.959333 0
M  V30 34 H 0.540904 1.888844 4.081500 0
M  V30 35 H 1.425826 0.466774 4.690093 0
M  V30 36 H 2.578152 2.505293 2.732002 0
M  V30 37 H 3.436437 1.112501 3.442079 0
M  V30 38 H 5.072742 3.357556 5.373986 0
M  V30 39 H 5.055144 2.429851 3.873689 0
M  V30 40 H 3.757159 4.327887 2.758401 0
M  V30 41 H 5.409959 4.641669 3.301587 0
M  V30 42 H 3.432640 6.375209 4.065059 0
M  V30 43 H 4.757541 5.905334 5.156805 0
M  V30 44 H 2.145172 5.731236 5.793725 0
M  V30 45 H 3.429902 4.840883 6.609408 0
M  V30 46 H 1.627214 3.328274 6.015561 0
M  V30 47 H 1.536213 3.965772 4.354975 0
M  V30 48 H -0.646426 -0.458623 3.098317 0
M  V30 49 H 1.319722 -0.267374 -0.134990 0
M  V30 50 H 0.710783 -1.405630 -2.144226 0
M  V30 51 H -4.823668 -6.879162 -6.749964 0
M  V30 52 H -6.709355 -7.614721 -5.305095 0
M  V30 53 H -5.138266 -5.335890 -2.032923 0
M  V30 54 H 0.136204 -2.428840 -3.788859 0
M  V30 55 H -2.057050 -1.864997 1.856921 0
M  V30 END ATOM
M  V30 BEGIN BOND
M  V30 1 2 1 2
M  V30 2 1 2 3
M  V30 3 1 3 4
M  V30 4 1 4 5
M  V30 5 1 5 6
M  V30 6 1 6 7
M  V30 7 1 7 8
M  V30 8 1 8 9
M  V30 9 1 9 10
M  V30 10 1 2 11
M  V30 11 1 11 12
M  V30 12 2 12 13
M  V30 13 1 13 14
M  V30 14 2 14 15
M  V30 15 1 15 16
M  V30 16 2 16 17
M  V30 17 1 17 18
M  V30 18 2 18 19
M  V30 19 1 19 20
M  V30 20 1 20 21
M  V30 21 2 21 22
M  V30 22 1 22 23
M  V30 23 2 23 24
M  V30 24 1 24 25
M  V30 25 1 24 26
M  V30 26 2 26 27
M  V30 27 1 19 28
M  V30 28 2 28 29
M  V30 29 1 28 30
M  V30 30 1 15 31
M  V30 31 1 31 32
M  V30 32 2 31 33
M  V30 33 1 10 5
M  V30 34 1 33 12
M  V30 35 1 30 16
M  V30 36 1 27 18
M  V30 37 1 27 21
M  V30 38 1 3 34
M  V30 39 1 3 35
M  V30 40 1 4 36
M  V30 41 1 4 37
M  V30 42 1 6 38
M  V30 43 1 6 39
M  V30 44 1 7 40
M  V30 45 1 7 41
M  V30 46 1 8 42
M  V30 47 1 8 43
M  V30 48 1 9 44
M  V30 49 1 9 45
M  V30 50 1 10 46
M  V30 51 1 10 47
M  V30 52 1 11 48
M  V30 53 1 13 49
M  V30 54 1 14 50
M  V30 55 1 22 51
M  V30 56 1 23 52
M  V30 57 1 26 53
M  V30 58 1 30 54
M  V30 59 1 33 55
M  V30 END BOND
M  V30 END CTAB
M  END
>  <Dataset>  (96) 
ChEMBL_Kinases

>  <Ligand_Instance>  (96) 
nan

>  <PDB_ID>  (96) 
nan

>  <Standardized_SMILES>  (96) 
O=C(CCN1CCCCC1)Nc1ccc(-c2nc3c(oc4ccc(Br)cc43)c(=O)[nH]2)c(Cl)c1

>  <Name>  (96) 
nan

>  <Pocket>  (96) 
nan

>  <ATP_Site>  (96) 
nan

>  <Peripheral>  (96) 
nan

>  <Num_H_Atoms_ProtBoundConf>  (96) 
nan

>  <Num_Resolved_Atoms>  (96) 
nan

>  <Num_Not_Resolved_Atoms>  (96) 
nan

$$$$
CHEMBL2035630
     RDKit          3D

  0  0  0  0  0  0  0  0  0  0999 V3000
M  V30 BEGIN CTAB
M  V30 COUNTS 50 54 0 0 0
M  V30 BEGIN ATOM
M  V30 1 O -4.637054 -3.878965 2.588503 0
M  V30 2 C -3.666991 -3.636001 1.838944 0
M  V30 3 N -3.173835 -2.392668 1.694556 0
M  V30 4 C -2.147075 -2.055818 0.918050 0
M  V30 5 C -1.617187 -0.711102 0.764828 0
M  V30 6 C -0.545872 -0.500709 -0.075270 0
M  V30 7 C -0.065935 0.783859 -0.200071 0
M  V30 8 C -0.559756 1.896271 0.443555 0
M  V30 9 N -0.039284 3.207204 0.313761 0
M  V30 10 C 1.067664 3.769122 -0.375659 0
M  V30 11 C 2.415485 3.580787 0.207118 0
M  V30 12 C 2.914039 2.191965 0.390326 0
M  V30 13 C 4.312689 2.337867 1.019347 0
M  V30 14 N 4.092505 2.576095 2.431151 0
M  V30 15 C 2.916140 3.387466 2.668957 0
M  V30 16 C 2.615550 4.309941 1.516093 0
M  V30 17 C -1.629271 1.632807 1.270541 0
M  V30 18 C -2.147363 0.371434 1.431369 0
M  V30 19 N -1.598565 -3.082283 0.248235 0
M  V30 20 C -2.005047 -4.341084 0.317803 0
M  V30 21 C -3.072516 -4.660343 1.131644 0
M  V30 22 O -3.259845 -5.937350 1.016434 0
M  V30 23 C -2.407931 -6.497887 0.194622 0
M  V30 24 C -2.189595 -7.784150 -0.257465 0
M  V30 25 C -1.172839 -8.058028 -1.154780 0
M  V30 26 C -0.353356 -7.056517 -1.619692 0
M  V30 27 Br 1.062254 -7.379406 -2.856645 0
M  V30 28 C -0.536419 -5.756423 -1.193805 0
M  V30 29 C -1.566481 -5.500035 -0.289207 0
M  V30 30 H -3.659058 -1.655821 2.250876 0
M  V30 31 H -0.118428 -1.340615 -0.605721 0
M  V30 32 H 0.757705 0.876457 -0.880293 0
M  V30 33 H -0.597015 3.942373 0.854056 0
M  V30 34 H 1.100549 3.387215 -1.439534 0
M  V30 35 H 0.923161 4.864853 -0.512239 0
M  V30 36 H 3.150610 4.071679 -0.502356 0
M  V30 37 H 2.995933 1.621909 -0.564981 0
M  V30 38 H 2.363240 1.583880 1.135266 0
M  V30 39 H 4.781195 3.252471 0.600790 0
M  V30 40 H 4.916745 1.452393 0.827190 0
M  V30 41 H 3.868760 1.622257 2.846966 0
M  V30 42 H 3.171841 4.041294 3.528275 0
M  V30 43 H 2.026037 2.796913 2.973700 0
M  V30 44 H 1.674462 4.825586 1.752299 0
M  V30 45 H 3.426185 5.063410 1.484822 0
M  V30 46 H -2.102161 2.450641 1.833857 0
M  V30 47 H -2.993934 0.252491 2.104958 0
M  V30 48 H -2.839819 -8.571976 0.112865 0
M  V30 49 H -1.009806 -9.068322 -1.502930 0
M  V30 50 H 0.061211 -4.926571 -1.511840 0
M  V30 END ATOM
M  V30 BEGIN BOND
M  V30 1 2 1 2
M  V30 2 1 2 3
M  V30 3 1 3 4
M  V30 4 1 4 5
M  V30 5 2 5 6
M  V30 6 1 6 7
M  V30 7 2 7 8
M  V30 8 1 8 9
M  V30 9 1 9 10
M  V30 10 1 10 11
M  V30 11 1 11 12
M  V30 12 1 12 13
M  V30 13 1 13 14
M  V30 14 1 14 15
M  V30 15 1 15 16
M  V30 16 1 8 17
M  V30 17 2 17 18
M  V30 18 2 4 19
M  V30 19 1 19 20
M  V30 20 2 20 21
M  V30 21 1 21 22
M  V30 22 1 22 23
M  V30 23 2 23 24
M  V30 24 1 24 25
M  V30 25 2 25 26
M  V30 26 1 26 27
M  V30 27 1 26 28
M  V30 28 2 28 29
M  V30 29 1 21 2
M  V30 30 1 29 23
M  V30 31 1 18 5
M  V30 32 1 29 20
M  V30 33 1 16 11
M  V30 34 1 3 30
M  V30 35 1 6 31
M  V30 36 1 7 32
M  V30 37 1 9 33
M  V30 38 1 10 34
M  V30 39 1 10 35
M  V30 40 1 11 36
M  V30 41 1 12 37
M  V30 42 1 12 38
M  V30 43 1 13 39
M  V30 44 1 13 40
M  V30 45 1 14 41
M  V30 46 1 15 42
M  V30 47 1 15 43
M  V30 48 1 16 44
M  V30 49 1 16 45
M  V30 50 1 17 46
M  V30 51 1 18 47
M  V30 52 1 24 48
M  V30 53 1 25 49
M  V30 54 1 28 50
M  V30 END BOND
M  V30 END CTAB
M  END
>  <Dataset>  (97) 
ChEMBL_Kinases

>  <Ligand_Instance>  (97) 
nan

>  <PDB_ID>  (97) 
nan

>  <Standardized_SMILES>  (97) 
O=c1[nH]c(-c2ccc(NCC3CCNCC3)cc2)nc2c1oc1ccc(Br)cc12

>  <Name>  (97) 
nan

>  <Pocket>  (97) 
nan

>  <ATP_Site>  (97) 
nan

>  <Peripheral>  (97) 
nan

>  <Num_H_Atoms_ProtBoundConf>  (97) 
nan

>  <Num_Resolved_Atoms>  (97) 
nan

>  <Num_Not_Resolved_Atoms>  (97) 
nan

$$$$
CHEMBL2035631
     RDKit          3D

  0  0  0  0  0  0  0  0  0  0999 V3000
M  V30 BEGIN CTAB
M  V30 COUNTS 38 41 0 0 0
M  V30 BEGIN ATOM
M  V30 1 O 0.417131 -2.183082 4.308992 0
M  V30 2 C 0.421535 -1.350023 3.382545 0
M  V30 3 N 1.529847 -1.264588 2.623970 0
M  V30 4 C 1.606008 -0.387638 1.605852 0
M  V30 5 C 2.759511 -0.184479 0.688965 0
M  V30 6 N 2.684309 -1.002541 -0.444183 0
M  V30 7 C 2.660293 -2.390846 -0.331110 0
M  V30 8 C 1.226023 -2.861897 -0.559808 0
M  V30 9 C 0.636503 -2.153147 -1.761830 0
M  V30 10 C 1.660043 -1.372160 -2.553030 0
M  V30 11 C 2.462565 -0.415905 -1.703424 0
M  V30 12 N 0.565560 0.433127 1.318876 0
M  V30 13 C -0.583281 0.392070 2.052526 0
M  V30 14 C -0.654942 -0.510047 3.095835 0
M  V30 15 O -1.820699 -0.406427 3.679172 0
M  V30 16 C -2.564752 0.512437 3.105870 0
M  V30 17 C -3.833785 1.018832 3.304409 0
M  V30 18 C -4.303945 2.018752 2.477174 0
M  V30 19 C -3.558053 2.533838 1.459221 0
M  V30 20 Br -4.305416 3.913017 0.377427 0
M  V30 21 C -2.269646 2.041513 1.233470 0
M  V30 22 C -1.805160 1.039417 2.066518 0
M  V30 23 H 2.376096 -1.855932 2.773285 0
M  V30 24 H 3.703643 -0.457397 1.246932 0
M  V30 25 H 2.897440 0.865800 0.412298 0
M  V30 26 H 3.254033 -2.840841 -1.175062 0
M  V30 27 H 3.032374 -2.726891 0.637517 0
M  V30 28 H 0.615669 -2.553360 0.313086 0
M  V30 29 H 1.145333 -3.963086 -0.625720 0
M  V30 30 H -0.264178 -1.555102 -1.507011 0
M  V30 31 H 0.267705 -2.945839 -2.464573 0
M  V30 32 H 2.328206 -2.065198 -3.069768 0
M  V30 33 H 1.098491 -0.778960 -3.291114 0
M  V30 34 H 2.005771 0.590924 -1.667293 0
M  V30 35 H 3.446638 -0.293540 -2.227590 0
M  V30 36 H -4.366886 0.561619 4.130731 0
M  V30 37 H -5.325653 2.333224 2.740411 0
M  V30 38 H -1.669610 2.443223 0.428614 0
M  V30 END ATOM
M  V30 BEGIN BOND
M  V30 1 2 1 2
M  V30 2 1 2 3
M  V30 3 1 3 4
M  V30 4 1 4 5
M  V30 5 1 5 6
M  V30 6 1 6 7
M  V30 7 1 7 8
M  V30 8 1 8 9
M  V30 9 1 9 10
M  V30 10 1 10 11
M  V30 11 2 4 12
M  V30 12 1 12 13
M  V30 13 2 13 14
M  V30 14 1 14 15
M  V30 15 1 15 16
M  V30 16 2 16 17
M  V30 17 1 17 18
M  V30 18 2 18 19
M  V30 19 1 19 20
M  V30 20 1 19 21
M  V30 21 2 21 22
M  V30 22 1 14 2
M  V30 23 1 22 16
M  V30 24 1 11 6
M  V30 25 1 22 13
M  V30 26 1 3 23
M  V30 27 1 5 24
M  V30 28 1 5 25
M  V30 29 1 7 26
M  V30 30 1 7 27
M  V30 31 1 8 28
M  V30 32 1 8 29
M  V30 33 1 9 30
M  V30 34 1 9 31
M  V30 35 1 10 32
M  V30 36 1 10 33
M  V30 37 1 11 34
M  V30 38 1 11 35
M  V30 39 1 17 36
M  V30 40 1 18 37
M  V30 41 1 21 38
M  V30 END BOND
M  V30 END CTAB
M  END
>  <Dataset>  (98) 
ChEMBL_Kinases

>  <Ligand_Instance>  (98) 
nan

>  <PDB_ID>  (98) 
nan

>  <Standardized_SMILES>  (98) 
O=c1[nH]c(CN2CCCCC2)nc2c1oc1ccc(Br)cc12

>  <Name>  (98) 
nan

>  <Pocket>  (98) 
nan

>  <ATP_Site>  (98) 
nan

>  <Peripheral>  (98) 
nan

>  <Num_H_Atoms_ProtBoundConf>  (98) 
nan

>  <Num_Resolved_Atoms>  (98) 
nan

>  <Num_Not_Resolved_Atoms>  (98) 
nan

$$$$
CHEMBL2035632
     RDKit          3D

  0  0  0  0  0  0  0  0  0  0999 V3000
M  V30 BEGIN CTAB
M  V30 COUNTS 32 35 0 0 0
M  V30 BEGIN ATOM
M  V30 1 O 1.156189 2.175307 3.518758 0
M  V30 2 C 0.973025 1.394857 2.542983 0
M  V30 3 N 1.736246 0.292416 2.433212 0
M  V30 4 C 1.565715 -0.559200 1.404867 0
M  V30 5 C 2.323601 -1.806919 1.149193 0
M  V30 6 N 1.706337 -2.957551 1.776783 0
M  V30 7 C 2.372123 -4.221361 1.584679 0
M  V30 8 C 1.031439 -4.902735 1.357470 0
M  V30 9 C 0.545974 -3.488664 1.117109 0
M  V30 10 N 0.599069 -0.260141 0.491711 0
M  V30 11 C -0.172654 0.838857 0.587631 0
M  V30 12 C -0.014583 1.724886 1.633511 0
M  V30 13 O -0.884646 2.680074 1.469446 0
M  V30 14 C -1.606033 2.488407 0.390156 0
M  V30 15 C -2.633555 3.145558 -0.255175 0
M  V30 16 C -3.226011 2.699258 -1.418592 0
M  V30 17 C -2.740339 1.504384 -1.961532 0
M  V30 18 Br -3.479623 0.771252 -3.582281 0
M  V30 19 C -1.716409 0.785250 -1.380101 0
M  V30 20 C -1.190054 1.319540 -0.214358 0
M  V30 21 H 2.477069 0.036249 3.107199 0
M  V30 22 H 3.325144 -1.674654 1.634338 0
M  V30 23 H 2.422625 -1.965975 0.074441 0
M  V30 24 H 2.868749 -4.639393 2.462780 0
M  V30 25 H 2.970958 -4.282418 0.642320 0
M  V30 26 H 1.000443 -5.553808 0.461415 0
M  V30 27 H 0.623023 -5.406011 2.250801 0
M  V30 28 H 0.477492 -3.296811 0.029063 0
M  V30 29 H -0.434357 -3.348093 1.639132 0
M  V30 30 H -3.009814 4.076438 0.170433 0
M  V30 31 H -4.031485 3.224901 -1.914397 0
M  V30 32 H -1.337769 -0.138200 -1.795619 0
M  V30 END ATOM
M  V30 BEGIN BOND
M  V30 1 2 1 2
M  V30 2 1 2 3
M  V30 3 1 3 4
M  V30 4 1 4 5
M  V30 5 1 5 6
M  V30 6 1 6 7
M  V30 7 1 7 8
M  V30 8 1 8 9
M  V30 9 2 4 10
M  V30 10 1 10 11
M  V30 11 2 11 12
M  V30 12 1 12 13
M  V30 13 1 13 14
M  V30 14 2 14 15
M  V30 15 1 15 16
M  V30 16 2 16 17
M  V30 17 1 17 18
M  V30 18 1 17 19
M  V30 19 2 19 20
M  V30 20 1 12 2
M  V30 21 1 20 14
M  V30 22 1 9 6
M  V30 23 1 20 11
M  V30 24 1 3 21
M  V30 25 1 5 22
M  V30 26 1 5 23
M  V30 27 1 7 24
M  V30 28 1 7 25
M  V30 29 1 8 26
M  V30 30 1 8 27
M  V30 31 1 9 28
M  V30 32 1 9 29
M  V30 33 1 15 30
M  V30 34 1 16 31
M  V30 35 1 19 32
M  V30 END BOND
M  V30 END CTAB
M  END
>  <Dataset>  (99) 
ChEMBL_Kinases

>  <Ligand_Instance>  (99) 
nan

>  <PDB_ID>  (99) 
nan

>  <Standardized_SMILES>  (99) 
O=c1[nH]c(CN2CCC2)nc2c1oc1ccc(Br)cc12

>  <Name>  (99) 
nan

>  <Pocket>  (99) 
nan

>  <ATP_Site>  (99) 
nan

>  <Peripheral>  (99) 
nan

>  <Num_H_Atoms_ProtBoundConf>  (99) 
nan

>  <Num_Resolved_Atoms>  (99) 
nan

>  <Num_Not_Resolved_Atoms>  (99) 
nan

$$$$
CHEMBL2035633
     RDKit          3D

  0  0  0  0  0  0  0  0  0  0999 V3000
M  V30 BEGIN CTAB
M  V30 COUNTS 40 43 0 0 0
M  V30 BEGIN ATOM
M  V30 1 C -2.353813 -3.290461 2.849953 0
M  V30 2 N -0.910854 -3.223514 2.973872 0
M  V30 3 C -0.333780 -4.091933 1.996654 0
M  V30 4 C 0.560289 -3.279143 1.087153 0
M  V30 5 N 1.571144 -2.564481 1.830699 0
M  V30 6 C 2.520326 -1.934557 0.958608 0
M  V30 7 C 1.810485 -0.970100 0.070156 0
M  V30 8 N 1.592741 0.328895 0.347178 0
M  V30 9 C 0.941546 1.140547 -0.508119 0
M  V30 10 C 0.463311 0.653995 -1.729412 0
M  V30 11 O -0.126239 1.641250 -2.365423 0
M  V30 12 C -0.065461 2.753089 -1.634899 0
M  V30 13 C -0.533251 4.034261 -1.866783 0
M  V30 14 C -0.317419 5.001890 -0.905729 0
M  V30 15 C 0.350694 4.708452 0.267261 0
M  V30 16 Br 0.665323 6.031393 1.620304 0
M  V30 17 C 0.826073 3.424890 0.512983 0
M  V30 18 C 0.598886 2.478922 -0.458868 0
M  V30 19 C 0.713865 -0.684102 -1.962354 0
M  V30 20 O 0.262773 -1.092341 -3.086556 0
M  V30 21 N 1.367067 -1.479873 -1.094349 0
M  V30 22 C 0.992066 -1.683709 2.793687 0
M  V30 23 C -0.505579 -1.839572 2.842471 0
M  V30 24 H -2.803366 -3.333287 3.853154 0
M  V30 25 H -2.706535 -2.417429 2.246005 0
M  V30 26 H -2.653090 -4.211167 2.277318 0
M  V30 27 H -1.110516 -4.562481 1.344636 0
M  V30 28 H 0.257318 -4.917326 2.442739 0
M  V30 29 H 0.983914 -3.973900 0.359280 0
M  V30 30 H -0.077978 -2.554201 0.513461 0
M  V30 31 H 3.210294 -1.298384 1.585004 0
M  V30 32 H 3.162897 -2.631644 0.422710 0
M  V30 33 H -1.061614 4.289250 -2.781858 0
M  V30 34 H -0.667848 6.025173 -1.044637 0
M  V30 35 H 1.352948 3.215567 1.450119 0
M  V30 36 H 1.458087 -2.458361 -1.448753 0
M  V30 37 H 1.178120 -0.635474 2.482274 0
M  V30 38 H 1.444788 -1.769522 3.803066 0
M  V30 39 H -0.907593 -1.291268 3.717840 0
M  V30 40 H -0.946538 -1.387790 1.944984 0
M  V30 END ATOM
M  V30 BEGIN BOND
M  V30 1 1 1 2
M  V30 2 1 2 3
M  V30 3 1 3 4
M  V30 4 1 4 5
M  V30 5 1 5 6
M  V30 6 1 6 7
M  V30 7 2 7 8
M  V30 8 1 8 9
M  V30 9 2 9 10
M  V30 10 1 10 11
M  V30 11 1 11 12
M  V30 12 2 12 13
M  V30 13 1 13 14
M  V30 14 2 14 15
M  V30 15 1 15 16
M  V30 16 1 15 17
M  V30 17 2 17 18
M  V30 18 1 10 19
M  V30 19 2 19 20
M  V30 20 1 19 21
M  V30 21 1 5 22
M  V30 22 1 22 23
M  V30 23 1 23 2
M  V30 24 1 21 7
M  V30 25 1 18 9
M  V30 26 1 18 12
M  V30 27 1 1 24
M  V30 28 1 1 25
M  V30 29 1 1 26
M  V30 30 1 3 27
M  V30 31 1 3 28
M  V30 32 1 4 29
M  V30 33 1 4 30
M  V30 34 1 6 31
M  V30 35 1 6 32
M  V30 36 1 13 33
M  V30 37 1 14 34
M  V30 38 1 17 35
M  V30 39 1 21 36
M  V30 40 1 22 37
M  V30 41 1 22 38
M  V30 42 1 23 39
M  V30 43 1 23 40
M  V30 END BOND
M  V30 END CTAB
M  END
>  <Dataset>  (100) 
ChEMBL_Kinases

>  <Ligand_Instance>  (100) 
nan

>  <PDB_ID>  (100) 
nan

>  <Standardized_SMILES>  (100) 
CN1CCN(Cc2nc3c(oc4ccc(Br)cc43)c(=O)[nH]2)CC1

>  <Name>  (100) 
nan

>  <Pocket>  (100) 
nan

>  <ATP_Site>  (100) 
nan

>  <Peripheral>  (100) 
nan

>  <Num_H_Atoms_ProtBoundConf>  (100) 
nan

>  <Num_Resolved_Atoms>  (100) 
nan

>  <Num_Not_Resolved_Atoms>  (100) 
nan

$$$$
CHEMBL2035634
     RDKit          3D

  0  0  0  0  0  0  0  0  0  0999 V3000
M  V30 BEGIN CTAB
M  V30 COUNTS 43 46 0 0 0
M  V30 BEGIN ATOM
M  V30 1 C 0.093152 -2.806731 3.179898 0
M  V30 2 C 0.395112 -2.135140 1.830554 0
M  V30 3 C 1.311487 -1.035878 2.003180 0
M  V30 4 N 1.710087 -0.211731 1.021586 0
M  V30 5 C 2.566764 0.804645 1.223756 0
M  V30 6 C 3.081341 1.044485 2.480604 0
M  V30 7 O 3.867665 2.074243 2.370197 0
M  V30 8 C 3.920490 2.541397 1.144114 0
M  V30 9 C 4.571164 3.574629 0.498181 0
M  V30 10 C 4.407339 3.808342 -0.851635 0
M  V30 11 C 3.574364 2.999757 -1.598628 0
M  V30 12 Br 3.334979 3.308822 -3.472503 0
M  V30 13 C 2.907018 1.964094 -1.009806 0
M  V30 14 C 3.084827 1.743834 0.352496 0
M  V30 15 C 2.687712 0.211569 3.508211 0
M  V30 16 O 3.162499 0.438515 4.650324 0
M  V30 17 N 1.826389 -0.784042 3.224422 0
M  V30 18 N -0.798060 -1.996485 1.139151 0
M  V30 19 C -1.515576 -3.182160 0.814252 0
M  V30 20 C -2.412869 -3.114887 -0.387408 0
M  V30 21 N -3.115120 -1.887161 -0.559595 0
M  V30 22 C -4.540767 -1.996896 -0.507592 0
M  V30 23 C -2.556539 -0.766149 0.143539 0
M  V30 24 C -1.060540 -1.003919 0.199082 0
M  V30 25 H 1.035404 -3.246678 3.622296 0
M  V30 26 H -0.282002 -2.107110 3.931694 0
M  V30 27 H -0.552387 -3.706884 3.040776 0
M  V30 28 H 0.991588 -2.946075 1.296751 0
M  V30 29 H 5.226317 4.217287 1.065134 0
M  V30 30 H 4.946775 4.638450 -1.306182 0
M  V30 31 H 2.236834 1.285163 -1.525133 0
M  V30 32 H 1.603441 -1.350534 4.096537 0
M  V30 33 H -0.751430 -3.962633 0.599801 0
M  V30 34 H -2.078882 -3.606614 1.697960 0
M  V30 35 H -3.166855 -3.925061 -0.279733 0
M  V30 36 H -1.877486 -3.330999 -1.338808 0
M  V30 37 H -4.886000 -2.649180 0.316604 0
M  V30 38 H -4.924989 -2.323647 -1.503412 0
M  V30 39 H -4.963037 -0.987701 -0.326523 0
M  V30 40 H -2.751504 0.192185 -0.414478 0
M  V30 41 H -3.045987 -0.683410 1.112522 0
M  V30 42 H -0.485446 -0.063836 0.224031 0
M  V30 43 H -0.802304 -1.415258 -0.817427 0
M  V30 END ATOM
M  V30 BEGIN BOND
M  V30 1 1 1 2
M  V30 2 1 2 3
M  V30 3 2 3 4
M  V30 4 1 4 5
M  V30 5 2 5 6
M  V30 6 1 6 7
M  V30 7 1 7 8
M  V30 8 2 8 9
M  V30 9 1 9 10
M  V30 10 2 10 11
M  V30 11 1 11 12
M  V30 12 1 11 13
M  V30 13 2 13 14
M  V30 14 1 6 15
M  V30 15 2 15 16
M  V30 16 1 15 17
M  V30 17 1 2 18
M  V30 18 1 18 19
M  V30 19 1 19 20
M  V30 20 1 20 21
M  V30 21 1 21 22
M  V30 22 1 21 23
M  V30 23 1 23 24
M  V30 24 1 17 3
M  V30 25 1 24 18
M  V30 26 1 14 5
M  V30 27 1 14 8
M  V30 28 1 1 25
M  V30 29 1 1 26
M  V30 30 1 1 27
M  V30 31 1 2 28
M  V30 32 1 9 29
M  V30 33 1 10 30
M  V30 34 1 13 31
M  V30 35 1 17 32
M  V30 36 1 19 33
M  V30 37 1 19 34
M  V30 38 1 20 35
M  V30 39 1 20 36
M  V30 40 1 22 37
M  V30 41 1 22 38
M  V30 42 1 22 39
M  V30 43 1 23 40
M  V30 44 1 23 41
M  V30 45 1 24 42
M  V30 46 1 24 43
M  V30 END BOND
M  V30 END CTAB
M  END
>  <Dataset>  (101) 
ChEMBL_Kinases

>  <Ligand_Instance>  (101) 
nan

>  <PDB_ID>  (101) 
nan

>  <Standardized_SMILES>  (101) 
CC(c1nc2c(oc3ccc(Br)cc32)c(=O)[nH]1)N1CCN(C)CC1

>  <Name>  (101) 
nan

>  <Pocket>  (101) 
nan

>  <ATP_Site>  (101) 
nan

>  <Peripheral>  (101) 
nan

>  <Num_H_Atoms_ProtBoundConf>  (101) 
nan

>  <Num_Resolved_Atoms>  (101) 
nan

>  <Num_Not_Resolved_Atoms>  (101) 
nan

$$$$
CHEMBL2035635
     RDKit          3D

  0  0  0  0  0  0  0  0  0  0999 V3000
M  V30 BEGIN CTAB
M  V30 COUNTS 41 45 0 0 0
M  V30 BEGIN ATOM
M  V30 1 C 1.644918 -2.948001 0.069286 0
M  V30 2 N 1.045574 -3.920034 -0.838345 0
M  V30 3 C -0.364398 -4.101184 -0.525077 0
M  V30 4 C -1.043526 -3.489009 -1.757987 0 CFG=2
M  V30 5 C -0.127220 -4.161282 -2.793937 0
M  V30 6 C 1.137390 -3.503473 -2.213857 0 CFG=1
M  V30 7 C 0.666714 -2.051530 -2.392205 0
M  V30 8 N -0.620099 -2.145132 -1.810474 0
M  V30 9 C -1.570711 -1.160208 -2.207192 0
M  V30 10 C -1.018085 0.170746 -1.829554 0
M  V30 11 N -1.370142 0.559334 -0.591717 0
M  V30 12 C -0.983587 1.727486 -0.044018 0
M  V30 13 C -0.185113 2.555176 -0.808089 0
M  V30 14 O 0.075920 3.630352 -0.095877 0
M  V30 15 C -0.506638 3.552478 1.090487 0
M  V30 16 C -0.578420 4.359539 2.213097 0
M  V30 17 C -1.289080 3.995143 3.338240 0
M  V30 18 C -1.963008 2.773564 3.357825 0
M  V30 19 Br -2.970016 2.207834 4.893128 0
M  V30 20 C -1.925157 1.930679 2.266905 0
M  V30 21 C -1.193737 2.356445 1.169541 0
M  V30 22 C 0.171014 2.146168 -2.079278 0
M  V30 23 O 0.899491 2.874207 -2.808759 0
M  V30 24 N -0.239338 0.964326 -2.591080 0
M  V30 25 H 0.864147 -2.208186 0.366710 0
M  V30 26 H 1.953280 -3.457130 1.021388 0
M  V30 27 H 2.503576 -2.450959 -0.380244 0
M  V30 28 H -0.629793 -5.173050 -0.428344 0
M  V30 29 H -0.674692 -3.473523 0.329964 0
M  V30 30 H -2.080682 -3.712790 -1.872659 0
M  V30 31 H -0.090324 -5.243350 -2.654495 0
M  V30 32 H -0.326089 -3.808181 -3.816610 0
M  V30 33 H 2.043078 -3.753709 -2.720063 0
M  V30 34 H 0.562691 -1.899611 -3.495252 0
M  V30 35 H 1.340560 -1.329940 -1.904490 0
M  V30 36 H -1.619376 -1.194021 -3.323325 0
M  V30 37 H -2.577186 -1.309964 -1.811494 0
M  V30 38 H -0.048244 5.321911 2.199323 0
M  V30 39 H -1.334619 4.650166 4.221446 0
M  V30 40 H -2.427812 0.963224 2.214158 0
M  V30 41 H -0.010474 0.592378 -3.538436 0
M  V30 END ATOM
M  V30 BEGIN BOND
M  V30 1 1 1 2
M  V30 2 1 2 3
M  V30 3 1 3 4
M  V30 4 1 4 5
M  V30 5 1 5 6
M  V30 6 1 6 7
M  V30 7 1 7 8
M  V30 8 1 8 9
M  V30 9 1 9 10
M  V30 10 2 10 11
M  V30 11 1 11 12
M  V30 12 2 12 13
M  V30 13 1 13 14
M  V30 14 1 14 15
M  V30 15 2 15 16
M  V30 16 1 16 17
M  V30 17 2 17 18
M  V30 18 1 18 19
M  V30 19 1 18 20
M  V30 20 2 20 21
M  V30 21 1 13 22
M  V30 22 2 22 23
M  V30 23 1 22 24
M  V30 24 1 6 2
M  V30 25 1 24 10
M  V30 26 1 8 4
M  V30 27 1 21 12
M  V30 28 1 21 15
M  V30 29 1 1 25
M  V30 30 1 1 26
M  V30 31 1 1 27
M  V30 32 1 3 28
M  V30 33 1 3 29
M  V30 34 1 4 30 CFG=3
M  V30 35 1 5 31
M  V30 36 1 5 32
M  V30 37 1 6 33 CFG=3
M  V30 38 1 7 34
M  V30 39 1 7 35
M  V30 40 1 9 36
M  V30 41 1 9 37
M  V30 42 1 16 38
M  V30 43 1 17 39
M  V30 44 1 20 40
M  V30 45 1 24 41
M  V30 END BOND
M  V30 END CTAB
M  END
>  <Dataset>  (102) 
ChEMBL_Kinases

>  <Ligand_Instance>  (102) 
nan

>  <PDB_ID>  (102) 
nan

>  <Standardized_SMILES>  (102) 
CN1C[C@@H]2C[C@H]1CN2Cc1nc2c(oc3ccc(Br)cc32)c(=O)[nH]1

>  <Name>  (102) 
nan

>  <Pocket>  (102) 
nan

>  <ATP_Site>  (102) 
nan

>  <Peripheral>  (102) 
nan

>  <Num_H_Atoms_ProtBoundConf>  (102) 
nan

>  <Num_Resolved_Atoms>  (102) 
nan

>  <Num_Not_Resolved_Atoms>  (102) 
nan

$$$$
CHEMBL2035636
     RDKit          3D

  0  0  0  0  0  0  0  0  0  0999 V3000
M  V30 BEGIN CTAB
M  V30 COUNTS 44 48 0 0 0
M  V30 BEGIN ATOM
M  V30 1 C 1.005668 -4.412891 -0.007240 0
M  V30 2 N 1.959866 -3.536402 -0.599608 0
M  V30 3 C 1.657978 -3.050961 -1.905824 0
M  V30 4 C 1.851391 -1.551013 -2.001553 0 CFG=2
M  V30 5 C 3.333568 -1.309959 -1.746627 0
M  V30 6 C 3.553920 -1.706575 -0.287509 0
M  V30 7 C 2.345845 -2.440076 0.256388 0 CFG=1
M  V30 8 C 1.138714 -1.489569 0.292680 0
M  V30 9 N 1.162334 -0.832859 -0.977420 0
M  V30 10 C 0.017231 -0.093140 -1.325294 0
M  V30 11 C -0.146542 0.969573 -0.268649 0
M  V30 12 N -0.895107 0.635060 0.798300 0
M  V30 13 C -1.110682 1.519566 1.816476 0
M  V30 14 C -0.549034 2.779623 1.747318 0
M  V30 15 O -0.913593 3.401253 2.835560 0
M  V30 16 C -1.668627 2.621596 3.591192 0
M  V30 17 C -2.301264 2.794914 4.823432 0
M  V30 18 C -3.048319 1.743767 5.368323 0
M  V30 19 C -3.185251 0.518250 4.719602 0
M  V30 20 Br -4.201228 -0.902758 5.466823 0
M  V30 21 C -2.555208 0.337090 3.486219 0
M  V30 22 C -1.833361 1.388875 2.985879 0
M  V30 23 C 0.217726 3.093073 0.633275 0
M  V30 24 O 0.738894 4.243325 0.555342 0
M  V30 25 N 0.409054 2.189955 -0.355978 0
M  V30 26 H -0.013225 -4.139031 -0.382543 0
M  V30 27 H 1.234218 -5.482951 -0.188991 0
M  V30 28 H 0.991350 -4.212313 1.096009 0
M  V30 29 H 0.661470 -3.328717 -2.282053 0
M  V30 30 H 2.386812 -3.513096 -2.634880 0
M  V30 31 H 1.528773 -1.164441 -2.971083 0
M  V30 32 H 3.958159 -1.935724 -2.413412 0
M  V30 33 H 3.498743 -0.230790 -1.918084 0
M  V30 34 H 4.419264 -2.378617 -0.232484 0
M  V30 35 H 3.707455 -0.806773 0.335484 0
M  V30 36 H 2.565002 -2.749320 1.284220 0
M  V30 37 H 0.236926 -2.072042 0.495226 0
M  V30 38 H 1.345984 -0.774886 1.113348 0
M  V30 39 H -0.928972 -0.617891 -1.439956 0
M  V30 40 H 0.224788 0.439484 -2.276338 0
M  V30 41 H -2.211088 3.736493 5.348134 0
M  V30 42 H -3.552545 1.840680 6.320566 0
M  V30 43 H -2.625887 -0.600845 2.930025 0
M  V30 44 H 0.986685 2.410241 -1.206709 0
M  V30 END ATOM
M  V30 BEGIN BOND
M  V30 1 1 1 2
M  V30 2 1 2 3
M  V30 3 1 3 4
M  V30 4 1 4 5
M  V30 5 1 5 6
M  V30 6 1 6 7
M  V30 7 1 7 8
M  V30 8 1 8 9
M  V30 9 1 9 10
M  V30 10 1 10 11
M  V30 11 2 11 12
M  V30 12 1 12 13
M  V30 13 2 13 14
M  V30 14 1 14 15
M  V30 15 1 15 16
M  V30 16 2 16 17
M  V30 17 1 17 18
M  V30 18 2 18 19
M  V30 19 1 19 20
M  V30 20 1 19 21
M  V30 21 2 21 22
M  V30 22 1 14 23
M  V30 23 2 23 24
M  V30 24 1 23 25
M  V30 25 1 7 2
M  V30 26 1 25 11
M  V30 27 1 9 4
M  V30 28 1 22 13
M  V30 29 1 22 16
M  V30 30 1 1 26
M  V30 31 1 1 27
M  V30 32 1 1 28
M  V30 33 1 3 29
M  V30 34 1 3 30
M  V30 35 1 4 31 CFG=3
M  V30 36 1 5 32
M  V30 37 1 5 33
M  V30 38 1 6 34
M  V30 39 1 6 35
M  V30 40 1 7 36 CFG=1
M  V30 41 1 8 37
M  V30 42 1 8 38
M  V30 43 1 10 39
M  V30 44 1 10 40
M  V30 45 1 17 41
M  V30 46 1 18 42
M  V30 47 1 21 43
M  V30 48 1 25 44
M  V30 END BOND
M  V30 END CTAB
M  END
>  <Dataset>  (103) 
ChEMBL_Kinases

>  <Ligand_Instance>  (103) 
nan

>  <PDB_ID>  (103) 
nan

>  <Standardized_SMILES>  (103) 
CN1C[C@@H]2CC[C@H]1CN2Cc1nc2c(oc3ccc(Br)cc32)c(=O)[nH]1

>  <Name>  (103) 
nan

>  <Pocket>  (103) 
nan

>  <ATP_Site>  (103) 
nan

>  <Peripheral>  (103) 
nan

>  <Num_H_Atoms_ProtBoundConf>  (103) 
nan

>  <Num_Resolved_Atoms>  (103) 
nan

>  <Num_Not_Resolved_Atoms>  (103) 
nan

$$$$
CHEMBL2035637
     RDKit          3D

  0  0  0  0  0  0  0  0  0  0999 V3000
M  V30 BEGIN CTAB
M  V30 COUNTS 41 44 0 0 0
M  V30 BEGIN ATOM
M  V30 1 C 0.874968 -4.707612 0.392774 0
M  V30 2 N 0.660380 -3.401529 0.976405 0
M  V30 3 C -0.293793 -3.410803 2.053644 0
M  V30 4 C -1.706928 -3.573394 1.602625 0
M  V30 5 C -1.874814 -3.350534 0.101551 0
M  V30 6 C -1.027905 -2.144306 -0.319945 0
M  V30 7 C -1.634815 -0.944311 0.342077 0
M  V30 8 C -0.949120 0.327768 0.052314 0
M  V30 9 N 0.046324 0.738228 0.843804 0
M  V30 10 C 0.751442 1.866433 0.697729 0
M  V30 11 C 0.459844 2.704911 -0.343162 0
M  V30 12 O 1.283157 3.701361 -0.242938 0
M  V30 13 C 2.092711 3.575758 0.788426 0
M  V30 14 C 3.126232 4.322912 1.339295 0
M  V30 15 C 3.778467 3.864714 2.471491 0
M  V30 16 C 3.436474 2.664337 3.093531 0
M  V30 17 Br 4.325213 2.019551 4.653491 0
M  V30 18 C 2.410753 1.890224 2.574332 0
M  V30 19 C 1.787486 2.382931 1.446131 0
M  V30 20 C -0.563642 2.294353 -1.166619 0
M  V30 21 O -0.860507 3.050217 -2.143817 0
M  V30 22 N -1.255623 1.134774 -0.979058 0
M  V30 23 C 0.406997 -2.383451 -0.003935 0
M  V30 24 H 0.143027 -5.435232 0.826430 0
M  V30 25 H 1.867180 -5.051782 0.762242 0
M  V30 26 H 0.889905 -4.712568 -0.706767 0
M  V30 27 H -0.095986 -2.505904 2.666939 0
M  V30 28 H 0.012265 -4.266370 2.723427 0
M  V30 29 H -2.422151 -2.954493 2.187822 0
M  V30 30 H -2.009320 -4.636792 1.782863 0
M  V30 31 H -2.940916 -3.108838 -0.102174 0
M  V30 32 H -1.584167 -4.259191 -0.454196 0
M  V30 33 H -1.126791 -2.113576 -1.436195 0
M  V30 34 H -2.708315 -0.926630 0.041429 0
M  V30 35 H -1.659464 -1.161330 1.439149 0
M  V30 36 H 3.396360 5.254661 0.861791 0
M  V30 37 H 4.579630 4.451285 2.892300 0
M  V30 38 H 2.088611 0.952703 2.997234 0
M  V30 39 H -2.026778 0.849507 -1.619818 0
M  V30 40 H 0.865455 -1.445424 0.370350 0
M  V30 41 H 1.010987 -2.648607 -0.907892 0
M  V30 END ATOM
M  V30 BEGIN BOND
M  V30 1 1 1 2
M  V30 2 1 2 3
M  V30 3 1 3 4
M  V30 4 1 4 5
M  V30 5 1 5 6
M  V30 6 1 6 7
M  V30 7 1 7 8
M  V30 8 2 8 9
M  V30 9 1 9 10
M  V30 10 2 10 11
M  V30 11 1 11 12
M  V30 12 1 12 13
M  V30 13 2 13 14
M  V30 14 1 14 15
M  V30 15 2 15 16
M  V30 16 1 16 17
M  V30 17 1 16 18
M  V30 18 2 18 19
M  V30 19 1 11 20
M  V30 20 2 20 21
M  V30 21 1 20 22
M  V30 22 1 6 23
M  V30 23 1 23 2
M  V30 24 1 22 8
M  V30 25 1 19 10
M  V30 26 1 19 13
M  V30 27 1 1 24
M  V30 28 1 1 25
M  V30 29 1 1 26
M  V30 30 1 3 27
M  V30 31 1 3 28
M  V30 32 1 4 29
M  V30 33 1 4 30
M  V30 34 1 5 31
M  V30 35 1 5 32
M  V30 36 1 6 33
M  V30 37 1 7 34
M  V30 38 1 7 35
M  V30 39 1 14 36
M  V30 40 1 15 37
M  V30 41 1 18 38
M  V30 42 1 22 39
M  V30 43 1 23 40
M  V30 44 1 23 41
M  V30 END BOND
M  V30 END CTAB
M  END
>  <Dataset>  (104) 
ChEMBL_Kinases

>  <Ligand_Instance>  (104) 
nan

>  <PDB_ID>  (104) 
nan

>  <Standardized_SMILES>  (104) 
CN1CCCC(Cc2nc3c(oc4ccc(Br)cc43)c(=O)[nH]2)C1

>  <Name>  (104) 
nan

>  <Pocket>  (104) 
nan

>  <ATP_Site>  (104) 
nan

>  <Peripheral>  (104) 
nan

>  <Num_H_Atoms_ProtBoundConf>  (104) 
nan

>  <Num_Resolved_Atoms>  (104) 
nan

>  <Num_Not_Resolved_Atoms>  (104) 
nan

$$$$
CHEMBL2035638
     RDKit          3D

  0  0  0  0  0  0  0  0  0  0999 V3000
M  V30 BEGIN CTAB
M  V30 COUNTS 33 36 0 0 0
M  V30 BEGIN ATOM
M  V30 1 O 2.188812 2.040672 2.799202 0
M  V30 2 C 1.601086 1.343560 1.914857 0
M  V30 3 N 2.181221 0.214092 1.421223 0
M  V30 4 C 1.583909 -0.544201 0.485014 0
M  V30 5 C 2.207942 -1.785241 -0.065592 0
M  V30 6 N 1.784322 -2.896477 0.763086 0
M  V30 7 C 2.308325 -4.184136 0.357245 0
M  V30 8 C 0.952019 -4.781316 0.655822 0
M  V30 9 O 0.763882 -5.182972 1.959831 0
M  V30 10 C 0.461068 -3.349931 0.437986 0
M  V30 11 N 0.375583 -0.146764 0.043254 0
M  V30 12 C -0.266378 0.953564 0.477078 0
M  V30 13 C 0.344436 1.732910 1.437395 0
M  V30 14 O -0.452135 2.760052 1.721434 0
M  V30 15 C -1.544509 2.679242 0.991162 0
M  V30 16 C -2.690562 3.474484 0.886644 0
M  V30 17 C -3.684385 3.090257 -0.011356 0
M  V30 18 C -3.590289 1.951822 -0.809614 0
M  V30 19 Br -4.976130 1.466579 -2.023846 0
M  V30 20 C -2.455235 1.158191 -0.710628 0
M  V30 21 C -1.476411 1.561331 0.192397 0
M  V30 22 H 3.119366 -0.097830 1.761661 0
M  V30 23 H 3.287776 -1.657581 -0.115592 0
M  V30 24 H 1.745518 -1.967874 -1.063402 0
M  V30 25 H 2.472368 -4.162584 -0.759956 0
M  V30 26 H 3.152966 -4.529049 0.958968 0
M  V30 27 H 0.540304 -5.451689 -0.131382 0
M  V30 28 H -0.066671 -4.750037 2.306205 0
M  V30 29 H -0.353831 -3.051718 1.118488 0
M  V30 30 H 0.121559 -3.153341 -0.618878 0
M  V30 31 H -2.792645 4.360844 1.490483 0
M  V30 32 H -4.589314 3.666136 -0.133011 0
M  V30 33 H -2.312987 0.256929 -1.301069 0
M  V30 END ATOM
M  V30 BEGIN BOND
M  V30 1 2 1 2
M  V30 2 1 2 3
M  V30 3 1 3 4
M  V30 4 1 4 5
M  V30 5 1 5 6
M  V30 6 1 6 7
M  V30 7 1 7 8
M  V30 8 1 8 9
M  V30 9 1 8 10
M  V30 10 2 4 11
M  V30 11 1 11 12
M  V30 12 2 12 13
M  V30 13 1 13 14
M  V30 14 1 14 15
M  V30 15 2 15 16
M  V30 16 1 16 17
M  V30 17 2 17 18
M  V30 18 1 18 19
M  V30 19 1 18 20
M  V30 20 2 20 21
M  V30 21 1 13 2
M  V30 22 1 21 15
M  V30 23 1 10 6
M  V30 24 1 21 12
M  V30 25 1 3 22
M  V30 26 1 5 23
M  V30 27 1 5 24
M  V30 28 1 7 25
M  V30 29 1 7 26
M  V30 30 1 8 27
M  V30 31 1 9 28
M  V30 32 1 10 29
M  V30 33 1 10 30
M  V30 34 1 16 31
M  V30 35 1 17 32
M  V30 36 1 20 33
M  V30 END BOND
M  V30 END CTAB
M  END
>  <Dataset>  (105) 
ChEMBL_Kinases

>  <Ligand_Instance>  (105) 
nan

>  <PDB_ID>  (105) 
nan

>  <Standardized_SMILES>  (105) 
O=c1[nH]c(CN2CC(O)C2)nc2c1oc1ccc(Br)cc12

>  <Name>  (105) 
nan

>  <Pocket>  (105) 
nan

>  <ATP_Site>  (105) 
nan

>  <Peripheral>  (105) 
nan

>  <Num_H_Atoms_ProtBoundConf>  (105) 
nan

>  <Num_Resolved_Atoms>  (105) 
nan

>  <Num_Not_Resolved_Atoms>  (105) 
nan

$$$$
CHEMBL2035639
     RDKit          3D

  0  0  0  0  0  0  0  0  0  0999 V3000
M  V30 BEGIN CTAB
M  V30 COUNTS 40 43 0 0 0
M  V30 BEGIN ATOM
M  V30 1 C -1.645958 -3.766665 2.588704 0
M  V30 2 N -0.515987 -3.338013 3.392551 0
M  V30 3 C 0.667704 -4.118289 3.109511 0
M  V30 4 C 1.591445 -3.486988 2.140706 0
M  V30 5 N 1.013422 -2.494955 1.294624 0
M  V30 6 C 1.843841 -2.022426 0.250838 0
M  V30 7 C 1.076531 -0.998635 -0.520524 0
M  V30 8 N 1.130841 0.303915 -0.174997 0
M  V30 9 C 0.465042 1.272419 -0.827195 0
M  V30 10 C -0.321850 0.940536 -1.910439 0
M  V30 11 O -0.848500 2.053542 -2.352925 0
M  V30 12 C -0.452040 3.089080 -1.623431 0
M  V30 13 C -0.687552 4.450269 -1.638607 0
M  V30 14 C -0.095307 5.277113 -0.701228 0
M  V30 15 C 0.746017 4.787520 0.278267 0
M  V30 16 Cl 1.525118 5.772618 1.489676 0
M  V30 17 C 0.998645 3.429299 0.316109 0
M  V30 18 C 0.394342 2.643503 -0.628106 0
M  V30 19 C -0.381206 -0.389703 -2.268321 0
M  V30 20 O -1.092025 -0.701294 -3.249337 0
M  V30 21 N 0.300289 -1.336404 -1.591302 0
M  V30 22 C 0.140876 -1.552245 1.882079 0
M  V30 23 C -0.293875 -1.910632 3.287566 0
M  V30 24 H -2.202446 -2.886268 2.253330 0
M  V30 25 H -1.290948 -4.354989 1.697323 0
M  V30 26 H -2.318787 -4.454819 3.128139 0
M  V30 27 H 0.364091 -5.152869 2.847439 0
M  V30 28 H 1.218881 -4.199269 4.084550 0
M  V30 29 H 1.956567 -4.306574 1.460419 0
M  V30 30 H 2.505366 -3.066340 2.610494 0
M  V30 31 H 2.200010 -2.783104 -0.448046 0
M  V30 32 H 2.725299 -1.493279 0.677041 0
M  V30 33 H -1.347419 4.862149 -2.400939 0
M  V30 34 H -0.265229 6.345800 -0.693856 0
M  V30 35 H 1.653090 3.009136 1.069705 0
M  V30 36 H 0.236420 -2.350411 -1.888098 0
M  V30 37 H -0.763136 -1.295471 1.268133 0
M  V30 38 H 0.694059 -0.580377 1.990967 0
M  V30 39 H 0.507851 -1.634897 3.975252 0
M  V30 40 H -1.230003 -1.410428 3.529755 0
M  V30 END ATOM
M  V30 BEGIN BOND
M  V30 1 1 1 2
M  V30 2 1 2 3
M  V30 3 1 3 4
M  V30 4 1 4 5
M  V30 5 1 5 6
M  V30 6 1 6 7
M  V30 7 2 7 8
M  V30 8 1 8 9
M  V30 9 2 9 10
M  V30 10 1 10 11
M  V30 11 1 11 12
M  V30 12 2 12 13
M  V30 13 1 13 14
M  V30 14 2 14 15
M  V30 15 1 15 16
M  V30 16 1 15 17
M  V30 17 2 17 18
M  V30 18 1 10 19
M  V30 19 2 19 20
M  V30 20 1 19 21
M  V30 21 1 5 22
M  V30 22 1 22 23
M  V30 23 1 23 2
M  V30 24 1 21 7
M  V30 25 1 18 9
M  V30 26 1 18 12
M  V30 27 1 1 24
M  V30 28 1 1 25
M  V30 29 1 1 26
M  V30 30 1 3 27
M  V30 31 1 3 28
M  V30 32 1 4 29
M  V30 33 1 4 30
M  V30 34 1 6 31
M  V30 35 1 6 32
M  V30 36 1 13 33
M  V30 37 1 14 34
M  V30 38 1 17 35
M  V30 39 1 21 36
M  V30 40 1 22 37
M  V30 41 1 22 38
M  V30 42 1 23 39
M  V30 43 1 23 40
M  V30 END BOND
M  V30 END CTAB
M  END
>  <Dataset>  (106) 
ChEMBL_Kinases

>  <Ligand_Instance>  (106) 
nan

>  <PDB_ID>  (106) 
nan

>  <Standardized_SMILES>  (106) 
CN1CCN(Cc2nc3c(oc4ccc(Cl)cc43)c(=O)[nH]2)CC1

>  <Name>  (106) 
nan

>  <Pocket>  (106) 
nan

>  <ATP_Site>  (106) 
nan

>  <Peripheral>  (106) 
nan

>  <Num_H_Atoms_ProtBoundConf>  (106) 
nan

>  <Num_Resolved_Atoms>  (106) 
nan

>  <Num_Not_Resolved_Atoms>  (106) 
nan

$$$$
CHEMBL2035640
     RDKit          3D

  0  0  0  0  0  0  0  0  0  0999 V3000
M  V30 BEGIN CTAB
M  V30 COUNTS 40 43 0 0 0
M  V30 BEGIN ATOM
M  V30 1 C -2.187507 -2.693936 2.625944 0
M  V30 2 N -0.800553 -2.813289 2.989232 0
M  V30 3 C -0.218786 -3.958884 2.326158 0
M  V30 4 C 0.547961 -3.436323 1.125717 0
M  V30 5 N 1.732263 -2.749675 1.618912 0
M  V30 6 C 2.508418 -2.182536 0.536618 0
M  V30 7 C 1.642332 -1.214431 -0.184451 0
M  V30 8 N 1.571777 0.094790 0.152464 0
M  V30 9 C 0.780013 0.965749 -0.511329 0
M  V30 10 C 0.001218 0.541500 -1.576181 0
M  V30 11 O -0.671502 1.566792 -2.048429 0
M  V30 12 C -0.404263 2.650630 -1.381307 0
M  V30 13 C -0.874179 3.956410 -1.521600 0
M  V30 14 C -0.376273 4.885488 -0.629271 0
M  V30 15 C 0.533989 4.594298 0.362225 0
M  V30 16 I 1.236374 6.102237 1.684433 0
M  V30 17 C 0.993859 3.287758 0.490297 0
M  V30 18 C 0.516938 2.326498 -0.387357 0
M  V30 19 C 0.063858 -0.792569 -1.930527 0
M  V30 20 O -0.611093 -1.258943 -2.885131 0
M  V30 21 N 0.870311 -1.618930 -1.234884 0
M  V30 22 C 1.406978 -1.780831 2.631016 0
M  V30 23 C -0.077108 -1.597901 2.748797 0
M  V30 24 H -2.377766 -1.889245 1.883699 0
M  V30 25 H -2.821172 -2.471065 3.529707 0
M  V30 26 H -2.575371 -3.632621 2.179422 0
M  V30 27 H -1.010605 -4.642672 1.955942 0
M  V30 28 H 0.505853 -4.463348 2.997303 0
M  V30 29 H -0.108391 -2.674199 0.660368 0
M  V30 30 H 0.819260 -4.251483 0.451338 0
M  V30 31 H 3.307221 -1.556937 1.014997 0
M  V30 32 H 2.977884 -2.931291 -0.095423 0
M  V30 33 H -1.589975 4.207953 -2.294039 0
M  V30 34 H -0.724561 5.914552 -0.713555 0
M  V30 35 H 1.710367 3.024517 1.259792 0
M  V30 36 H 0.908642 -2.623999 -1.512482 0
M  V30 37 H 1.824901 -0.779923 2.351306 0
M  V30 38 H 1.872718 -2.034770 3.608260 0
M  V30 39 H -0.269275 -0.880813 3.592125 0
M  V30 40 H -0.431276 -1.037003 1.835721 0
M  V30 END ATOM
M  V30 BEGIN BOND
M  V30 1 1 1 2
M  V30 2 1 2 3
M  V30 3 1 3 4
M  V30 4 1 4 5
M  V30 5 1 5 6
M  V30 6 1 6 7
M  V30 7 2 7 8
M  V30 8 1 8 9
M  V30 9 2 9 10
M  V30 10 1 10 11
M  V30 11 1 11 12
M  V30 12 2 12 13
M  V30 13 1 13 14
M  V30 14 2 14 15
M  V30 15 1 15 16
M  V30 16 1 15 17
M  V30 17 2 17 18
M  V30 18 1 10 19
M  V30 19 2 19 20
M  V30 20 1 19 21
M  V30 21 1 5 22
M  V30 22 1 22 23
M  V30 23 1 23 2
M  V30 24 1 21 7
M  V30 25 1 18 9
M  V30 26 1 18 12
M  V30 27 1 1 24
M  V30 28 1 1 25
M  V30 29 1 1 26
M  V30 30 1 3 27
M  V30 31 1 3 28
M  V30 32 1 4 29
M  V30 33 1 4 30
M  V30 34 1 6 31
M  V30 35 1 6 32
M  V30 36 1 13 33
M  V30 37 1 14 34
M  V30 38 1 17 35
M  V30 39 1 21 36
M  V30 40 1 22 37
M  V30 41 1 22 38
M  V30 42 1 23 39
M  V30 43 1 23 40
M  V30 END BOND
M  V30 END CTAB
M  END
>  <Dataset>  (107) 
ChEMBL_Kinases

>  <Ligand_Instance>  (107) 
nan

>  <PDB_ID>  (107) 
nan

>  <Standardized_SMILES>  (107) 
CN1CCN(Cc2nc3c(oc4ccc(I)cc43)c(=O)[nH]2)CC1

>  <Name>  (107) 
nan

>  <Pocket>  (107) 
nan

>  <ATP_Site>  (107) 
nan

>  <Peripheral>  (107) 
nan

>  <Num_H_Atoms_ProtBoundConf>  (107) 
nan

>  <Num_Resolved_Atoms>  (107) 
nan

>  <Num_Not_Resolved_Atoms>  (107) 
nan

$$$$
CHEMBL2035625
     RDKit          3D

  0  0  0  0  0  0  0  0  0  0999 V3000
M  V30 BEGIN CTAB
M  V30 COUNTS 34 37 0 0 0
M  V30 BEGIN ATOM
M  V30 1 C -1.020263 -5.298881 3.416979 0
M  V30 2 O -0.954065 -4.073514 2.712433 0
M  V30 3 C 0.271048 -3.606456 2.250305 0
M  V30 4 C 1.468799 -4.270945 2.433334 0
M  V30 5 C 2.645944 -3.713373 1.927692 0
M  V30 6 C 2.525023 -2.500355 1.260323 0
M  V30 7 C 1.355066 -1.821986 1.064950 0
M  V30 8 C 1.281548 -0.552529 0.357965 0
M  V30 9 N 0.100878 0.068812 0.196543 0
M  V30 10 C -0.035353 1.243169 -0.446494 0
M  V30 11 C 1.067924 1.874882 -0.982163 0
M  V30 12 O 0.666462 2.985536 -1.546348 0
M  V30 13 C -0.643154 3.113583 -1.407636 0
M  V30 14 C -1.519517 4.105139 -1.827788 0
M  V30 15 C -2.875898 4.033603 -1.568516 0
M  V30 16 C -3.327482 2.913696 -0.861506 0
M  V30 17 Br -5.203379 2.755971 -0.469635 0
M  V30 18 C -2.478117 1.912649 -0.431625 0
M  V30 19 C -1.144429 2.031179 -0.713847 0
M  V30 20 C 2.289873 1.249883 -0.825327 0
M  V30 21 O 3.292769 1.822656 -1.311429 0
M  V30 22 N 2.336646 0.078578 -0.169590 0
M  V30 23 C 0.212682 -2.386474 1.568901 0
M  V30 24 Cl -1.319264 -1.539668 1.336547 0
M  V30 25 H -0.192633 -5.407758 4.151528 0
M  V30 26 H -1.984782 -5.362646 3.990946 0
M  V30 27 H -0.983839 -6.120367 2.651225 0
M  V30 28 H 1.462735 -5.205696 2.963621 0
M  V30 29 H 3.596080 -4.214678 2.058265 0
M  V30 30 H 3.457247 -2.119632 0.894337 0
M  V30 31 H -1.202242 4.982141 -2.375583 0
M  V30 32 H -3.594206 4.771960 -1.870778 0
M  V30 33 H -2.834948 1.051771 0.113413 0
M  V30 34 H 3.281239 -0.343737 -0.082798 0
M  V30 END ATOM
M  V30 BEGIN BOND
M  V30 1 1 1 2
M  V30 2 1 2 3
M  V30 3 2 3 4
M  V30 4 1 4 5
M  V30 5 2 5 6
M  V30 6 1 6 7
M  V30 7 1 7 8
M  V30 8 2 8 9
M  V30 9 1 9 10
M  V30 10 2 10 11
M  V30 11 1 11 12
M  V30 12 1 12 13
M  V30 13 2 13 14
M  V30 14 1 14 15
M  V30 15 2 15 16
M  V30 16 1 16 17
M  V30 17 1 16 18
M  V30 18 2 18 19
M  V30 19 1 11 20
M  V30 20 2 20 21
M  V30 21 1 20 22
M  V30 22 2 7 23
M  V30 23 1 23 24
M  V30 24 1 23 3
M  V30 25 1 22 8
M  V30 26 1 19 10
M  V30 27 1 19 13
M  V30 28 1 1 25
M  V30 29 1 1 26
M  V30 30 1 1 27
M  V30 31 1 4 28
M  V30 32 1 5 29
M  V30 33 1 6 30
M  V30 34 1 14 31
M  V30 35 1 15 32
M  V30 36 1 18 33
M  V30 37 1 22 34
M  V30 END BOND
M  V30 END CTAB
M  END
>  <Dataset>  (108) 
ChEMBL_Kinases

>  <Ligand_Instance>  (108) 
nan

>  <PDB_ID>  (108) 
nan

>  <Standardized_SMILES>  (108) 
COc1cccc(-c2nc3c(oc4ccc(Br)cc43)c(=O)[nH]2)c1Cl

>  <Name>  (108) 
nan

>  <Pocket>  (108) 
nan

>  <ATP_Site>  (108) 
nan

>  <Peripheral>  (108) 
nan

>  <Num_H_Atoms_ProtBoundConf>  (108) 
nan

>  <Num_Resolved_Atoms>  (108) 
nan

>  <Num_Not_Resolved_Atoms>  (108) 
nan

$$$$
CHEMBL4645737
     RDKit          3D

  0  0  0  0  0  0  0  0  0  0999 V3000
M  V30 BEGIN CTAB
M  V30 COUNTS 37 39 0 0 0
M  V30 BEGIN ATOM
M  V30 1 C 0.961306 -4.988957 1.662246 0
M  V30 2 N -0.314940 -4.365593 1.339496 0
M  V30 3 C -1.527438 -5.074252 0.936016 0
M  V30 4 C -0.241257 -2.952458 1.465171 0
M  V30 5 C 0.122531 -2.220785 0.347847 0
M  V30 6 C 0.220624 -0.825918 0.380225 0
M  V30 7 C 0.600686 -0.129974 -0.816513 0
M  V30 8 C 1.737713 0.638180 -0.955180 0
M  V30 9 C 2.148977 1.325068 -2.077723 0
M  V30 10 N 1.306510 1.203087 -3.146823 0
M  V30 11 C 0.180698 0.468929 -3.078852 0
M  V30 12 C -0.225158 -0.218729 -1.945460 0
M  V30 13 C -0.072723 -0.258149 1.604160 0
M  V30 14 C 0.016931 1.196327 1.691998 0
M  V30 15 C -0.718326 2.131447 0.994635 0
M  V30 16 C -0.494318 3.482002 1.210829 0
M  V30 17 C 0.466676 3.884574 2.125944 0
M  V30 18 C 1.203000 2.951383 2.824329 0
M  V30 19 C 0.972533 1.602501 2.602050 0
M  V30 20 N -0.428022 -0.987213 2.691545 0
M  V30 21 N -0.510090 -2.311134 2.620233 0
M  V30 22 H 1.770660 -4.691867 0.964446 0
M  V30 23 H 0.892296 -6.098348 1.599959 0
M  V30 24 H 1.258240 -4.721178 2.703030 0
M  V30 25 H -2.259040 -5.003622 1.759097 0
M  V30 26 H -1.972722 -4.592730 0.026333 0
M  V30 27 H -1.224920 -6.106614 0.681263 0
M  V30 28 H 0.336701 -2.747608 -0.577379 0
M  V30 29 H 2.400526 0.723262 -0.084965 0
M  V30 30 H 3.056607 1.903375 -2.095363 0
M  V30 31 H -0.482656 0.383915 -3.950058 0
M  V30 32 H -1.134948 -0.795054 -1.935517 0
M  V30 33 H -1.444384 1.706559 0.302282 0
M  V30 34 H -1.087937 4.174709 0.647843 0
M  V30 35 H 0.556298 4.963502 2.213834 0
M  V30 36 H 1.905522 3.410793 3.493988 0
M  V30 37 H 1.621490 0.984145 3.218006 0
M  V30 END ATOM
M  V30 BEGIN BOND
M  V30 1 1 1 2
M  V30 2 1 2 3
M  V30 3 1 2 4
M  V30 4 2 4 5
M  V30 5 1 5 6
M  V30 6 1 6 7
M  V30 7 2 7 8
M  V30 8 1 8 9
M  V30 9 2 9 10
M  V30 10 1 10 11
M  V30 11 2 11 12
M  V30 12 2 6 13
M  V30 13 1 13 14
M  V30 14 2 14 15
M  V30 15 1 15 16
M  V30 16 2 16 17
M  V30 17 1 17 18
M  V30 18 2 18 19
M  V30 19 1 13 20
M  V30 20 2 20 21
M  V30 21 1 21 4
M  V30 22 1 12 7
M  V30 23 1 19 14
M  V30 24 1 1 22
M  V30 25 1 1 23
M  V30 26 1 1 24
M  V30 27 1 3 25
M  V30 28 1 3 26
M  V30 29 1 3 27
M  V30 30 1 5 28
M  V30 31 1 8 29
M  V30 32 1 9 30
M  V30 33 1 11 31
M  V30 34 1 12 32
M  V30 35 1 15 33
M  V30 36 1 16 34
M  V30 37 1 17 35
M  V30 38 1 18 36
M  V30 39 1 19 37
M  V30 END BOND
M  V30 END CTAB
M  END
>  <Dataset>  (109) 
ChEMBL_Kinases

>  <Ligand_Instance>  (109) 
nan

>  <PDB_ID>  (109) 
nan

>  <Standardized_SMILES>  (109) 
CN(C)c1cc(-c2ccncc2)c(-c2ccccc2)nn1

>  <Name>  (109) 
nan

>  <Pocket>  (109) 
nan

>  <ATP_Site>  (109) 
nan

>  <Peripheral>  (109) 
nan

>  <Num_H_Atoms_ProtBoundConf>  (109) 
nan

>  <Num_Resolved_Atoms>  (109) 
nan

>  <Num_Not_Resolved_Atoms>  (109) 
nan

$$$$
CHEMBL2326014
     RDKit          3D

  0  0  0  0  0  0  0  0  0  0999 V3000
M  V30 BEGIN CTAB
M  V30 COUNTS 37 40 0 0 0
M  V30 BEGIN ATOM
M  V30 1 C 0.564584 -0.787277 3.954631 0
M  V30 2 C 1.447871 -1.616964 3.272264 0
M  V30 3 C 1.475376 -1.508971 1.908319 0
M  V30 4 C 2.381990 -2.355760 1.144113 0
M  V30 5 N 3.231694 -3.267380 1.644543 0
M  V30 6 N 3.905661 -3.858685 0.675866 0
M  V30 7 C 3.546146 -3.377489 -0.525597 0
M  V30 8 N 3.896936 -3.610813 -1.803618 0
M  V30 9 C 3.329106 -2.936208 -2.818802 0
M  V30 10 C 2.355494 -1.969272 -2.588670 0
M  V30 11 C 2.014492 -1.749835 -1.269577 0
M  V30 12 C 2.587356 -2.433095 -0.217234 0
M  V30 13 N 0.696306 -0.649096 1.225612 0
M  V30 14 C -0.174940 0.172506 1.866373 0
M  V30 15 N -1.023868 1.101612 1.211120 0
M  V30 16 C -1.985914 1.991214 1.822281 0
M  V30 17 C -3.311505 1.769253 1.132043 0
M  V30 18 N -3.289787 0.504076 0.389275 0
M  V30 19 C -2.309670 0.587817 -0.704223 0
M  V30 20 C -1.056123 1.307649 -0.224908 0
M  V30 21 C -0.227210 0.088659 3.240227 0
M  V30 22 H 0.568096 -0.898089 5.030418 0
M  V30 23 H 2.116167 -2.344059 3.752790 0
M  V30 24 H 4.634164 -4.614625 0.839232 0
M  V30 25 H 3.663704 -3.179927 -3.817950 0
M  V30 26 H 1.901102 -1.429412 -3.401417 0
M  V30 27 H 1.261878 -1.006047 -1.058311 0
M  V30 28 H -2.047648 1.955185 2.904511 0
M  V30 29 H -1.690955 3.044271 1.535071 0
M  V30 30 H -4.106473 1.685274 1.884441 0
M  V30 31 H -3.579069 2.548481 0.409237 0
M  V30 32 H -4.201015 0.321100 -0.041999 0
M  V30 33 H -2.088646 -0.444918 -1.000159 0
M  V30 34 H -2.768443 1.107646 -1.555324 0
M  V30 35 H -1.067845 2.376245 -0.518245 0
M  V30 36 H -0.196073 0.858410 -0.744813 0
M  V30 37 H -0.855290 0.662101 3.891449 0
M  V30 END ATOM
M  V30 BEGIN BOND
M  V30 1 2 1 2
M  V30 2 1 2 3
M  V30 3 1 3 4
M  V30 4 2 4 5
M  V30 5 1 5 6
M  V30 6 1 6 7
M  V30 7 2 7 8
M  V30 8 1 8 9
M  V30 9 2 9 10
M  V30 10 1 10 11
M  V30 11 2 11 12
M  V30 12 2 3 13
M  V30 13 1 13 14
M  V30 14 1 14 15
M  V30 15 1 15 16
M  V30 16 1 16 17
M  V30 17 1 17 18
M  V30 18 1 18 19
M  V30 19 1 19 20
M  V30 20 2 14 21
M  V30 21 1 21 1
M  V30 22 1 12 4
M  V30 23 1 20 15
M  V30 24 1 12 7
M  V30 25 1 1 22
M  V30 26 1 2 23
M  V30 27 1 6 24
M  V30 28 1 9 25
M  V30 29 1 10 26
M  V30 30 1 11 27
M  V30 31 1 16 28
M  V30 32 1 16 29
M  V30 33 1 17 30
M  V30 34 1 17 31
M  V30 35 1 18 32
M  V30 36 1 19 33
M  V30 37 1 19 34
M  V30 38 1 20 35
M  V30 39 1 20 36
M  V30 40 1 21 37
M  V30 END BOND
M  V30 END CTAB
M  END
>  <Dataset>  (110) 
ChEMBL_Kinases

>  <Ligand_Instance>  (110) 
nan

>  <PDB_ID>  (110) 
nan

>  <Standardized_SMILES>  (110) 
c1cc(-c2n[nH]c3ncccc23)nc(N2CCNCC2)c1

>  <Name>  (110) 
nan

>  <Pocket>  (110) 
nan

>  <ATP_Site>  (110) 
nan

>  <Peripheral>  (110) 
nan

>  <Num_H_Atoms_ProtBoundConf>  (110) 
nan

>  <Num_Resolved_Atoms>  (110) 
nan

>  <Num_Not_Resolved_Atoms>  (110) 
nan

$$$$
CHEMBL2062575
     RDKit          3D

  0  0  0  0  0  0  0  0  0  0999 V3000
M  V30 BEGIN CTAB
M  V30 COUNTS 55 58 0 0 0
M  V30 BEGIN ATOM
M  V30 1 C 4.432193 -4.835429 4.920090 0
M  V30 2 C 4.853063 -3.691617 4.032476 0
M  V30 3 O 6.060943 -3.384437 3.958128 0
M  V30 4 N 3.893567 -2.969403 3.291428 0
M  V30 5 C 4.109983 -1.878873 2.416918 0
M  V30 6 C 5.309248 -1.299489 2.097474 0
M  V30 7 C 5.485822 -0.237626 1.240244 0
M  V30 8 C 4.388716 0.324421 0.625190 0
M  V30 9 C 4.195082 1.346900 -0.250763 0
M  V30 10 C 2.851578 1.422479 -0.495928 0
M  V30 11 N 2.211994 0.470144 0.208814 0
M  V30 12 C 0.815428 0.117198 0.303485 0
M  V30 13 C -0.278490 0.714680 0.903897 0
M  V30 14 C -1.488328 0.064557 0.791417 0
M  V30 15 N -2.545747 0.753493 1.452762 0
M  V30 16 C -2.910415 2.042538 0.945806 0
M  V30 17 C -3.419149 2.022421 -0.473769 0
M  V30 18 C -4.649317 1.169697 -0.564986 0
M  V30 19 N -5.160083 1.138556 -1.937029 0
M  V30 20 C -4.160280 0.400325 -2.721130 0
M  V30 21 C -6.318677 0.231508 -1.860126 0
M  V30 22 N -1.622842 -1.096662 0.133990 0
M  V30 23 N -2.645187 -1.863072 -0.085528 0
M  V30 24 C -2.306794 -2.946631 -0.800488 0
M  V30 25 C -0.935156 -2.857812 -1.059143 0
M  V30 26 C -0.089398 -3.784938 -1.795778 0
M  V30 27 N 0.597961 -4.507915 -2.381124 0
M  V30 28 C -0.555105 -1.678997 -0.451206 0
M  V30 29 N 0.633496 -1.065854 -0.356940 0
M  V30 30 C 3.140250 -0.236350 0.921858 0
M  V30 31 C 3.039654 -1.296478 1.788556 0
M  V30 32 H 3.644766 -5.429512 4.409809 0
M  V30 33 H 4.039073 -4.478364 5.891724 0
M  V30 34 H 5.303169 -5.474945 5.163088 0
M  V30 35 H 2.919925 -3.312880 3.433241 0
M  V30 36 H 6.221179 -1.670628 2.525952 0
M  V30 37 H 6.438195 0.179676 1.020238 0
M  V30 38 H 4.978625 1.989115 -0.678967 0
M  V30 39 H 2.314842 2.108203 -1.140264 0
M  V30 40 H 0.028895 1.622490 1.371807 0
M  V30 41 H -2.800632 0.083430 2.197804 0
M  V30 42 H -3.639206 2.578527 1.593312 0
M  V30 43 H -1.972760 2.676253 0.913545 0
M  V30 44 H -2.596834 1.683300 -1.106255 0
M  V30 45 H -3.744116 3.065780 -0.732210 0
M  V30 46 H -5.442350 1.621076 0.076468 0
M  V30 47 H -4.547257 0.138896 -0.237899 0
M  V30 48 H -3.738030 1.126547 -3.466859 0
M  V30 49 H -4.571927 -0.494893 -3.205678 0
M  V30 50 H -3.299784 0.068485 -2.115154 0
M  V30 51 H -5.868541 -0.744702 -1.546363 0
M  V30 52 H -6.775880 0.067441 -2.845904 0
M  V30 53 H -7.009592 0.552220 -1.072031 0
M  V30 54 H -2.914154 -3.765432 -1.145056 0
M  V30 55 H 2.043468 -1.718355 2.004303 0
M  V30 END ATOM
M  V30 BEGIN BOND
M  V30 1 1 1 2
M  V30 2 2 2 3
M  V30 3 1 2 4
M  V30 4 1 4 5
M  V30 5 2 5 6
M  V30 6 1 6 7
M  V30 7 2 7 8
M  V30 8 1 8 9
M  V30 9 2 9 10
M  V30 10 1 10 11
M  V30 11 1 11 12
M  V30 12 1 12 13
M  V30 13 2 13 14
M  V30 14 1 14 15
M  V30 15 1 15 16
M  V30 16 1 16 17
M  V30 17 1 17 18
M  V30 18 1 18 19
M  V30 19 1 19 20
M  V30 20 1 19 21
M  V30 21 1 14 22
M  V30 22 1 22 23
M  V30 23 2 23 24
M  V30 24 1 24 25
M  V30 25 1 25 26
M  V30 26 3 26 27
M  V30 27 2 25 28
M  V30 28 1 28 29
M  V30 29 1 11 30
M  V30 30 2 30 31
M  V30 31 1 31 5
M  V30 32 1 30 8
M  V30 33 2 29 12
M  V30 34 1 28 22
M  V30 35 1 1 32
M  V30 36 1 1 33
M  V30 37 1 1 34
M  V30 38 1 4 35
M  V30 39 1 6 36
M  V30 40 1 7 37
M  V30 41 1 9 38
M  V30 42 1 10 39
M  V30 43 1 13 40
M  V30 44 1 15 41
M  V30 45 1 16 42
M  V30 46 1 16 43
M  V30 47 1 17 44
M  V30 48 1 17 45
M  V30 49 1 18 46
M  V30 50 1 18 47
M  V30 51 1 20 48
M  V30 52 1 20 49
M  V30 53 1 20 50
M  V30 54 1 21 51
M  V30 55 1 21 52
M  V30 56 1 21 53
M  V30 57 1 24 54
M  V30 58 1 31 55
M  V30 END BOND
M  V30 END CTAB
M  END
>  <Dataset>  (111) 
ChEMBL_Kinases

>  <Ligand_Instance>  (111) 
nan

>  <PDB_ID>  (111) 
nan

>  <Standardized_SMILES>  (111) 
CC(=O)Nc1ccc2ccn(-c3cc(NCCCN(C)C)n4ncc(C#N)c4n3)c2c1

>  <Name>  (111) 
nan

>  <Pocket>  (111) 
nan

>  <ATP_Site>  (111) 
nan

>  <Peripheral>  (111) 
nan

>  <Num_H_Atoms_ProtBoundConf>  (111) 
nan

>  <Num_Resolved_Atoms>  (111) 
nan

>  <Num_Not_Resolved_Atoms>  (111) 
nan

$$$$
CHEMBL2326012
     RDKit          3D

  0  0  0  0  0  0  0  0  0  0999 V3000
M  V30 BEGIN CTAB
M  V30 COUNTS 53 56 0 0 0
M  V30 BEGIN ATOM
M  V30 1 C 1.508317 -1.603280 2.693985 0
M  V30 2 C 2.442743 -0.539153 2.168223 0
M  V30 3 C 2.978651 0.251490 3.345532 0
M  V30 4 C 3.567218 -1.052468 1.332363 0 CFG=1
M  V30 5 C 4.470108 0.070237 0.840191 0
M  V30 6 O 4.389749 -1.842833 2.149008 0
M  V30 7 C 3.133532 -1.934665 0.179679 0 CFG=2
M  V30 8 C 2.358797 -1.115389 -0.816132 0
M  V30 9 N 0.963448 -1.403822 -0.828838 0
M  V30 10 C -0.019936 -0.412133 -0.582361 0
M  V30 11 C 0.137792 0.947227 -0.663202 0
M  V30 12 C -1.035956 1.657912 -0.322303 0
M  V30 13 C -2.163624 0.860730 0.040938 0
M  V30 14 Cl -3.218578 2.279125 0.546630 0
M  V30 15 C -2.364396 -0.601497 0.132841 0
M  V30 16 C -3.723293 -0.516729 0.542886 0
M  V30 17 N -4.062753 -1.259206 1.611804 0
M  V30 18 N -5.350824 -1.226286 1.860005 0
M  V30 19 C -5.890389 -0.437400 0.923698 0
M  V30 20 N -7.132240 -0.019826 0.583298 0
M  V30 21 C -7.361288 0.759256 -0.474249 0
M  V30 22 C -6.367674 1.224489 -1.335667 0
M  V30 23 C -5.097138 0.812588 -1.005925 0
M  V30 24 C -4.897336 0.015310 0.090570 0
M  V30 25 N -1.185913 -0.674967 -0.222793 0
M  V30 26 C 0.822077 -2.788391 -1.129322 0
M  V30 27 C 1.426473 -3.638779 -0.074513 0
M  V30 28 N 2.442068 -3.049167 0.710910 0
M  V30 29 H 1.027673 -1.144037 3.611807 0
M  V30 30 H 2.062657 -2.512142 2.981160 0
M  V30 31 H 0.670607 -1.768851 1.991128 0
M  V30 32 H 1.789777 0.172080 1.612603 0
M  V30 33 H 3.384860 -0.442394 4.105397 0
M  V30 34 H 2.072912 0.717344 3.818946 0
M  V30 35 H 3.664081 1.038033 3.014430 0
M  V30 36 H 3.933459 0.948666 0.482587 0
M  V30 37 H 5.138342 -0.375706 0.079994 0
M  V30 38 H 5.109041 0.355766 1.701884 0
M  V30 39 H 4.881875 -1.241468 2.785157 0
M  V30 40 H 4.058673 -2.284854 -0.320319 0
M  V30 41 H 2.513180 -0.045872 -0.597800 0
M  V30 42 H 2.756144 -1.259055 -1.850814 0
M  V30 43 H 1.102758 1.314895 -0.968840 0
M  V30 44 H -0.785450 2.736287 -0.425740 0
M  V30 45 H -5.984265 -1.649300 2.571684 0
M  V30 46 H -8.377611 1.094020 -0.740901 0
M  V30 47 H -6.528228 1.846184 -2.189592 0
M  V30 48 H -4.295941 1.121526 -1.690348 0
M  V30 49 H -0.254191 -3.081103 -1.258723 0
M  V30 50 H 1.298874 -3.037667 -2.110542 0
M  V30 51 H 0.609518 -3.985174 0.612208 0
M  V30 52 H 1.829943 -4.557783 -0.546658 0
M  V30 53 H 3.137740 -3.735749 1.101641 0
M  V30 END ATOM
M  V30 BEGIN BOND
M  V30 1 1 1 2
M  V30 2 1 2 3
M  V30 3 1 2 4
M  V30 4 1 4 5
M  V30 5 1 4 6 CFG=1
M  V30 6 1 4 7
M  V30 7 1 7 8
M  V30 8 1 8 9
M  V30 9 1 9 10
M  V30 10 2 10 11
M  V30 11 1 11 12
M  V30 12 2 12 13
M  V30 13 1 13 14
M  V30 14 1 13 15
M  V30 15 1 15 16
M  V30 16 2 16 17
M  V30 17 1 17 18
M  V30 18 1 18 19
M  V30 19 2 19 20
M  V30 20 1 20 21
M  V30 21 2 21 22
M  V30 22 1 22 23
M  V30 23 2 23 24
M  V30 24 2 15 25
M  V30 25 1 9 26
M  V30 26 1 26 27
M  V30 27 1 27 28
M  V30 28 1 28 7
M  V30 29 1 25 10
M  V30 30 1 24 16
M  V30 31 1 24 19
M  V30 32 1 1 29
M  V30 33 1 1 30
M  V30 34 1 1 31
M  V30 35 1 2 32
M  V30 36 1 3 33
M  V30 37 1 3 34
M  V30 38 1 3 35
M  V30 39 1 5 36
M  V30 40 1 5 37
M  V30 41 1 5 38
M  V30 42 1 6 39
M  V30 43 1 7 40 CFG=3
M  V30 44 1 8 41
M  V30 45 1 8 42
M  V30 46 1 11 43
M  V30 47 1 12 44
M  V30 48 1 18 45
M  V30 49 1 21 46
M  V30 50 1 22 47
M  V30 51 1 23 48
M  V30 52 1 26 49
M  V30 53 1 26 50
M  V30 54 1 27 51
M  V30 55 1 27 52
M  V30 56 1 28 53
M  V30 END BOND
M  V30 END CTAB
M  END
>  <Dataset>  (112) 
ChEMBL_Kinases

>  <Ligand_Instance>  (112) 
nan

>  <PDB_ID>  (112) 
nan

>  <Standardized_SMILES>  (112) 
CC(C)[C@@](C)(O)[C@@H]1CN(c2ccc(Cl)c(-c3n[nH]c4ncccc34)n2)CCN1

>  <Name>  (112) 
nan

>  <Pocket>  (112) 
nan

>  <ATP_Site>  (112) 
nan

>  <Peripheral>  (112) 
nan

>  <Num_H_Atoms_ProtBoundConf>  (112) 
nan

>  <Num_Resolved_Atoms>  (112) 
nan

>  <Num_Not_Resolved_Atoms>  (112) 
nan

$$$$
CHEMBL4645565
     RDKit          3D

  0  0  0  0  0  0  0  0  0  0999 V3000
M  V30 BEGIN CTAB
M  V30 COUNTS 54 58 0 0 0
M  V30 BEGIN ATOM
M  V30 1 C 2.009450 -5.490057 2.620720 0
M  V30 2 C 2.837870 -4.622937 1.709268 0
M  V30 3 O 4.162143 -4.526076 2.035288 0
M  V30 4 C 2.293859 -3.236159 1.701909 0
M  V30 5 C 1.854723 -2.114537 1.675627 0
M  V30 6 C 1.335862 -0.776315 1.621617 0
M  V30 7 C 1.852696 0.279182 2.327606 0
M  V30 8 C 1.221503 1.506631 2.140910 0
M  V30 9 C 0.142047 1.686063 1.306657 0
M  V30 10 N -0.416399 2.982709 1.154288 0
M  V30 11 C -0.273744 3.477488 -0.219763 0
M  V30 12 C 0.698824 4.649930 -0.195753 0
M  V30 13 O 0.335081 5.564400 0.795446 0
M  V30 14 C -0.954915 5.309759 1.286458 0
M  V30 15 C -1.079792 3.965841 1.962949 0
M  V30 16 C -0.364931 0.615777 0.606428 0
M  V30 17 N -1.471242 0.813712 -0.230411 0
M  V30 18 C -2.144713 -0.125930 -1.054971 0
M  V30 19 N -2.152129 -0.103201 -2.411668 0
M  V30 20 C -2.825851 -1.074262 -3.039090 0
M  V30 21 N -3.497217 -2.071978 -2.407463 0
M  V30 22 C -3.513367 -2.127255 -1.051991 0
M  V30 23 N -4.083610 -2.991303 -0.194492 0
M  V30 24 C -3.795597 -2.603393 1.053643 0
M  V30 25 C -3.025746 -1.468120 0.940386 0
M  V30 26 C -2.824148 -1.135243 -0.393441 0
M  V30 27 C 0.251636 -0.591297 0.786083 0
M  V30 28 C 2.648992 -5.189744 0.302024 0
M  V30 29 N 1.834544 -4.844544 -0.536570 0
M  V30 30 C 1.748779 -5.398767 -1.730969 0
M  V30 31 C 2.642973 -6.440448 -2.049475 0
M  V30 32 S 3.616884 -6.521123 -0.424504 0
M  V30 33 H 1.431259 -6.264826 2.105155 0
M  V30 34 H 2.609964 -5.987243 3.412979 0
M  V30 35 H 1.266733 -4.854172 3.148073 0
M  V30 36 H 4.582569 -5.288786 2.464879 0
M  V30 37 H 2.695581 0.089497 2.966942 0
M  V30 38 H 1.620672 2.348063 2.693626 0
M  V30 39 H -1.227547 3.901527 -0.573045 0
M  V30 40 H 0.111129 2.746634 -0.925440 0
M  V30 41 H 0.664428 5.165361 -1.176004 0
M  V30 42 H 1.733826 4.318977 0.023448 0
M  V30 43 H -1.735245 5.519380 0.537424 0
M  V30 44 H -1.085777 6.090252 2.095010 0
M  V30 45 H -0.663143 4.066532 2.989219 0
M  V30 46 H -2.166228 3.701765 1.977478 0
M  V30 47 H -2.013797 1.674392 -0.410186 0
M  V30 48 H -2.833131 -1.053344 -4.118868 0
M  V30 49 H -4.657301 -3.829668 -0.414908 0
M  V30 50 H -4.120714 -3.108741 1.977325 0
M  V30 51 H -2.646701 -0.933575 1.807981 0
M  V30 52 H -0.193640 -1.410770 0.201520 0
M  V30 53 H 0.955980 -4.954444 -2.357865 0
M  V30 54 H 2.497580 -6.859065 -3.102792 0
M  V30 END ATOM
M  V30 BEGIN BOND
M  V30 1 1 1 2
M  V30 2 1 2 3
M  V30 3 1 2 4
M  V30 4 3 4 5
M  V30 5 1 5 6
M  V30 6 2 6 7
M  V30 7 1 7 8
M  V30 8 2 8 9
M  V30 9 1 9 10
M  V30 10 1 10 11
M  V30 11 1 11 12
M  V30 12 1 12 13
M  V30 13 1 13 14
M  V30 14 1 14 15
M  V30 15 1 9 16
M  V30 16 1 16 17
M  V30 17 1 17 18
M  V30 18 2 18 19
M  V30 19 1 19 20
M  V30 20 2 20 21
M  V30 21 1 21 22
M  V30 22 1 22 23
M  V30 23 1 23 24
M  V30 24 2 24 25
M  V30 25 1 25 26
M  V30 26 2 16 27
M  V30 27 1 2 28
M  V30 28 2 28 29
M  V30 29 1 29 30
M  V30 30 2 30 31
M  V30 31 1 31 32
M  V30 32 1 27 6
M  V30 33 1 32 28
M  V30 34 1 15 10
M  V30 35 1 26 18
M  V30 36 2 26 22
M  V30 37 1 1 33
M  V30 38 1 1 34
M  V30 39 1 1 35
M  V30 40 1 3 36
M  V30 41 1 7 37
M  V30 42 1 8 38
M  V30 43 1 11 39
M  V30 44 1 11 40
M  V30 45 1 12 41
M  V30 46 1 12 42
M  V30 47 1 14 43
M  V30 48 1 14 44
M  V30 49 1 15 45
M  V30 50 1 15 46
M  V30 51 1 17 47
M  V30 52 1 20 48
M  V30 53 1 23 49
M  V30 54 1 24 50
M  V30 55 1 25 51
M  V30 56 1 27 52
M  V30 57 1 30 53
M  V30 58 1 31 54
M  V30 END BOND
M  V30 END CTAB
M  END
>  <Dataset>  (113) 
ChEMBL_Kinases

>  <Ligand_Instance>  (113) 
nan

>  <PDB_ID>  (113) 
nan

>  <Standardized_SMILES>  (113) 
CC(O)(C#Cc1ccc(N2CCOCC2)c(Nc2ncnc3[nH]ccc23)c1)c1nccs1

>  <Name>  (113) 
nan

>  <Pocket>  (113) 
nan

>  <ATP_Site>  (113) 
nan

>  <Peripheral>  (113) 
nan

>  <Num_H_Atoms_ProtBoundConf>  (113) 
nan

>  <Num_Resolved_Atoms>  (113) 
nan

>  <Num_Not_Resolved_Atoms>  (113) 
nan

$$$$
CHEMBL2326007
     RDKit          3D

  0  0  0  0  0  0  0  0  0  0999 V3000
M  V30 BEGIN CTAB
M  V30 COUNTS 53 56 0 0 0
M  V30 BEGIN ATOM
M  V30 1 C 1.629639 -1.990250 3.109085 0
M  V30 2 C 2.674829 -0.998372 2.638018 0
M  V30 3 C 2.015636 0.335886 2.574388 0
M  V30 4 C 3.489617 -1.433008 1.507429 0 CFG=1
M  V30 5 C 4.495362 -0.376439 1.121412 0
M  V30 6 O 4.282867 -2.526769 1.961329 0
M  V30 7 C 2.813913 -1.928237 0.265449 0 CFG=2
M  V30 8 C 2.157980 -0.854730 -0.565968 0
M  V30 9 N 0.720266 -0.839917 -0.480900 0
M  V30 10 C -0.071081 0.318001 -0.349542 0
M  V30 11 C 0.420877 1.600927 -0.262919 0
M  V30 12 C -0.329976 2.749431 -0.135582 0
M  V30 13 C -1.702127 2.624646 -0.088675 0
M  V30 14 F -2.554186 3.664444 0.033740 0
M  V30 15 C -2.218864 1.333966 -0.175115 0
M  V30 16 C -3.668605 1.184347 -0.128645 0
M  V30 17 N -4.591678 2.153531 -0.006743 0
M  V30 18 N -5.811879 1.652747 -0.001023 0
M  V30 19 C -5.764741 0.316965 -0.119500 0
M  V30 20 N -6.725193 -0.638709 -0.164458 0
M  V30 21 C -6.351064 -1.944244 -0.294129 0
M  V30 22 C -5.023561 -2.310624 -0.380010 0
M  V30 23 C -4.079860 -1.305256 -0.329941 0
M  V30 24 C -4.401554 0.017033 -0.200899 0
M  V30 25 N -1.403079 0.283640 -0.296885 0
M  V30 26 C 0.012355 -2.102898 -0.536250 0
M  V30 27 C 0.925589 -3.272088 -0.390554 0
M  V30 28 N 2.004478 -3.062706 0.538657 0
M  V30 29 H 1.210540 -1.510258 4.040604 0
M  V30 30 H 2.041750 -2.941483 3.468414 0
M  V30 31 H 0.772227 -2.066769 2.427301 0
M  V30 32 H 3.371776 -0.936902 3.530253 0
M  V30 33 H 2.351150 1.028730 1.814956 0
M  V30 34 H 0.913492 0.185077 2.371154 0
M  V30 35 H 2.004828 0.856671 3.576524 0
M  V30 36 H 5.158597 -0.742357 0.289495 0
M  V30 37 H 5.220204 -0.244118 1.977560 0
M  V30 38 H 4.092711 0.605296 0.902733 0
M  V30 39 H 3.977503 -2.860378 2.831211 0
M  V30 40 H 3.673401 -2.292178 -0.379507 0
M  V30 41 H 2.358625 -1.024963 -1.672826 0
M  V30 42 H 2.613051 0.142823 -0.396744 0
M  V30 43 H 1.483880 1.790427 -0.291611 0
M  V30 44 H 0.102421 3.737628 -0.070941 0
M  V30 45 H -6.714915 2.201505 0.083514 0
M  V30 46 H -7.139438 -2.704936 -0.328972 0
M  V30 47 H -4.746495 -3.353696 -0.482735 0
M  V30 48 H -3.051161 -1.579304 -0.396063 0
M  V30 49 H -0.798662 -2.086115 0.227221 0
M  V30 50 H -0.484765 -2.162042 -1.525432 0
M  V30 51 H 0.314711 -4.108337 0.058863 0
M  V30 52 H 1.321675 -3.675559 -1.341794 0
M  V30 53 H 2.592999 -3.924061 0.512659 0
M  V30 END ATOM
M  V30 BEGIN BOND
M  V30 1 1 1 2
M  V30 2 1 2 3
M  V30 3 1 2 4
M  V30 4 1 4 5
M  V30 5 1 4 6 CFG=1
M  V30 6 1 4 7
M  V30 7 1 7 8
M  V30 8 1 8 9
M  V30 9 1 9 10
M  V30 10 2 10 11
M  V30 11 1 11 12
M  V30 12 2 12 13
M  V30 13 1 13 14
M  V30 14 1 13 15
M  V30 15 1 15 16
M  V30 16 2 16 17
M  V30 17 1 17 18
M  V30 18 1 18 19
M  V30 19 2 19 20
M  V30 20 1 20 21
M  V30 21 2 21 22
M  V30 22 1 22 23
M  V30 23 2 23 24
M  V30 24 2 15 25
M  V30 25 1 9 26
M  V30 26 1 26 27
M  V30 27 1 27 28
M  V30 28 1 28 7
M  V30 29 1 25 10
M  V30 30 1 24 16
M  V30 31 1 24 19
M  V30 32 1 1 29
M  V30 33 1 1 30
M  V30 34 1 1 31
M  V30 35 1 2 32
M  V30 36 1 3 33
M  V30 37 1 3 34
M  V30 38 1 3 35
M  V30 39 1 5 36
M  V30 40 1 5 37
M  V30 41 1 5 38
M  V30 42 1 6 39
M  V30 43 1 7 40 CFG=3
M  V30 44 1 8 41
M  V30 45 1 8 42
M  V30 46 1 11 43
M  V30 47 1 12 44
M  V30 48 1 18 45
M  V30 49 1 21 46
M  V30 50 1 22 47
M  V30 51 1 23 48
M  V30 52 1 26 49
M  V30 53 1 26 50
M  V30 54 1 27 51
M  V30 55 1 27 52
M  V30 56 1 28 53
M  V30 END BOND
M  V30 END CTAB
M  END
>  <Dataset>  (114) 
ChEMBL_Kinases

>  <Ligand_Instance>  (114) 
nan

>  <PDB_ID>  (114) 
nan

>  <Standardized_SMILES>  (114) 
CC(C)[C@@](C)(O)[C@@H]1CN(c2ccc(F)c(-c3n[nH]c4ncccc34)n2)CCN1

>  <Name>  (114) 
nan

>  <Pocket>  (114) 
nan

>  <ATP_Site>  (114) 
nan

>  <Peripheral>  (114) 
nan

>  <Num_H_Atoms_ProtBoundConf>  (114) 
nan

>  <Num_Resolved_Atoms>  (114) 
nan

>  <Num_Not_Resolved_Atoms>  (114) 
nan

$$$$
CHEMBL2062585
     RDKit          3D

  0  0  0  0  0  0  0  0  0  0999 V3000
M  V30 BEGIN CTAB
M  V30 COUNTS 54 58 0 0 0
M  V30 BEGIN ATOM
M  V30 1 C 4.277330 -4.935784 3.562045 0
M  V30 2 C 3.084595 -4.879477 2.678760 0
M  V30 3 O 2.057635 -5.602772 2.757694 0
M  V30 4 N 3.226971 -3.875915 1.685342 0
M  V30 5 C 2.402473 -3.417845 0.618901 0
M  V30 6 C 2.525757 -4.006878 -0.617624 0
M  V30 7 C 1.733467 -3.573169 -1.659871 0
M  V30 8 C 0.793893 -2.545564 -1.519353 0
M  V30 9 C 0.698002 -1.978273 -0.264905 0
M  V30 10 C 1.484633 -2.403745 0.783667 0
M  V30 11 C -0.276138 -1.015150 -0.393245 0
M  V30 12 C -0.688657 -0.171703 0.720550 0
M  V30 13 C -1.660464 0.771342 0.544464 0
M  V30 14 C -2.085107 1.602120 1.591040 0
M  V30 15 N -3.072535 2.570853 1.379759 0
M  V30 16 C -4.019286 3.610904 1.532247 0
M  V30 17 C -5.365268 3.484788 2.109564 0
M  V30 18 C -4.278371 3.951731 3.018009 0
M  V30 19 N -1.495562 1.446784 2.814929 0
M  V30 20 N -1.617871 2.020591 3.991514 0
M  V30 21 C -0.780349 1.490971 4.890378 0
M  V30 22 C -0.044930 0.495869 4.282806 0
M  V30 23 C 0.969853 -0.351478 4.830453 0
M  V30 24 N 1.784724 -1.044744 5.264905 0
M  V30 25 C -0.540640 0.523625 2.997248 0
M  V30 26 N -0.185433 -0.233940 1.954670 0
M  V30 27 C -0.732361 -1.026415 -1.693049 0
M  V30 28 N -0.078489 -1.967158 -2.396499 0
M  V30 29 C -0.150901 -2.413099 -3.772122 0
M  V30 30 C 0.781750 -1.703317 -4.689446 0
M  V30 31 C 0.575430 -0.246649 -4.778336 0
M  V30 32 O -0.202376 0.635937 -4.284834 0
M  V30 33 O 1.514022 0.310091 -5.665421 0
M  V30 34 H 4.396159 -3.912141 3.980373 0
M  V30 35 H 4.011284 -5.637397 4.380672 0
M  V30 36 H 5.122597 -5.259568 2.955705 0
M  V30 37 H 4.029582 -3.233857 1.540172 0
M  V30 38 H 3.242236 -4.804851 -0.763356 0
M  V30 39 H 1.870036 -4.075413 -2.626650 0
M  V30 40 H 1.420983 -1.971407 1.765942 0
M  V30 41 H -2.087246 0.837149 -0.467672 0
M  V30 42 H -3.427194 2.528123 0.366118 0
M  V30 43 H -3.788115 4.575525 0.975483 0
M  V30 44 H -5.858182 2.501842 2.252383 0
M  V30 45 H -6.098651 4.260805 1.812109 0
M  V30 46 H -4.238353 5.033690 3.313877 0
M  V30 47 H -4.002378 3.226794 3.801753 0
M  V30 48 H -0.686060 1.793577 5.946099 0
M  V30 49 H -1.487136 -0.403793 -2.113335 0
M  V30 50 H 0.048592 -3.498804 -3.831213 0
M  V30 51 H -1.200008 -2.284754 -4.153353 0
M  V30 52 H 1.838134 -1.907848 -4.420389 0
M  V30 53 H 0.603812 -2.113304 -5.712236 0
M  V30 54 H 1.545071 1.299652 -5.868022 0
M  V30 END ATOM
M  V30 BEGIN BOND
M  V30 1 1 1 2
M  V30 2 2 2 3
M  V30 3 1 2 4
M  V30 4 1 4 5
M  V30 5 2 5 6
M  V30 6 1 6 7
M  V30 7 2 7 8
M  V30 8 1 8 9
M  V30 9 2 9 10
M  V30 10 1 9 11
M  V30 11 1 11 12
M  V30 12 1 12 13
M  V30 13 2 13 14
M  V30 14 1 14 15
M  V30 15 1 15 16
M  V30 16 1 16 17
M  V30 17 1 17 18
M  V30 18 1 14 19
M  V30 19 1 19 20
M  V30 20 2 20 21
M  V30 21 1 21 22
M  V30 22 1 22 23
M  V30 23 3 23 24
M  V30 24 2 22 25
M  V30 25 1 25 26
M  V30 26 2 11 27
M  V30 27 1 27 28
M  V30 28 1 28 29
M  V30 29 1 29 30
M  V30 30 1 30 31
M  V30 31 2 31 32
M  V30 32 1 31 33
M  V30 33 1 10 5
M  V30 34 2 26 12
M  V30 35 1 28 8
M  V30 36 1 18 16
M  V30 37 1 25 19
M  V30 38 1 1 34
M  V30 39 1 1 35
M  V30 40 1 1 36
M  V30 41 1 4 37
M  V30 42 1 6 38
M  V30 43 1 7 39
M  V30 44 1 10 40
M  V30 45 1 13 41
M  V30 46 1 15 42
M  V30 47 1 16 43
M  V30 48 1 17 44
M  V30 49 1 17 45
M  V30 50 1 18 46
M  V30 51 1 18 47
M  V30 52 1 21 48
M  V30 53 1 27 49
M  V30 54 1 29 50
M  V30 55 1 29 51
M  V30 56 1 30 52
M  V30 57 1 30 53
M  V30 58 1 33 54
M  V30 END BOND
M  V30 END CTAB
M  END
>  <Dataset>  (115) 
ChEMBL_Kinases

>  <Ligand_Instance>  (115) 
nan

>  <PDB_ID>  (115) 
nan

>  <Standardized_SMILES>  (115) 
CC(=O)Nc1ccc2c(c1)c(-c1cc(NC3CC3)n3ncc(C#N)c3n1)cn2CCC(=O)O

>  <Name>  (115) 
nan

>  <Pocket>  (115) 
nan

>  <ATP_Site>  (115) 
nan

>  <Peripheral>  (115) 
nan

>  <Num_H_Atoms_ProtBoundConf>  (115) 
nan

>  <Num_Resolved_Atoms>  (115) 
nan

>  <Num_Not_Resolved_Atoms>  (115) 
nan

$$$$
CHEMBL2326001
     RDKit          3D

  0  0  0  0  0  0  0  0  0  0999 V3000
M  V30 BEGIN CTAB
M  V30 COUNTS 53 56 0 0 0
M  V30 BEGIN ATOM
M  V30 1 C -0.136490 -3.766245 4.219657 0
M  V30 2 C -0.038630 -3.354874 2.744818 0
M  V30 3 C -1.354209 -2.777265 2.378311 0
M  V30 4 C 1.152425 -2.455200 2.595586 0 CFG=1
M  V30 5 C 1.092554 -1.199178 3.415357 0
M  V30 6 O 2.212935 -3.212745 3.175091 0
M  V30 7 C 1.590155 -2.222906 1.179824 0 CFG=2
M  V30 8 C 0.794243 -1.241354 0.399891 0
M  V30 9 N 1.064834 -1.476812 -1.032655 0
M  V30 10 C 0.391183 -0.493765 -1.820731 0
M  V30 11 N -0.361823 0.516301 -1.355165 0
M  V30 12 C -0.989929 1.435273 -2.095647 0
M  V30 13 C -1.767430 2.464127 -1.414396 0
M  V30 14 N -2.456538 3.458028 -1.996563 0
M  V30 15 N -3.050329 4.216254 -1.098869 0
M  V30 16 C -2.783276 3.759756 0.144869 0
M  V30 17 N -3.124733 4.144370 1.396692 0
M  V30 18 C -2.700420 3.481454 2.486413 0
M  V30 19 C -1.880392 2.358544 2.332379 0
M  V30 20 C -1.517221 1.946258 1.045909 0
M  V30 21 C -1.966997 2.645484 -0.061860 0
M  V30 22 C -0.919417 1.430046 -3.459583 0
M  V30 23 F -1.578021 2.387518 -4.135431 0
M  V30 24 C -0.161447 0.419965 -4.029579 0
M  V30 25 C 0.451079 -0.484159 -3.191245 0
M  V30 26 F 1.147873 -1.402232 -3.894178 0
M  V30 27 C 1.840544 -2.464273 -1.707285 0
M  V30 28 C 2.601562 -3.280662 -0.681164 0
M  V30 29 N 1.760011 -3.505745 0.494727 0
M  V30 30 H 0.650653 -4.454719 4.525720 0
M  V30 31 H -1.168474 -4.170079 4.353924 0
M  V30 32 H -0.116334 -2.804720 4.804314 0
M  V30 33 H 0.155282 -4.247263 2.132421 0
M  V30 34 H -1.440498 -1.713407 2.611197 0
M  V30 35 H -1.673165 -2.985896 1.338902 0
M  V30 36 H -2.144099 -3.301138 2.999477 0
M  V30 37 H 1.647501 -1.262699 4.374098 0
M  V30 38 H 0.067486 -0.883045 3.698686 0
M  V30 39 H 1.622210 -0.374700 2.857022 0
M  V30 40 H 3.062882 -3.052599 2.717220 0
M  V30 41 H 2.647972 -1.803082 1.185250 0
M  V30 42 H -0.280339 -1.207933 0.586926 0
M  V30 43 H 1.149528 -0.178088 0.568902 0
M  V30 44 H -3.654365 5.061896 -1.241432 0
M  V30 45 H -2.957527 3.765942 3.504408 0
M  V30 46 H -1.487554 1.758230 3.154966 0
M  V30 47 H -0.889424 1.089022 0.903052 0
M  V30 48 H -0.113907 0.426658 -5.104927 0
M  V30 49 H 1.296158 -3.103506 -2.424218 0
M  V30 50 H 2.635460 -1.938895 -2.290303 0
M  V30 51 H 3.508561 -2.752773 -0.317747 0
M  V30 52 H 2.870769 -4.287195 -1.069058 0
M  V30 53 H 0.885193 -3.919956 0.163630 0
M  V30 END ATOM
M  V30 BEGIN BOND
M  V30 1 1 1 2
M  V30 2 1 2 3
M  V30 3 1 2 4
M  V30 4 1 4 5
M  V30 5 1 4 6 CFG=1
M  V30 6 1 4 7
M  V30 7 1 7 8
M  V30 8 1 8 9
M  V30 9 1 9 10
M  V30 10 2 10 11
M  V30 11 1 11 12
M  V30 12 1 12 13
M  V30 13 2 13 14
M  V30 14 1 14 15
M  V30 15 1 15 16
M  V30 16 2 16 17
M  V30 17 1 17 18
M  V30 18 2 18 19
M  V30 19 1 19 20
M  V30 20 2 20 21
M  V30 21 2 12 22
M  V30 22 1 22 23
M  V30 23 1 22 24
M  V30 24 2 24 25
M  V30 25 1 25 26
M  V30 26 1 9 27
M  V30 27 1 27 28
M  V30 28 1 28 29
M  V30 29 1 29 7
M  V30 30 1 25 10
M  V30 31 1 21 13
M  V30 32 1 21 16
M  V30 33 1 1 30
M  V30 34 1 1 31
M  V30 35 1 1 32
M  V30 36 1 2 33
M  V30 37 1 3 34
M  V30 38 1 3 35
M  V30 39 1 3 36
M  V30 40 1 5 37
M  V30 41 1 5 38
M  V30 42 1 5 39
M  V30 43 1 6 40
M  V30 44 1 7 41 CFG=1
M  V30 45 1 8 42
M  V30 46 1 8 43
M  V30 47 1 15 44
M  V30 48 1 18 45
M  V30 49 1 19 46
M  V30 50 1 20 47
M  V30 51 1 24 48
M  V30 52 1 27 49
M  V30 53 1 27 50
M  V30 54 1 28 51
M  V30 55 1 28 52
M  V30 56 1 29 53
M  V30 END BOND
M  V30 END CTAB
M  END
>  <Dataset>  (116) 
ChEMBL_Kinases

>  <Ligand_Instance>  (116) 
nan

>  <PDB_ID>  (116) 
nan

>  <Standardized_SMILES>  (116) 
CC(C)[C@@](C)(O)[C@@H]1CN(c2nc(-c3n[nH]c4ncccc34)c(F)cc2F)CCN1

>  <Name>  (116) 
nan

>  <Pocket>  (116) 
nan

>  <ATP_Site>  (116) 
nan

>  <Peripheral>  (116) 
nan

>  <Num_H_Atoms_ProtBoundConf>  (116) 
nan

>  <Num_Resolved_Atoms>  (116) 
nan

>  <Num_Not_Resolved_Atoms>  (116) 
nan

$$$$
CHEMBL2325989
     RDKit          3D

  0  0  0  0  0  0  0  0  0  0999 V3000
M  V30 BEGIN CTAB
M  V30 COUNTS 50 53 0 0 0
M  V30 BEGIN ATOM
M  V30 1 C -1.657061 -3.584931 4.008038 0
M  V30 2 C -0.885412 -3.552035 2.703849 0
M  V30 3 N -0.845132 -2.248712 2.118107 0
M  V30 4 C 0.330338 -1.508297 1.848333 0
M  V30 5 O 1.447282 -2.025899 2.142890 0
M  V30 6 C 0.357985 -0.170911 1.246510 0
M  V30 7 N 1.766526 0.220972 1.147403 0
M  V30 8 C -0.314936 0.832008 2.150162 0
M  V30 9 C 0.136101 2.221088 1.689445 0
M  V30 10 N 0.367279 2.153972 0.228096 0
M  V30 11 C 1.491476 2.876333 -0.247310 0
M  V30 12 N 2.058888 3.801126 0.548703 0
M  V30 13 C 3.103508 4.551481 0.167391 0
M  V30 14 N 3.656435 4.423706 -1.051773 0
M  V30 15 C 3.150833 3.521109 -1.911173 0
M  V30 16 N 3.478308 3.158153 -3.164379 0
M  V30 17 C 2.651600 2.182910 -3.581731 0
M  V30 18 C 1.789392 1.950112 -2.532643 0
M  V30 19 C 2.078712 2.767238 -1.488224 0
M  V30 20 C -0.659061 1.354491 -0.362882 0
M  V30 21 C -0.270844 -0.109747 -0.119431 0
M  V30 22 C -1.521085 -4.474865 1.726933 0
M  V30 23 C -2.488301 -5.425541 1.965079 0
M  V30 24 C -2.962006 -6.198014 0.914416 0
M  V30 25 C -2.470654 -6.019467 -0.364471 0
M  V30 26 C -1.498131 -5.051814 -0.559177 0
M  V30 27 N -1.059339 -4.321025 0.472053 0
M  V30 28 H -1.196535 -2.924684 4.770677 0
M  V30 29 H -1.648722 -4.611892 4.426515 0
M  V30 30 H -2.689327 -3.212116 3.864738 0
M  V30 31 H 0.111888 -3.965805 2.944544 0
M  V30 32 H -1.769557 -1.827829 1.877738 0
M  V30 33 H 2.286886 -0.592971 0.769668 0
M  V30 34 H 2.146572 0.485964 2.078554 0
M  V30 35 H 0.113313 0.711324 3.181461 0
M  V30 36 H -1.415022 0.735609 2.150781 0
M  V30 37 H -0.732066 2.892470 1.866971 0
M  V30 38 H 0.996766 2.602269 2.234704 0
M  V30 39 H 3.455825 5.254940 0.911633 0
M  V30 40 H 4.260804 3.578998 -3.720201 0
M  V30 41 H 2.666874 1.689477 -4.541979 0
M  V30 42 H 1.022172 1.206704 -2.591413 0
M  V30 43 H -1.635562 1.527426 0.190999 0
M  V30 44 H -0.909387 1.568498 -1.408040 0
M  V30 45 H 0.371015 -0.410314 -0.945414 0
M  V30 46 H -1.231935 -0.685994 -0.075323 0
M  V30 47 H -2.808398 -5.489955 2.995662 0
M  V30 48 H -3.727203 -6.926755 1.191689 0
M  V30 49 H -2.883396 -6.655604 -1.139469 0
M  V30 50 H -1.116184 -4.914637 -1.559444 0
M  V30 END ATOM
M  V30 BEGIN BOND
M  V30 1 1 1 2
M  V30 2 1 2 3
M  V30 3 1 3 4
M  V30 4 2 4 5
M  V30 5 1 4 6
M  V30 6 1 6 7
M  V30 7 1 6 8
M  V30 8 1 8 9
M  V30 9 1 9 10
M  V30 10 1 10 11
M  V30 11 2 11 12
M  V30 12 1 12 13
M  V30 13 2 13 14
M  V30 14 1 14 15
M  V30 15 1 15 16
M  V30 16 1 16 17
M  V30 17 2 17 18
M  V30 18 1 18 19
M  V30 19 1 10 20
M  V30 20 1 20 21
M  V30 21 1 2 22
M  V30 22 2 22 23
M  V30 23 1 23 24
M  V30 24 2 24 25
M  V30 25 1 25 26
M  V30 26 2 26 27
M  V30 27 1 21 6
M  V30 28 1 27 22
M  V30 29 1 19 11
M  V30 30 2 19 15
M  V30 31 1 1 28
M  V30 32 1 1 29
M  V30 33 1 1 30
M  V30 34 1 2 31
M  V30 35 1 3 32
M  V30 36 1 7 33
M  V30 37 1 7 34
M  V30 38 1 8 35
M  V30 39 1 8 36
M  V30 40 1 9 37
M  V30 41 1 9 38
M  V30 42 1 13 39
M  V30 43 1 16 40
M  V30 44 1 17 41
M  V30 45 1 18 42
M  V30 46 1 20 43
M  V30 47 1 20 44
M  V30 48 1 21 45
M  V30 49 1 21 46
M  V30 50 1 23 47
M  V30 51 1 24 48
M  V30 52 1 25 49
M  V30 53 1 26 50
M  V30 END BOND
M  V30 END CTAB
M  END
>  <Dataset>  (117) 
ChEMBL_Kinases

>  <Ligand_Instance>  (117) 
nan

>  <PDB_ID>  (117) 
nan

>  <Standardized_SMILES>  (117) 
CC(NC(=O)C1(N)CCN(c2ncnc3[nH]ccc23)CC1)c1ccccn1

>  <Name>  (117) 
nan

>  <Pocket>  (117) 
nan

>  <ATP_Site>  (117) 
nan

>  <Peripheral>  (117) 
nan

>  <Num_H_Atoms_ProtBoundConf>  (117) 
nan

>  <Num_Resolved_Atoms>  (117) 
nan

>  <Num_Not_Resolved_Atoms>  (117) 
nan

$$$$
CHEMBL4644893
     RDKit          3D

  0  0  0  0  0  0  0  0  0  0999 V3000
M  V30 BEGIN CTAB
M  V30 COUNTS 69 72 0 0 0
M  V30 BEGIN ATOM
M  V30 1 C 6.361188 -0.508384 6.922244 0
M  V30 2 C 5.352157 -0.699356 6.096928 0
M  V30 3 C 4.919035 -0.045357 4.870713 0
M  V30 4 O 3.880382 -0.560614 4.385390 0
M  V30 5 N 5.583793 1.055475 4.274641 0
M  V30 6 C 4.823983 1.372386 3.097260 0
M  V30 7 C 5.211909 0.842741 1.885753 0
M  V30 8 C 4.450121 1.122498 0.775578 0
M  V30 9 C 3.335079 1.914862 0.908863 0
M  V30 10 C 2.327445 2.368446 -0.065032 0
M  V30 11 O 2.131354 3.245034 -0.948923 0
M  V30 12 N 1.210036 1.491269 0.073049 0
M  V30 13 C -0.004715 1.636497 -0.715549 0
M  V30 14 C -1.152858 2.017720 0.178749 0
M  V30 15 C -1.006296 1.669896 1.620612 0
M  V30 16 C -0.051284 0.577086 1.941502 0
M  V30 17 C -0.699169 -0.694822 2.389281 0
M  V30 18 O -0.423020 -1.456299 3.381815 0
M  V30 19 N -1.772525 -1.072633 1.568968 0
M  V30 20 C -2.763925 -2.118797 1.430979 0
M  V30 21 N -3.785702 -2.239967 1.954905 0
M  V30 22 C -4.703171 -3.165335 1.809904 0
M  V30 23 C -4.391229 -4.195320 0.844655 0
M  V30 24 S -4.824139 -5.657519 -0.068156 0
M  V30 25 C -5.573454 -5.191654 -1.673481 0
M  V30 26 C -4.541846 -4.513849 -2.521532 0
M  V30 27 N -3.724938 -5.128130 -3.414621 0
M  V30 28 C -2.946886 -4.165056 -3.961424 0
M  V30 29 C -3.300529 -2.959053 -3.390155 0
M  V30 30 C -2.719893 -1.624954 -3.669748 0
M  V30 31 C -1.204888 -1.737104 -3.887220 0
M  V30 32 C -2.906810 -0.672956 -2.508896 0
M  V30 33 C -3.245261 -0.992463 -4.940708 0
M  V30 34 O -4.277877 -3.210214 -2.515898 0
M  V30 35 S -2.692271 -3.613847 0.263451 0
M  V30 36 C 1.026731 0.340581 0.951084 0
M  V30 37 C 2.956385 2.445890 2.151178 0
M  V30 38 C 3.714749 2.177166 3.299362 0
M  V30 39 H 6.867352 -0.822157 7.821764 0
M  V30 40 H 7.101273 0.273109 6.760955 0
M  V30 41 H 4.865929 -1.522515 6.576966 0
M  V30 42 H 6.449766 1.411913 4.758295 0
M  V30 43 H 6.063747 0.227706 1.725559 0
M  V30 44 H 4.575993 0.815094 -0.251192 0
M  V30 45 H 0.157909 2.375834 -1.539746 0
M  V30 46 H -0.188449 0.668358 -1.220389 0
M  V30 47 H -2.084614 1.668603 -0.307683 0
M  V30 48 H -1.223750 3.136967 0.097579 0
M  V30 49 H -2.024596 1.291481 1.939512 0
M  V30 50 H -0.829850 2.575444 2.230228 0
M  V30 51 H 0.491033 0.916038 2.884455 0
M  V30 52 H -2.055860 -0.475153 0.729751 0
M  V30 53 H -5.671268 -3.529583 2.121216 0
M  V30 54 H -6.418744 -4.523376 -1.451885 0
M  V30 55 H -5.969293 -6.116064 -2.120150 0
M  V30 56 H -2.178965 -4.301781 -4.714848 0
M  V30 57 H -0.987404 -2.198335 -4.868784 0
M  V30 58 H -0.768308 -2.395054 -3.088136 0
M  V30 59 H -0.758624 -0.747262 -3.746504 0
M  V30 60 H -3.971561 -0.545711 -2.215201 0
M  V30 61 H -2.399502 -1.046399 -1.596187 0
M  V30 62 H -2.438515 0.307981 -2.743998 0
M  V30 63 H -2.777260 -1.526466 -5.804024 0
M  V30 64 H -2.800425 0.044191 -4.946969 0
M  V30 65 H -4.331139 -1.013175 -4.957667 0
M  V30 66 H 0.762107 -0.522089 0.312162 0
M  V30 67 H 2.005665 0.074674 1.443340 0
M  V30 68 H 2.095820 3.084714 2.395322 0
M  V30 69 H 3.478709 2.553370 4.285062 0
M  V30 END ATOM
M  V30 BEGIN BOND
M  V30 1 2 1 2
M  V30 2 1 2 3
M  V30 3 2 3 4
M  V30 4 1 3 5
M  V30 5 1 5 6
M  V30 6 2 6 7
M  V30 7 1 7 8
M  V30 8 2 8 9
M  V30 9 1 9 10
M  V30 10 2 10 11
M  V30 11 1 10 12
M  V30 12 1 12 13
M  V30 13 1 13 14
M  V30 14 1 14 15
M  V30 15 1 15 16
M  V30 16 1 16 17
M  V30 17 2 17 18
M  V30 18 1 17 19
M  V30 19 1 19 20
M  V30 20 2 20 21
M  V30 21 1 21 22
M  V30 22 2 22 23
M  V30 23 1 23 24
M  V30 24 1 24 25
M  V30 25 1 25 26
M  V30 26 2 26 27
M  V30 27 1 27 28
M  V30 28 2 28 29
M  V30 29 1 29 30
M  V30 30 1 30 31
M  V30 31 1 30 32
M  V30 32 1 30 33
M  V30 33 1 29 34
M  V30 34 1 23 35
M  V30 35 1 16 36
M  V30 36 1 9 37
M  V30 37 2 37 38
M  V30 38 1 38 6
M  V30 39 1 36 12
M  V30 40 1 35 20
M  V30 41 1 34 26
M  V30 42 1 1 39
M  V30 43 1 1 40
M  V30 44 1 2 41
M  V30 45 1 5 42
M  V30 46 1 7 43
M  V30 47 1 8 44
M  V30 48 1 13 45
M  V30 49 1 13 46
M  V30 50 1 14 47
M  V30 51 1 14 48
M  V30 52 1 15 49
M  V30 53 1 15 50
M  V30 54 1 16 51
M  V30 55 1 19 52
M  V30 56 1 22 53
M  V30 57 1 25 54
M  V30 58 1 25 55
M  V30 59 1 28 56
M  V30 60 1 31 57
M  V30 61 1 31 58
M  V30 62 1 31 59
M  V30 63 1 32 60
M  V30 64 1 32 61
M  V30 65 1 32 62
M  V30 66 1 33 63
M  V30 67 1 33 64
M  V30 68 1 33 65
M  V30 69 1 36 66
M  V30 70 1 36 67
M  V30 71 1 37 68
M  V30 72 1 38 69
M  V30 END BOND
M  V30 END CTAB
M  END
>  <Dataset>  (118) 
ChEMBL_Kinases

>  <Ligand_Instance>  (118) 
nan

>  <PDB_ID>  (118) 
nan

>  <Standardized_SMILES>  (118) 
C=CC(=O)Nc1ccc(C(=O)N2CCCC(C(=O)Nc3ncc(SCc4ncc(C(C)(C)C)o4)s3)C2)cc1

>  <Name>  (118) 
nan

>  <Pocket>  (118) 
nan

>  <ATP_Site>  (118) 
nan

>  <Peripheral>  (118) 
nan

>  <Num_H_Atoms_ProtBoundConf>  (118) 
nan

>  <Num_Resolved_Atoms>  (118) 
nan

>  <Num_Not_Resolved_Atoms>  (118) 
nan

$$$$
CHEMBL23254
     RDKit          3D

  0  0  0  0  0  0  0  0  0  0999 V3000
M  V30 BEGIN CTAB
M  V30 COUNTS 55 57 0 0 0
M  V30 BEGIN ATOM
M  V30 1 C 3.423242 0.770684 0.076609 0
M  V30 2 C 4.020530 0.088048 1.272533 0
M  V30 3 C 5.106949 -0.849793 0.774262 0
M  V30 4 C 3.007081 -0.609777 2.113199 0 CFG=2
M  V30 5 C 3.687628 -1.283048 3.309458 0
M  V30 6 O 2.686169 -1.687432 4.218864 0
M  V30 7 N 2.108836 -1.488480 1.443170 0
M  V30 8 C 0.988945 -1.265457 0.607811 0
M  V30 9 N 0.466120 -0.063157 0.337861 0
M  V30 10 C -0.576545 0.175504 -0.438948 0
M  V30 11 N -1.007665 1.498866 -0.613774 0
M  V30 12 C -2.033765 1.979996 0.263144 0
M  V30 13 C -2.520472 3.272423 0.217882 0
M  V30 14 C -3.511556 3.750326 1.052330 0
M  V30 15 C -4.042938 2.873595 1.987328 0
M  V30 16 C -5.093505 3.345723 2.881560 0
M  V30 17 O -5.638855 4.492769 2.971790 0
M  V30 18 O -5.658218 2.494162 3.820779 0
M  V30 19 C -3.606768 1.570969 2.090160 0
M  V30 20 Cl -4.253522 0.429296 3.263255 0
M  V30 21 C -2.613589 1.158616 1.225585 0
M  V30 22 C -1.191213 -0.902451 -1.031642 0
M  V30 23 N -2.238748 -1.019027 -1.850032 0
M  V30 24 C -2.389487 -2.350114 -2.112056 0
M  V30 25 N -1.445738 -3.037941 -1.461891 0
M  V30 26 C -1.309557 -4.478194 -1.513860 0
M  V30 27 C 0.145834 -4.891262 -1.466164 0
M  V30 28 C -1.874048 -4.973377 -2.829510 0
M  V30 29 C -0.679281 -2.154598 -0.775551 0
M  V30 30 N 0.382962 -2.313020 0.025461 0
M  V30 31 H 2.696219 1.554134 0.339771 0
M  V30 32 H 3.046883 0.013685 -0.621560 0
M  V30 33 H 4.289639 1.327526 -0.409606 0
M  V30 34 H 4.465874 0.889100 1.922272 0
M  V30 35 H 6.062854 -0.665385 1.352724 0
M  V30 36 H 5.382444 -0.647202 -0.288163 0
M  V30 37 H 4.751983 -1.879989 0.857383 0
M  V30 38 H 2.393855 0.232827 2.594160 0
M  V30 39 H 4.309210 -2.135278 3.012871 0
M  V30 40 H 4.321254 -0.551073 3.845636 0
M  V30 41 H 2.084500 -0.902236 4.379506 0
M  V30 42 H 2.362022 -2.508706 1.627549 0
M  V30 43 H -0.660121 2.192877 -1.322893 0
M  V30 44 H -2.082112 3.945139 -0.530300 0
M  V30 45 H -3.872653 4.785370 0.983773 0
M  V30 46 H -6.147253 2.753161 4.649203 0
M  V30 47 H -2.264274 0.124342 1.303976 0
M  V30 48 H -3.168688 -2.755661 -2.754810 0
M  V30 49 H -1.872981 -4.961088 -0.670890 0
M  V30 50 H 0.706721 -4.233201 -2.150283 0
M  V30 51 H 0.542042 -4.953289 -0.444731 0
M  V30 52 H 0.242522 -5.930260 -1.891038 0
M  V30 53 H -2.953646 -5.223154 -2.742152 0
M  V30 54 H -1.264076 -5.812900 -3.237990 0
M  V30 55 H -1.765961 -4.133524 -3.556778 0
M  V30 END ATOM
M  V30 BEGIN BOND
M  V30 1 1 1 2
M  V30 2 1 2 3
M  V30 3 1 2 4
M  V30 4 1 4 5
M  V30 5 1 5 6
M  V30 6 1 4 7
M  V30 7 1 7 8
M  V30 8 2 8 9
M  V30 9 1 9 10
M  V30 10 1 10 11
M  V30 11 1 11 12
M  V30 12 2 12 13
M  V30 13 1 13 14
M  V30 14 2 14 15
M  V30 15 1 15 16
M  V30 16 2 16 17
M  V30 17 1 16 18
M  V30 18 1 15 19
M  V30 19 1 19 20
M  V30 20 2 19 21
M  V30 21 2 10 22
M  V30 22 1 22 23
M  V30 23 2 23 24
M  V30 24 1 24 25
M  V30 25 1 25 26
M  V30 26 1 26 27
M  V30 27 1 26 28
M  V30 28 1 25 29
M  V30 29 2 29 30
M  V30 30 1 30 8
M  V30 31 1 21 12
M  V30 32 1 29 22
M  V30 33 1 1 31
M  V30 34 1 1 32
M  V30 35 1 1 33
M  V30 36 1 2 34
M  V30 37 1 3 35
M  V30 38 1 3 36
M  V30 39 1 3 37
M  V30 40 1 4 38 CFG=1
M  V30 41 1 5 39
M  V30 42 1 5 40
M  V30 43 1 6 41
M  V30 44 1 7 42
M  V30 45 1 11 43
M  V30 46 1 13 44
M  V30 47 1 14 45
M  V30 48 1 18 46
M  V30 49 1 21 47
M  V30 50 1 24 48
M  V30 51 1 26 49
M  V30 52 1 27 50
M  V30 53 1 27 51
M  V30 54 1 27 52
M  V30 55 1 28 53
M  V30 56 1 28 54
M  V30 57 1 28 55
M  V30 END BOND
M  V30 END CTAB
M  END
>  <Dataset>  (119) 
ChEMBL_Kinases

>  <Ligand_Instance>  (119) 
nan

>  <PDB_ID>  (119) 
nan

>  <Standardized_SMILES>  (119) 
CC(C)[C@H](CO)Nc1nc(Nc2ccc(C(=O)O)c(Cl)c2)c2ncn(C(C)C)c2n1

>  <Name>  (119) 
PURVALANOL B

>  <Pocket>  (119) 
nan

>  <ATP_Site>  (119) 
nan

>  <Peripheral>  (119) 
nan

>  <Num_H_Atoms_ProtBoundConf>  (119) 
nan

>  <Num_Resolved_Atoms>  (119) 
nan

>  <Num_Not_Resolved_Atoms>  (119) 
nan

$$$$
CHEMBL4524938
     RDKit          3D

  0  0  0  0  0  0  0  0  0  0999 V3000
M  V30 BEGIN CTAB
M  V30 COUNTS 35 38 0 0 0
M  V30 BEGIN ATOM
M  V30 1 C 0.508071 -5.485359 -0.092144 0
M  V30 2 C 1.920787 -5.167821 -0.455324 0
M  V30 3 O 2.588037 -4.306835 0.419550 0
M  V30 4 C 2.211445 -3.007862 0.730204 0
M  V30 5 C 3.048018 -2.352460 1.635943 0
M  V30 6 C 2.755063 -1.037851 2.014667 0
M  V30 7 C 1.636293 -0.446591 1.464881 0
M  V30 8 N 1.350385 0.822422 1.828210 0
M  V30 9 C 0.272427 1.478770 1.337549 0
M  V30 10 C -0.563602 0.816347 0.429047 0
M  V30 11 N -0.255884 -0.467375 0.074998 0
M  V30 12 C 0.808889 -1.103419 0.565189 0
M  V30 13 C 1.090471 -2.400776 0.185940 0
M  V30 14 C -1.642482 1.753131 0.064116 0
M  V30 15 C -2.680265 1.497262 -0.808340 0
M  V30 16 C -3.607217 2.519427 -1.023936 0
M  V30 17 C -3.406347 3.701714 -0.344536 0
M  V30 18 C -2.370893 3.963324 0.528809 0
M  V30 19 C -1.442862 2.937642 0.743606 0
M  V30 20 C -0.240259 2.839449 1.576748 0
M  V30 21 N 0.245605 3.748291 2.340820 0
M  V30 22 O 1.395041 3.480080 3.058527 0
M  V30 23 H -0.205116 -5.302691 -0.944032 0
M  V30 24 H 0.121687 -4.942907 0.787594 0
M  V30 25 H 0.383210 -6.562760 0.147363 0
M  V30 26 H 1.921353 -4.808894 -1.507574 0
M  V30 27 H 2.506731 -6.119525 -0.467276 0
M  V30 28 H 3.921027 -2.833980 2.055877 0
M  V30 29 H 3.388496 -0.504195 2.717326 0
M  V30 30 H 0.484825 -2.948308 -0.502712 0
M  V30 31 H -2.788118 0.547841 -1.314925 0
M  V30 32 H -4.444879 2.384572 -1.695855 0
M  V30 33 H -4.110272 4.538015 -0.481178 0
M  V30 34 H -2.264917 4.902564 1.029443 0
M  V30 35 H 1.359414 2.997301 3.930717 0
M  V30 END ATOM
M  V30 BEGIN BOND
M  V30 1 1 1 2
M  V30 2 1 2 3
M  V30 3 1 3 4
M  V30 4 2 4 5
M  V30 5 1 5 6
M  V30 6 2 6 7
M  V30 7 1 7 8
M  V30 8 2 8 9
M  V30 9 1 9 10
M  V30 10 2 10 11
M  V30 11 1 11 12
M  V30 12 2 12 13
M  V30 13 1 10 14
M  V30 14 2 14 15
M  V30 15 1 15 16
M  V30 16 2 16 17
M  V30 17 1 17 18
M  V30 18 2 18 19
M  V30 19 1 19 20
M  V30 20 2 20 21
M  V30 21 1 21 22
M  V30 22 1 13 4
M  V30 23 1 19 14
M  V30 24 1 12 7
M  V30 25 1 20 9
M  V30 26 1 1 23
M  V30 27 1 1 24
M  V30 28 1 1 25
M  V30 29 1 2 26
M  V30 30 1 2 27
M  V30 31 1 5 28
M  V30 32 1 6 29
M  V30 33 1 13 30
M  V30 34 1 15 31
M  V30 35 1 16 32
M  V30 36 1 17 33
M  V30 37 1 18 34
M  V30 38 1 22 35
M  V30 END BOND
M  V30 END CTAB
M  END
>  <Dataset>  (120) 
ChEMBL_Kinases

>  <Ligand_Instance>  (120) 
nan

>  <PDB_ID>  (120) 
nan

>  <Standardized_SMILES>  (120) 
CCOc1ccc2nc3c(nc2c1)-c1ccccc1/C3=N/O

>  <Name>  (120) 
nan

>  <Pocket>  (120) 
nan

>  <ATP_Site>  (120) 
nan

>  <Peripheral>  (120) 
nan

>  <Num_H_Atoms_ProtBoundConf>  (120) 
nan

>  <Num_Resolved_Atoms>  (120) 
nan

>  <Num_Not_Resolved_Atoms>  (120) 
nan

$$$$
CHEMBL2064535
     RDKit          3D

  0  0  0  0  0  0  0  0  0  0999 V3000
M  V30 BEGIN CTAB
M  V30 COUNTS 48 52 0 0 0
M  V30 BEGIN ATOM
M  V30 1 N 2.096244 -1.841345 0.018695 0
M  V30 2 C 3.043941 -1.168143 0.065755 0
M  V30 3 C 4.213301 -0.333613 0.099147 0
M  V30 4 C 5.418368 -1.002548 0.199603 0
M  V30 5 C 6.611113 -0.278780 0.237624 0
M  V30 6 F 7.773438 -0.977174 0.336723 0
M  V30 7 C 6.556129 1.111249 0.172858 0
M  V30 8 C 5.321694 1.735094 0.072733 0
M  V30 9 C 4.126665 1.040047 0.033304 0
M  V30 10 C 2.834763 1.708145 -0.070213 0
M  V30 11 C 1.765895 1.326591 0.745888 0
M  V30 12 C 0.557793 1.969165 0.629295 0
M  V30 13 C 0.325927 2.996778 -0.268036 0
M  V30 14 C -0.941506 3.726684 -0.446679 0
M  V30 15 S -1.990210 2.943652 -1.691715 0
M  V30 16 C -2.542192 1.337525 -1.142217 0
M  V30 17 N -3.331724 0.664091 -1.995955 0
M  V30 18 N -3.632827 -0.500654 -1.404662 0
M  V30 19 C -3.033543 -0.539379 -0.201439 0
M  V30 20 C -3.044864 -1.577465 0.824991 0
M  V30 21 C -2.326648 -1.339848 1.981113 0
M  V30 22 C -2.338516 -2.323829 2.952040 0
M  V30 23 C -3.048048 -3.516689 2.777813 0
M  V30 24 C -3.753392 -3.695364 1.587114 0
M  V30 25 C -3.764816 -2.731447 0.591167 0
M  V30 26 O -4.439051 -4.894964 1.465942 0
M  V30 27 C -4.095133 -5.964574 2.323872 0
M  V30 28 C -4.007320 -5.477120 3.775890 0
M  V30 29 O -3.017928 -4.463809 3.793181 0
M  V30 30 O -2.389808 0.595908 -0.097373 0
M  V30 31 C 1.394478 3.351567 -1.058045 0
M  V30 32 C 2.621477 2.730174 -0.969804 0
M  V30 33 H 5.475524 -2.077482 0.250632 0
M  V30 34 H 7.487395 1.664560 0.202896 0
M  V30 35 H 5.309121 2.825051 0.023631 0
M  V30 36 H 1.861925 0.534628 1.473240 0
M  V30 37 H -0.262042 1.676043 1.257205 0
M  V30 38 H -1.501684 3.610030 0.525726 0
M  V30 39 H -0.815686 4.800643 -0.602926 0
M  V30 40 H -1.770691 -0.427093 2.139732 0
M  V30 41 H -1.777154 -2.163467 3.881179 0
M  V30 42 H -4.322228 -2.901465 -0.320561 0
M  V30 43 H -4.883815 -6.734935 2.230285 0
M  V30 44 H -3.073058 -6.386259 2.101256 0
M  V30 45 H -4.996053 -5.039213 4.009540 0
M  V30 46 H -3.733880 -6.346558 4.402671 0
M  V30 47 H 1.326788 4.150321 -1.802191 0
M  V30 48 H 3.455861 3.038061 -1.616199 0
M  V30 END ATOM
M  V30 BEGIN BOND
M  V30 1 3 1 2
M  V30 2 1 2 3
M  V30 3 2 3 4
M  V30 4 1 4 5
M  V30 5 1 5 6
M  V30 6 2 5 7
M  V30 7 1 7 8
M  V30 8 2 8 9
M  V30 9 1 9 10
M  V30 10 2 10 11
M  V30 11 1 11 12
M  V30 12 2 12 13
M  V30 13 1 13 14
M  V30 14 1 14 15
M  V30 15 1 15 16
M  V30 16 2 16 17
M  V30 17 1 17 18
M  V30 18 2 18 19
M  V30 19 1 19 20
M  V30 20 2 20 21
M  V30 21 1 21 22
M  V30 22 2 22 23
M  V30 23 1 23 24
M  V30 24 2 24 25
M  V30 25 1 24 26
M  V30 26 1 26 27
M  V30 27 1 27 28
M  V30 28 1 28 29
M  V30 29 1 19 30
M  V30 30 1 13 31
M  V30 31 2 31 32
M  V30 32 1 9 3
M  V30 33 1 32 10
M  V30 34 1 30 16
M  V30 35 1 25 20
M  V30 36 1 29 23
M  V30 37 1 4 33
M  V30 38 1 7 34
M  V30 39 1 8 35
M  V30 40 1 11 36
M  V30 41 1 12 37
M  V30 42 1 14 38
M  V30 43 1 14 39
M  V30 44 1 21 40
M  V30 45 1 22 41
M  V30 46 1 25 42
M  V30 47 1 27 43
M  V30 48 1 27 44
M  V30 49 1 28 45
M  V30 50 1 28 46
M  V30 51 1 31 47
M  V30 52 1 32 48
M  V30 END BOND
M  V30 END CTAB
M  END
>  <Dataset>  (121) 
ChEMBL_Kinases

>  <Ligand_Instance>  (121) 
nan

>  <PDB_ID>  (121) 
nan

>  <Standardized_SMILES>  (121) 
N#Cc1cc(F)ccc1-c1ccc(CSc2nnc(-c3ccc4c(c3)OCCO4)o2)cc1

>  <Name>  (121) 
nan

>  <Pocket>  (121) 
nan

>  <ATP_Site>  (121) 
nan

>  <Peripheral>  (121) 
nan

>  <Num_H_Atoms_ProtBoundConf>  (121) 
nan

>  <Num_Resolved_Atoms>  (121) 
nan

>  <Num_Not_Resolved_Atoms>  (121) 
nan

$$$$
CHEMBL2321974
     RDKit          3D

  0  0  0  0  0  0  0  0  0  0999 V3000
M  V30 BEGIN CTAB
M  V30 COUNTS 33 36 0 0 0
M  V30 BEGIN ATOM
M  V30 1 O 3.328099 0.130052 1.341808 0
M  V30 2 C 2.792238 -1.003591 1.415482 0
M  V30 3 N 3.495863 -2.152473 1.867423 0
M  V30 4 C 2.532036 -3.224297 1.798723 0
M  V30 5 C 2.831693 -4.527880 2.160602 0
M  V30 6 C 1.855013 -5.493738 2.065976 0
M  V30 7 C 0.599705 -5.085551 1.601175 0
M  V30 8 C 0.403104 -3.766979 1.267364 0
M  V30 9 C 1.310687 -2.797219 1.340269 0
M  V30 10 C 1.439852 -1.403901 1.089499 0
M  V30 11 C 0.523873 -0.625944 0.650478 0
M  V30 12 N 0.621483 0.761721 0.391360 0
M  V30 13 C -0.590756 1.348528 -0.097555 0
M  V30 14 C -0.839919 2.658640 -0.445474 0
M  V30 15 C -2.123011 2.900498 -0.884065 0
M  V30 16 C -2.467990 4.263131 -1.271897 0
M  V30 17 O -1.632195 5.203908 -1.214664 0
M  V30 18 O -3.722574 4.624520 -1.726719 0
M  V30 19 C -3.102194 1.936678 -0.979895 0
M  V30 20 C -2.741052 0.666365 -0.606369 0
M  V30 21 C -1.491933 0.277897 -0.147561 0
M  V30 22 C -0.830310 -0.931282 0.304190 0
M  V30 23 O -1.539050 -1.925315 0.296485 0
M  V30 24 H 4.493482 -2.163747 2.171672 0
M  V30 25 H 3.792879 -4.855549 2.519640 0
M  V30 26 H 2.069403 -6.512787 2.342858 0
M  V30 27 H -0.121563 -5.915257 1.555516 0
M  V30 28 H -0.581434 -3.661518 0.947481 0
M  V30 29 H 1.505034 1.295047 0.547800 0
M  V30 30 H -0.088356 3.411271 -0.374596 0
M  V30 31 H -4.157926 5.525109 -1.479628 0
M  V30 32 H -4.110011 2.148088 -1.328848 0
M  V30 33 H -3.513193 -0.086497 -0.683423 0
M  V30 END ATOM
M  V30 BEGIN BOND
M  V30 1 2 1 2
M  V30 2 1 2 3
M  V30 3 1 3 4
M  V30 4 2 4 5
M  V30 5 1 5 6
M  V30 6 2 6 7
M  V30 7 1 7 8
M  V30 8 2 8 9
M  V30 9 1 9 10
M  V30 10 2 10 11
M  V30 11 1 11 12
M  V30 12 1 12 13
M  V30 13 2 13 14
M  V30 14 1 14 15
M  V30 15 1 15 16
M  V30 16 2 16 17
M  V30 17 1 16 18
M  V30 18 2 15 19
M  V30 19 1 19 20
M  V30 20 2 20 21
M  V30 21 1 21 22
M  V30 22 2 22 23
M  V30 23 1 10 2
M  V30 24 1 22 11
M  V30 25 1 9 4
M  V30 26 1 21 13
M  V30 27 1 3 24
M  V30 28 1 5 25
M  V30 29 1 6 26
M  V30 30 1 7 27
M  V30 31 1 8 28
M  V30 32 1 12 29
M  V30 33 1 14 30
M  V30 34 1 18 31
M  V30 35 1 19 32
M  V30 36 1 20 33
M  V30 END BOND
M  V30 END CTAB
M  END
>  <Dataset>  (122) 
ChEMBL_Kinases

>  <Ligand_Instance>  (122) 
nan

>  <PDB_ID>  (122) 
nan

>  <Standardized_SMILES>  (122) 
O=C1Nc2ccccc2/C1=C1/Nc2cc(C(=O)O)ccc2C1=O

>  <Name>  (122) 
nan

>  <Pocket>  (122) 
nan

>  <ATP_Site>  (122) 
nan

>  <Peripheral>  (122) 
nan

>  <Num_H_Atoms_ProtBoundConf>  (122) 
nan

>  <Num_Resolved_Atoms>  (122) 
nan

>  <Num_Not_Resolved_Atoms>  (122) 
nan

$$$$
CHEMBL2321964
     RDKit          3D

  0  0  0  0  0  0  0  0  0  0999 V3000
M  V30 BEGIN CTAB
M  V30 COUNTS 36 39 0 0 0
M  V30 BEGIN ATOM
M  V30 1 O -0.542767 -1.365555 4.278760 0
M  V30 2 C 0.220064 -1.976323 3.516199 0
M  V30 3 N 0.945374 -3.132687 3.911524 0
M  V30 4 C 1.701116 -3.527616 2.747012 0
M  V30 5 C 2.543743 -4.627540 2.732422 0
M  V30 6 Br 2.828955 -5.770002 4.226383 0
M  V30 7 C 3.218524 -4.915931 1.567698 0
M  V30 8 C 3.009217 -4.075230 0.466853 0
M  V30 9 C 2.150238 -3.011242 0.593214 0
M  V30 10 C 1.466363 -2.678878 1.695611 0
M  V30 11 C 0.549605 -1.699133 2.133756 0
M  V30 12 C 0.086874 -0.722505 1.416626 0
M  V30 13 N -0.830564 0.251144 1.868438 0
M  V30 14 C -1.169055 1.208373 0.871155 0
M  V30 15 C -2.025133 2.300838 0.934732 0
M  V30 16 C -2.132690 3.037351 -0.223690 0
M  V30 17 C -1.446107 2.727782 -1.377530 0
M  V30 18 C -1.624649 3.581330 -2.582134 0
M  V30 19 O -2.691497 3.022735 -3.289412 0
M  V30 20 C -0.622635 1.635485 -1.358029 0
M  V30 21 C -0.438058 0.819058 -0.241086 0
M  V30 22 C 0.346030 -0.362491 0.052910 0
M  V30 23 N 1.060710 -0.846992 -0.832309 0
M  V30 24 O 1.215604 -0.408204 -2.082651 0
M  V30 25 H 0.900163 -3.566438 4.871371 0
M  V30 26 H 3.878205 -5.766751 1.536222 0
M  V30 27 H 3.595796 -4.396539 -0.408182 0
M  V30 28 H 2.143468 -2.528469 -0.329049 0
M  V30 29 H -1.229475 0.281376 2.830093 0
M  V30 30 H -2.559985 2.544075 1.829531 0
M  V30 31 H -2.795063 3.886121 -0.181310 0
M  V30 32 H -1.940938 4.614959 -2.272756 0
M  V30 33 H -0.716751 3.707054 -3.180267 0
M  V30 34 H -2.720558 2.037828 -3.186871 0
M  V30 35 H -0.120452 1.450079 -2.281823 0
M  V30 36 H 1.959993 0.146067 -2.458430 0
M  V30 END ATOM
M  V30 BEGIN BOND
M  V30 1 2 1 2
M  V30 2 1 2 3
M  V30 3 1 3 4
M  V30 4 2 4 5
M  V30 5 1 5 6
M  V30 6 1 5 7
M  V30 7 2 7 8
M  V30 8 1 8 9
M  V30 9 2 9 10
M  V30 10 1 10 11
M  V30 11 2 11 12
M  V30 12 1 12 13
M  V30 13 1 13 14
M  V30 14 2 14 15
M  V30 15 1 15 16
M  V30 16 2 16 17
M  V30 17 1 17 18
M  V30 18 1 18 19
M  V30 19 1 17 20
M  V30 20 2 20 21
M  V30 21 1 21 22
M  V30 22 2 22 23
M  V30 23 1 23 24
M  V30 24 1 11 2
M  V30 25 1 22 12
M  V30 26 1 10 4
M  V30 27 1 21 14
M  V30 28 1 3 25
M  V30 29 1 7 26
M  V30 30 1 8 27
M  V30 31 1 9 28
M  V30 32 1 13 29
M  V30 33 1 15 30
M  V30 34 1 16 31
M  V30 35 1 18 32
M  V30 36 1 18 33
M  V30 37 1 19 34
M  V30 38 1 20 35
M  V30 39 1 24 36
M  V30 END BOND
M  V30 END CTAB
M  END
>  <Dataset>  (123) 
ChEMBL_Kinases

>  <Ligand_Instance>  (123) 
nan

>  <PDB_ID>  (123) 
nan

>  <Standardized_SMILES>  (123) 
O=C1Nc2c(Br)cccc2/C1=C1/Nc2ccc(CO)cc2/C1=N\O

>  <Name>  (123) 
nan

>  <Pocket>  (123) 
nan

>  <ATP_Site>  (123) 
nan

>  <Peripheral>  (123) 
nan

>  <Num_H_Atoms_ProtBoundConf>  (123) 
nan

>  <Num_Resolved_Atoms>  (123) 
nan

>  <Num_Not_Resolved_Atoms>  (123) 
nan

$$$$
CHEMBL2048864
     RDKit          3D

  0  0  0  0  0  0  0  0  0  0999 V3000
M  V30 BEGIN CTAB
M  V30 COUNTS 35 37 0 0 0
M  V30 BEGIN ATOM
M  V30 1 O 2.008896 -3.525643 4.686865 0
M  V30 2 C 2.199139 -2.358797 4.203302 0
M  V30 3 N 1.777917 -1.141739 4.859814 0
M  V30 4 C 1.555583 -0.022606 4.015154 0
M  V30 5 O 1.181065 1.122701 4.441833 0
M  V30 6 C 1.791958 -0.283715 2.589243 0
M  V30 7 C 1.319365 0.251583 1.510714 0
M  V30 8 C 1.696605 -0.162210 0.157000 0
M  V30 9 C 2.988880 -0.443631 -0.255055 0
M  V30 10 C 3.225048 -0.824223 -1.584251 0
M  V30 11 C 2.138631 -0.913946 -2.473852 0
M  V30 12 C 0.883555 -0.618826 -1.992041 0
M  V30 13 Cl -0.435605 -0.747661 -3.171272 0
M  V30 14 C 0.598451 -0.240202 -0.699321 0
M  V30 15 N -0.732458 0.034167 -0.254492 0
M  V30 16 C -1.313711 -1.224208 0.220012 0
M  V30 17 C -2.840784 -1.137655 0.170194 0
M  V30 18 N -3.155734 -0.324725 -1.011406 0
M  V30 19 C -2.967118 1.047836 -0.580355 0
M  V30 20 C -1.520504 1.227976 -0.192558 0
M  V30 21 S 2.965478 -1.670620 2.694232 0
M  V30 22 H 1.646687 -1.099363 5.917168 0
M  V30 23 H 0.620636 1.042678 1.729027 0
M  V30 24 H 3.790947 -0.355868 0.498951 0
M  V30 25 H 4.258198 -1.023802 -1.827827 0
M  V30 26 H 2.364933 -1.210815 -3.491213 0
M  V30 27 H -0.999170 -1.461923 1.236685 0
M  V30 28 H -1.062789 -2.063837 -0.473694 0
M  V30 29 H -3.139113 -0.619446 1.101500 0
M  V30 30 H -3.272067 -2.155039 0.101602 0
M  V30 31 H -4.141850 -0.534014 -1.248896 0
M  V30 32 H -3.661565 1.175586 0.289212 0
M  V30 33 H -3.299336 1.782190 -1.341070 0
M  V30 34 H -1.039030 2.088391 -0.699660 0
M  V30 35 H -1.536973 1.519954 0.903747 0
M  V30 END ATOM
M  V30 BEGIN BOND
M  V30 1 2 1 2
M  V30 2 1 2 3
M  V30 3 1 3 4
M  V30 4 2 4 5
M  V30 5 1 4 6
M  V30 6 2 6 7
M  V30 7 1 7 8
M  V30 8 2 8 9
M  V30 9 1 9 10
M  V30 10 2 10 11
M  V30 11 1 11 12
M  V30 12 1 12 13
M  V30 13 2 12 14
M  V30 14 1 14 15
M  V30 15 1 15 16
M  V30 16 1 16 17
M  V30 17 1 17 18
M  V30 18 1 18 19
M  V30 19 1 19 20
M  V30 20 1 6 21
M  V30 21 1 21 2
M  V30 22 1 14 8
M  V30 23 1 20 15
M  V30 24 1 3 22
M  V30 25 1 7 23
M  V30 26 1 9 24
M  V30 27 1 10 25
M  V30 28 1 11 26
M  V30 29 1 16 27
M  V30 30 1 16 28
M  V30 31 1 17 29
M  V30 32 1 17 30
M  V30 33 1 18 31
M  V30 34 1 19 32
M  V30 35 1 19 33
M  V30 36 1 20 34
M  V30 37 1 20 35
M  V30 END BOND
M  V30 END CTAB
M  END
>  <Dataset>  (124) 
ChEMBL_Kinases

>  <Ligand_Instance>  (124) 
nan

>  <PDB_ID>  (124) 
nan

>  <Standardized_SMILES>  (124) 
O=C1NC(=O)/C(=C/c2cccc(Cl)c2N2CCNCC2)S1

>  <Name>  (124) 
nan

>  <Pocket>  (124) 
nan

>  <ATP_Site>  (124) 
nan

>  <Peripheral>  (124) 
nan

>  <Num_H_Atoms_ProtBoundConf>  (124) 
nan

>  <Num_Resolved_Atoms>  (124) 
nan

>  <Num_Not_Resolved_Atoms>  (124) 
nan

$$$$
CHEMBL2321958
     RDKit          3D

  0  0  0  0  0  0  0  0  0  0999 V3000
M  V30 BEGIN CTAB
M  V30 COUNTS 38 41 0 0 0
M  V30 BEGIN ATOM
M  V30 1 C 0.442525 -5.454307 2.150883 0
M  V30 2 N 0.191710 -4.018084 2.003405 0
M  V30 3 C 0.679436 -3.231324 0.924621 0
M  V30 4 O 1.367022 -3.686043 -0.000475 0
M  V30 5 C 0.230830 -1.865143 1.120768 0
M  V30 6 C 0.453875 -0.845952 0.376208 0
M  V30 7 N 1.216465 -0.909272 -0.817835 0
M  V30 8 C 1.320001 0.354299 -1.464614 0
M  V30 9 C 1.965178 0.729456 -2.638164 0
M  V30 10 C 1.869327 2.054394 -2.989835 0
M  V30 11 C 1.180831 2.982342 -2.243552 0
M  V30 12 C 1.127025 4.370856 -2.686634 0
M  V30 13 O 1.723437 4.670146 -3.753410 0
M  V30 14 O 0.437613 5.323295 -1.948210 0
M  V30 15 C 0.566104 2.544381 -1.094712 0
M  V30 16 C 0.597325 1.227762 -0.642971 0
M  V30 17 C 0.056902 0.511828 0.493063 0
M  V30 18 N -0.607250 1.123336 1.321034 0
M  V30 19 O -0.921980 2.436171 1.323635 0
M  V30 20 C -0.531160 -1.852713 2.333184 0
M  V30 21 C -1.212336 -0.975582 3.086965 0
M  V30 22 C -1.874430 -1.265653 4.254867 0
M  V30 23 C -1.864121 -2.580851 4.739361 0
M  V30 24 C -1.179915 -3.524302 4.006005 0
M  V30 25 Br -1.171942 -5.306377 4.671202 0
M  V30 26 C -0.540684 -3.129742 2.834852 0
M  V30 27 H -0.461815 -6.054251 2.064738 0
M  V30 28 H 1.192283 -5.802835 1.420494 0
M  V30 29 H 0.958432 -5.558651 3.144616 0
M  V30 30 H 1.662921 -1.754517 -1.208986 0
M  V30 31 H 2.502372 0.014043 -3.223723 0
M  V30 32 H 2.381265 2.312493 -3.905948 0
M  V30 33 H 0.274752 6.271590 -2.319559 0
M  V30 34 H 0.046353 3.318177 -0.559255 0
M  V30 35 H -0.444368 3.160613 1.836718 0
M  V30 36 H -1.346906 0.041922 2.914303 0
M  V30 37 H -2.446033 -0.587617 4.909497 0
M  V30 38 H -2.366325 -2.865022 5.649644 0
M  V30 END ATOM
M  V30 BEGIN BOND
M  V30 1 1 1 2
M  V30 2 1 2 3
M  V30 3 2 3 4
M  V30 4 1 3 5
M  V30 5 2 5 6
M  V30 6 1 6 7
M  V30 7 1 7 8
M  V30 8 2 8 9
M  V30 9 1 9 10
M  V30 10 2 10 11
M  V30 11 1 11 12
M  V30 12 2 12 13
M  V30 13 1 12 14
M  V30 14 1 11 15
M  V30 15 2 15 16
M  V30 16 1 16 17
M  V30 17 2 17 18
M  V30 18 1 18 19
M  V30 19 1 5 20
M  V30 20 2 20 21
M  V30 21 1 21 22
M  V30 22 2 22 23
M  V30 23 1 23 24
M  V30 24 1 24 25
M  V30 25 2 24 26
M  V30 26 1 26 2
M  V30 27 1 17 6
M  V30 28 1 26 20
M  V30 29 1 16 8
M  V30 30 1 1 27
M  V30 31 1 1 28
M  V30 32 1 1 29
M  V30 33 1 7 30
M  V30 34 1 9 31
M  V30 35 1 10 32
M  V30 36 1 14 33
M  V30 37 1 15 34
M  V30 38 1 19 35
M  V30 39 1 21 36
M  V30 40 1 22 37
M  V30 41 1 23 38
M  V30 END BOND
M  V30 END CTAB
M  END
>  <Dataset>  (125) 
ChEMBL_Kinases

>  <Ligand_Instance>  (125) 
nan

>  <PDB_ID>  (125) 
nan

>  <Standardized_SMILES>  (125) 
CN1C(=O)/C(=C2\Nc3ccc(C(=O)O)cc3\C2=N/O)c2cccc(Br)c21

>  <Name>  (125) 
nan

>  <Pocket>  (125) 
nan

>  <ATP_Site>  (125) 
nan

>  <Peripheral>  (125) 
nan

>  <Num_H_Atoms_ProtBoundConf>  (125) 
nan

>  <Num_Resolved_Atoms>  (125) 
nan

>  <Num_Not_Resolved_Atoms>  (125) 
nan

$$$$
CHEMBL2321951
     RDKit          3D

  0  0  0  0  0  0  0  0  0  0999 V3000
M  V30 BEGIN CTAB
M  V30 COUNTS 38 41 0 0 0
M  V30 BEGIN ATOM
M  V30 1 C 6.306839 -2.782937 0.812812 0
M  V30 2 O 5.155496 -2.018831 0.989207 0
M  V30 3 C 5.028292 -0.832683 1.665671 0
M  V30 4 O 5.960324 -0.205512 2.265742 0
M  V30 5 C 3.710383 -0.205918 1.719733 0
M  V30 6 C 3.537182 0.983718 2.387227 0
M  V30 7 C 2.320760 1.622421 2.473000 0
M  V30 8 C 1.259820 1.002514 1.845838 0
M  V30 9 C 1.329846 -0.205345 1.142440 0
M  V30 10 C 2.608450 -0.765913 1.118359 0
M  V30 11 C 0.025561 -0.558096 0.615545 0
M  V30 12 N -0.073977 -1.590563 -0.024355 0
M  V30 13 O 0.876039 -2.499563 -0.335917 0
M  V30 14 C -0.880564 0.459797 1.002741 0
M  V30 15 C -2.135698 0.601294 0.782452 0
M  V30 16 C -3.005834 1.674527 1.211404 0
M  V30 17 O -2.716339 2.681378 1.882340 0
M  V30 18 N -4.321135 1.428744 0.745399 0
M  V30 19 C -4.229191 0.182512 0.024288 0
M  V30 20 C -5.329418 -0.417534 -0.600850 0
M  V30 21 C -5.139481 -1.593410 -1.256223 0
M  V30 22 C -3.850143 -2.133376 -1.265266 0
M  V30 23 C -2.829650 -1.474305 -0.624279 0
M  V30 24 C -2.950441 -0.312887 0.039262 0
M  V30 25 N -0.107676 1.388048 1.743924 0
M  V30 26 H 6.517335 -3.010459 -0.273004 0
M  V30 27 H 7.226557 -2.370148 1.237512 0
M  V30 28 H 6.078991 -3.802517 1.239068 0
M  V30 29 H 4.361171 1.475650 2.880565 0
M  V30 30 H 2.196000 2.555352 2.999142 0
M  V30 31 H 2.798416 -1.684707 0.616477 0
M  V30 32 H 1.428675 -2.532203 -1.162935 0
M  V30 33 H -5.157122 2.048832 0.912320 0
M  V30 34 H -6.318698 0.000169 -0.591884 0
M  V30 35 H -5.969203 -2.066647 -1.740026 0
M  V30 36 H -3.801737 -3.084159 -1.820725 0
M  V30 37 H -1.964493 -2.038890 -0.751026 0
M  V30 38 H -0.470618 2.260512 2.176200 0
M  V30 END ATOM
M  V30 BEGIN BOND
M  V30 1 1 1 2
M  V30 2 1 2 3
M  V30 3 2 3 4
M  V30 4 1 3 5
M  V30 5 2 5 6
M  V30 6 1 6 7
M  V30 7 2 7 8
M  V30 8 1 8 9
M  V30 9 2 9 10
M  V30 10 1 9 11
M  V30 11 2 11 12
M  V30 12 1 12 13
M  V30 13 1 11 14
M  V30 14 2 14 15
M  V30 15 1 15 16
M  V30 16 2 16 17
M  V30 17 1 16 18
M  V30 18 1 18 19
M  V30 19 2 19 20
M  V30 20 1 20 21
M  V30 21 2 21 22
M  V30 22 1 22 23
M  V30 23 2 23 24
M  V30 24 1 14 25
M  V30 25 1 10 5
M  V30 26 1 24 15
M  V30 27 1 25 8
M  V30 28 1 24 19
M  V30 29 1 1 26
M  V30 30 1 1 27
M  V30 31 1 1 28
M  V30 32 1 6 29
M  V30 33 1 7 30
M  V30 34 1 10 31
M  V30 35 1 13 32
M  V30 36 1 18 33
M  V30 37 1 20 34
M  V30 38 1 21 35
M  V30 39 1 22 36
M  V30 40 1 23 37
M  V30 41 1 25 38
M  V30 END BOND
M  V30 END CTAB
M  END
>  <Dataset>  (126) 
ChEMBL_Kinases

>  <Ligand_Instance>  (126) 
nan

>  <PDB_ID>  (126) 
nan

>  <Standardized_SMILES>  (126) 
COC(=O)c1ccc2c(c1)C(=N\O)/C(=C1/C(=O)Nc3ccccc31)N2

>  <Name>  (126) 
nan

>  <Pocket>  (126) 
nan

>  <ATP_Site>  (126) 
nan

>  <Peripheral>  (126) 
nan

>  <Num_H_Atoms_ProtBoundConf>  (126) 
nan

>  <Num_Resolved_Atoms>  (126) 
nan

>  <Num_Not_Resolved_Atoms>  (126) 
nan

$$$$
CHEMBL2321945
     RDKit          3D

  0  0  0  0  0  0  0  0  0  0999 V3000
M  V30 BEGIN CTAB
M  V30 COUNTS 33 36 0 0 0
M  V30 BEGIN ATOM
M  V30 1 O 1.079004 -1.281164 3.734317 0
M  V30 2 C 1.682910 -1.610132 2.684656 0
M  V30 3 N 2.912650 -2.320998 2.701057 0
M  V30 4 C 3.253468 -2.491430 1.308708 0
M  V30 5 C 4.406025 -3.149330 0.885285 0
M  V30 6 Br 5.682269 -3.909353 2.072792 0
M  V30 7 C 4.659033 -3.269828 -0.464829 0
M  V30 8 C 3.723721 -2.712585 -1.348257 0
M  V30 9 C 2.617254 -2.083236 -0.824034 0
M  V30 10 C 2.320070 -1.936101 0.467563 0
M  V30 11 C 1.324287 -1.376547 1.298775 0
M  V30 12 C 0.259870 -0.754275 0.917949 0
M  V30 13 N -0.747992 -0.186972 1.708419 0
M  V30 14 C -1.795910 0.432492 0.972776 0
M  V30 15 C -2.928623 1.078372 1.424487 0
M  V30 16 C -3.749277 1.571354 0.434669 0
M  V30 17 C -4.962663 2.264588 0.847289 0
M  V30 18 O -5.232748 2.397503 2.065237 0
M  V30 19 O -5.877195 2.809723 -0.033774 0
M  V30 20 C -3.498463 1.452086 -0.914520 0
M  V30 21 C -2.345059 0.792278 -1.262503 0
M  V30 22 C -1.424559 0.243352 -0.364457 0
M  V30 23 C -0.169372 -0.480819 -0.420432 0
M  V30 24 O 0.240768 -0.696310 -1.550555 0
M  V30 25 H 3.411421 -2.625444 3.555021 0
M  V30 26 H 5.545333 -3.775319 -0.812812 0
M  V30 27 H 3.990995 -2.847215 -2.388845 0
M  V30 28 H 2.043289 -1.736473 -1.617956 0
M  V30 29 H -0.718612 -0.223863 2.755783 0
M  V30 30 H -3.132525 1.176236 2.473966 0
M  V30 31 H -6.326240 3.723368 0.127613 0
M  V30 32 H -4.155645 1.846350 -1.680285 0
M  V30 33 H -2.146506 0.697618 -2.317996 0
M  V30 END ATOM
M  V30 BEGIN BOND
M  V30 1 2 1 2
M  V30 2 1 2 3
M  V30 3 1 3 4
M  V30 4 2 4 5
M  V30 5 1 5 6
M  V30 6 1 5 7
M  V30 7 2 7 8
M  V30 8 1 8 9
M  V30 9 2 9 10
M  V30 10 1 10 11
M  V30 11 2 11 12
M  V30 12 1 12 13
M  V30 13 1 13 14
M  V30 14 2 14 15
M  V30 15 1 15 16
M  V30 16 1 16 17
M  V30 17 2 17 18
M  V30 18 1 17 19
M  V30 19 2 16 20
M  V30 20 1 20 21
M  V30 21 2 21 22
M  V30 22 1 22 23
M  V30 23 2 23 24
M  V30 24 1 11 2
M  V30 25 1 23 12
M  V30 26 1 10 4
M  V30 27 1 22 14
M  V30 28 1 3 25
M  V30 29 1 7 26
M  V30 30 1 8 27
M  V30 31 1 9 28
M  V30 32 1 13 29
M  V30 33 1 15 30
M  V30 34 1 19 31
M  V30 35 1 20 32
M  V30 36 1 21 33
M  V30 END BOND
M  V30 END CTAB
M  END
>  <Dataset>  (127) 
ChEMBL_Kinases

>  <Ligand_Instance>  (127) 
nan

>  <PDB_ID>  (127) 
nan

>  <Standardized_SMILES>  (127) 
O=C1Nc2c(Br)cccc2/C1=C1/Nc2cc(C(=O)O)ccc2C1=O

>  <Name>  (127) 
nan

>  <Pocket>  (127) 
nan

>  <ATP_Site>  (127) 
nan

>  <Peripheral>  (127) 
nan

>  <Num_H_Atoms_ProtBoundConf>  (127) 
nan

>  <Num_Resolved_Atoms>  (127) 
nan

>  <Num_Not_Resolved_Atoms>  (127) 
nan

$$$$
CHEMBL4526558
     RDKit          3D

  0  0  0  0  0  0  0  0  0  0999 V3000
M  V30 BEGIN CTAB
M  V30 COUNTS 58 63 0 0 0
M  V30 BEGIN ATOM
M  V30 1 C 3.871451 -2.877831 1.998632 0
M  V30 2 N 4.355268 -1.536720 1.657391 0
M  V30 3 C 5.781358 -1.389686 1.595244 0
M  V30 4 C 6.254852 0.018063 1.451639 0
M  V30 5 O 5.290766 1.000129 1.719539 0
M  V30 6 C 3.943512 0.792830 1.454140 0
M  V30 7 C 3.429928 -0.489527 1.414392 0
M  V30 8 C 2.107101 -0.741701 1.156291 0
M  V30 9 N 1.325145 0.333175 0.941248 0
M  V30 10 N 1.773230 1.577799 0.969502 0
M  V30 11 C 1.146031 2.753176 0.781001 0
M  V30 12 C -0.280511 2.865397 0.483050 0
M  V30 13 C -0.886775 4.090758 0.296408 0
M  V30 14 C -2.242702 4.183801 0.013945 0
M  V30 15 C -3.034137 3.058756 -0.090810 0
M  V30 16 C -4.385768 3.060210 -0.367728 0
M  V30 17 F -4.989843 4.267449 -0.552997 0
M  V30 18 C -5.130809 1.905373 -0.461462 0
M  V30 19 F -6.443834 1.923670 -0.731313 0
M  V30 20 C -4.424808 0.736220 -0.257264 0
M  V30 21 C -3.077057 0.655458 0.022902 0
M  V30 22 N -2.427846 -0.602707 0.219955 0
M  V30 23 C -3.068856 -1.884080 0.153941 0
M  V30 24 C -2.112192 -3.027969 0.407898 0
M  V30 25 F -1.542848 -2.907464 1.682109 0
M  V30 26 C -2.882080 -4.327997 0.321741 0
M  V30 27 C -2.027023 -5.428325 -0.276977 0
M  V30 28 N -1.684245 -5.092186 -1.633698 0
M  V30 29 C -1.463540 -3.689204 -1.855272 0
M  V30 30 C -0.972954 -3.098343 -0.552255 0
M  V30 31 C -2.391253 1.851332 0.102415 0
M  V30 32 N -1.080153 1.788856 0.374145 0
M  V30 33 N 2.058035 3.741752 0.917336 0
M  V30 34 N 3.251787 3.191725 1.189959 0
M  V30 35 C 3.083807 1.852255 1.223953 0
M  V30 36 H 3.580922 -3.445690 1.089927 0
M  V30 37 H 4.584279 -3.410667 2.647334 0
M  V30 38 H 2.923117 -2.737270 2.567155 0
M  V30 39 H 6.164925 -1.762757 2.589715 0
M  V30 40 H 6.242578 -2.077047 0.845065 0
M  V30 41 H 7.111268 0.236263 2.147142 0
M  V30 42 H 6.564162 0.152362 0.374889 0
M  V30 43 H 1.762320 -1.767535 1.138025 0
M  V30 44 H -0.285678 4.977204 0.374338 0
M  V30 45 H -2.731991 5.135878 -0.134810 0
M  V30 46 H -4.952163 -0.223602 -0.316342 0
M  V30 47 H -1.405430 -0.586816 0.428541 0
M  V30 48 H -3.510961 -2.044159 -0.844194 0
M  V30 49 H -3.901923 -2.014396 0.877226 0
M  V30 50 H -3.733049 -4.165401 -0.368091 0
M  V30 51 H -3.296374 -4.632961 1.300734 0
M  V30 52 H -2.672378 -6.327222 -0.322405 0
M  V30 53 H -1.174756 -5.686861 0.352982 0
M  V30 54 H -0.871968 -5.629760 -1.989877 0
M  V30 55 H -2.378663 -3.144403 -2.145159 0
M  V30 56 H -0.717661 -3.492768 -2.659819 0
M  V30 57 H -0.233515 -3.804297 -0.138830 0
M  V30 58 H -0.445489 -2.140391 -0.695286 0
M  V30 END ATOM
M  V30 BEGIN BOND
M  V30 1 1 1 2
M  V30 2 1 2 3
M  V30 3 1 3 4
M  V30 4 1 4 5
M  V30 5 1 5 6
M  V30 6 2 6 7
M  V30 7 1 7 8
M  V30 8 2 8 9
M  V30 9 1 9 10
M  V30 10 1 10 11
M  V30 11 1 11 12
M  V30 12 2 12 13
M  V30 13 1 13 14
M  V30 14 2 14 15
M  V30 15 1 15 16
M  V30 16 1 16 17
M  V30 17 2 16 18
M  V30 18 1 18 19
M  V30 19 1 18 20
M  V30 20 2 20 21
M  V30 21 1 21 22
M  V30 22 1 22 23
M  V30 23 1 23 24
M  V30 24 1 24 25
M  V30 25 1 24 26
M  V30 26 1 26 27
M  V30 27 1 27 28
M  V30 28 1 28 29
M  V30 29 1 29 30
M  V30 30 1 21 31
M  V30 31 2 31 32
M  V30 32 2 11 33
M  V30 33 1 33 34
M  V30 34 2 34 35
M  V30 35 1 7 2
M  V30 36 1 35 10
M  V30 37 1 35 6
M  V30 38 1 32 12
M  V30 39 1 31 15
M  V30 40 1 30 24
M  V30 41 1 1 36
M  V30 42 1 1 37
M  V30 43 1 1 38
M  V30 44 1 3 39
M  V30 45 1 3 40
M  V30 46 1 4 41
M  V30 47 1 4 42
M  V30 48 1 8 43
M  V30 49 1 13 44
M  V30 50 1 14 45
M  V30 51 1 20 46
M  V30 52 1 22 47
M  V30 53 1 23 48
M  V30 54 1 23 49
M  V30 55 1 26 50
M  V30 56 1 26 51
M  V30 57 1 27 52
M  V30 58 1 27 53
M  V30 59 1 28 54
M  V30 60 1 29 55
M  V30 61 1 29 56
M  V30 62 1 30 57
M  V30 63 1 30 58
M  V30 END BOND
M  V30 END CTAB
M  END
>  <Dataset>  (128) 
ChEMBL_Kinases

>  <Ligand_Instance>  (128) 
nan

>  <PDB_ID>  (128) 
nan

>  <Standardized_SMILES>  (128) 
CN1CCOc2c1cnn1c(-c3ccc4c(F)c(F)cc(NCC5(F)CCNCC5)c4n3)nnc21

>  <Name>  (128) 
nan

>  <Pocket>  (128) 
nan

>  <ATP_Site>  (128) 
nan

>  <Peripheral>  (128) 
nan

>  <Num_H_Atoms_ProtBoundConf>  (128) 
nan

>  <Num_Resolved_Atoms>  (128) 
nan

>  <Num_Not_Resolved_Atoms>  (128) 
nan

$$$$
CHEMBL4527085
     RDKit          3D

  0  0  0  0  0  0  0  0  0  0999 V3000
M  V30 BEGIN CTAB
M  V30 COUNTS 37 39 0 0 0
M  V30 BEGIN ATOM
M  V30 1 C 0.516712 -5.181798 0.074423 0
M  V30 2 C 0.978320 -3.738064 -0.178609 0
M  V30 3 C 2.435114 -3.693787 0.149048 0
M  V30 4 O 0.686978 -3.542511 -1.529475 0
M  V30 5 C 0.134529 -2.888619 0.700839 0
M  V30 6 C -0.725717 -3.384635 1.662608 0
M  V30 7 N -1.481262 -2.595220 2.448717 0
M  V30 8 C -1.430466 -1.254545 2.329193 0
M  V30 9 N -2.243289 -0.486474 3.178749 0
M  V30 10 C -0.598023 -0.675899 1.393791 0
M  V30 11 N -0.597425 0.655734 1.329435 0
M  V30 12 C 0.186678 1.311129 0.443072 0
M  V30 13 C 0.213100 2.766391 0.344628 0
M  V30 14 C 0.962897 3.523224 -0.509200 0
M  V30 15 C 0.905141 4.900396 -0.512032 0
M  V30 16 N 0.083465 5.515170 0.354627 0
M  V30 17 C -0.683931 4.840982 1.223699 0
M  V30 18 F -1.499535 5.530535 2.080153 0
M  V30 19 C -0.610021 3.473074 1.208473 0
M  V30 20 C 0.962196 0.503687 -0.363960 0
M  V30 21 C 0.977977 -0.869341 -0.315485 0
M  V30 22 C 0.164947 -1.500622 0.601275 0
M  V30 23 H 0.958310 -5.812822 -0.739246 0
M  V30 24 H 0.771806 -5.543308 1.068180 0
M  V30 25 H -0.578394 -5.181496 -0.103769 0
M  V30 26 H 2.837200 -4.675272 0.537195 0
M  V30 27 H 3.094215 -3.308417 -0.635452 0
M  V30 28 H 2.554785 -3.007455 1.034330 0
M  V30 29 H 1.457192 -3.614070 -2.114843 0
M  V30 30 H -0.795974 -4.456391 1.790490 0
M  V30 31 H -3.123813 -0.878311 3.607881 0
M  V30 32 H -2.031974 0.498589 3.433346 0
M  V30 33 H 1.612040 2.969626 -1.190657 0
M  V30 34 H 1.528237 5.446726 -1.217645 0
M  V30 35 H -1.239521 2.929336 1.920939 0
M  V30 36 H 1.622227 0.932004 -1.104132 0
M  V30 37 H 1.592929 -1.463966 -0.957615 0
M  V30 END ATOM
M  V30 BEGIN BOND
M  V30 1 1 1 2
M  V30 2 1 2 3
M  V30 3 1 2 4
M  V30 4 1 2 5
M  V30 5 2 5 6
M  V30 6 1 6 7
M  V30 7 2 7 8
M  V30 8 1 8 9
M  V30 9 1 8 10
M  V30 10 2 10 11
M  V30 11 1 11 12
M  V30 12 1 12 13
M  V30 13 2 13 14
M  V30 14 1 14 15
M  V30 15 2 15 16
M  V30 16 1 16 17
M  V30 17 1 17 18
M  V30 18 2 17 19
M  V30 19 2 12 20
M  V30 20 1 20 21
M  V30 21 2 21 22
M  V30 22 1 22 5
M  V30 23 1 22 10
M  V30 24 1 19 13
M  V30 25 1 1 23
M  V30 26 1 1 24
M  V30 27 1 1 25
M  V30 28 1 3 26
M  V30 29 1 3 27
M  V30 30 1 3 28
M  V30 31 1 4 29
M  V30 32 1 6 30
M  V30 33 1 9 31
M  V30 34 1 9 32
M  V30 35 1 14 33
M  V30 36 1 15 34
M  V30 37 1 19 35
M  V30 38 1 20 36
M  V30 39 1 21 37
M  V30 END BOND
M  V30 END CTAB
M  END
>  <Dataset>  (129) 
ChEMBL_Kinases

>  <Ligand_Instance>  (129) 
nan

>  <PDB_ID>  (129) 
nan

>  <Standardized_SMILES>  (129) 
CC(C)(O)c1cnc(N)c2nc(-c3ccnc(F)c3)ccc12

>  <Name>  (129) 
nan

>  <Pocket>  (129) 
nan

>  <ATP_Site>  (129) 
nan

>  <Peripheral>  (129) 
nan

>  <Num_H_Atoms_ProtBoundConf>  (129) 
nan

>  <Num_Resolved_Atoms>  (129) 
nan

>  <Num_Not_Resolved_Atoms>  (129) 
nan

$$$$
CHEMBL206466
     RDKit          3D

  0  0  0  0  0  0  0  0  0  0999 V3000
M  V30 BEGIN CTAB
M  V30 COUNTS 56 59 0 0 0
M  V30 BEGIN ATOM
M  V30 1 C 3.659974 -0.875381 4.988489 0
M  V30 2 C 4.559942 -0.438687 3.892393 0
M  V30 3 O 5.783303 -0.784581 4.026402 0
M  V30 4 N 4.404168 0.292920 2.686379 0
M  V30 5 C 5.642792 0.445350 1.947066 0
M  V30 6 C 5.676379 1.756338 1.196435 0
M  V30 7 C 4.560898 1.880415 0.183385 0
M  V30 8 C 3.501033 0.898376 0.572273 0
M  V30 9 C 2.287256 0.937420 -0.266663 0
M  V30 10 O 1.844514 -0.078140 -0.913254 0
M  V30 11 N 1.422130 2.066513 -0.500516 0
M  V30 12 C 0.393564 1.572838 -1.382574 0
M  V30 13 C -0.709670 1.084771 -0.717297 0
M  V30 14 C -1.734397 0.583317 -1.496915 0
M  V30 15 C -2.932315 0.062124 -0.799101 0
M  V30 16 C -3.360801 0.616440 0.403340 0
M  V30 17 C -4.487875 0.094353 1.029494 0
M  V30 18 N -5.145592 -0.936518 0.465468 0
M  V30 19 C -4.691003 -1.441032 -0.702350 0
M  V30 20 N -5.499767 -2.540993 -1.172443 0
M  V30 21 C -5.197655 -3.859339 -0.666206 0
M  V30 22 C -5.888048 -4.996873 -1.098795 0
M  V30 23 C -5.549873 -6.239299 -0.561745 0
M  V30 24 C -4.548146 -6.301458 0.375570 0
M  V30 25 F -4.216538 -7.526680 0.903664 0
M  V30 26 C -3.829786 -5.231529 0.845881 0
M  V30 27 C -4.194655 -4.020731 0.289638 0
M  V30 28 C -3.590177 -1.002527 -1.406262 0
M  V30 29 C -1.624927 0.586678 -2.872765 0
M  V30 30 C -0.498593 1.086795 -3.513180 0
M  V30 31 N 0.493233 1.572921 -2.735223 0
M  V30 32 C 3.235578 0.916271 2.054527 0
M  V30 33 H 3.454140 -1.963791 4.826762 0
M  V30 34 H 2.703905 -0.317891 4.951491 0
M  V30 35 H 4.193237 -0.762540 5.949816 0
M  V30 36 H 6.539010 0.437883 2.595814 0
M  V30 37 H 5.785276 -0.408682 1.228435 0
M  V30 38 H 5.634008 2.580316 1.934128 0
M  V30 39 H 6.670759 1.820736 0.697525 0
M  V30 40 H 4.101389 2.895840 0.215838 0
M  V30 41 H 4.930933 1.640895 -0.833098 0
M  V30 42 H 3.953326 -0.118784 0.378803 0
M  V30 43 H 1.716661 2.958970 -0.000103 0
M  V30 44 H -0.809559 1.075519 0.359006 0
M  V30 45 H -2.777688 1.451315 0.803716 0
M  V30 46 H -4.746135 0.600795 1.968860 0
M  V30 47 H -6.291503 -2.487112 -1.846070 0
M  V30 48 H -6.664117 -4.872445 -1.840452 0
M  V30 49 H -6.086773 -7.136301 -0.897979 0
M  V30 50 H -3.048898 -5.311979 1.582369 0
M  V30 51 H -3.672429 -3.127859 0.612183 0
M  V30 52 H -3.297774 -1.458162 -2.326859 0
M  V30 53 H -2.456244 0.182776 -3.436775 0
M  V30 54 H -0.404619 1.095164 -4.590461 0
M  V30 55 H 3.105131 1.922179 2.472176 0
M  V30 56 H 2.326522 0.317224 2.262607 0
M  V30 END ATOM
M  V30 BEGIN BOND
M  V30 1 1 1 2
M  V30 2 2 2 3
M  V30 3 1 2 4
M  V30 4 1 4 5
M  V30 5 1 5 6
M  V30 6 1 6 7
M  V30 7 1 7 8
M  V30 8 1 8 9
M  V30 9 2 9 10
M  V30 10 1 9 11
M  V30 11 1 11 12
M  V30 12 2 12 13
M  V30 13 1 13 14
M  V30 14 1 14 15
M  V30 15 2 15 16
M  V30 16 1 16 17
M  V30 17 2 17 18
M  V30 18 1 18 19
M  V30 19 1 19 20
M  V30 20 1 20 21
M  V30 21 2 21 22
M  V30 22 1 22 23
M  V30 23 2 23 24
M  V30 24 1 24 25
M  V30 25 1 24 26
M  V30 26 2 26 27
M  V30 27 2 19 28
M  V30 28 2 14 29
M  V30 29 1 29 30
M  V30 30 2 30 31
M  V30 31 1 8 32
M  V30 32 1 32 4
M  V30 33 1 31 12
M  V30 34 1 28 15
M  V30 35 1 27 21
M  V30 36 1 1 33
M  V30 37 1 1 34
M  V30 38 1 1 35
M  V30 39 1 5 36
M  V30 40 1 5 37
M  V30 41 1 6 38
M  V30 42 1 6 39
M  V30 43 1 7 40
M  V30 44 1 7 41
M  V30 45 1 8 42
M  V30 46 1 11 43
M  V30 47 1 13 44
M  V30 48 1 16 45
M  V30 49 1 17 46
M  V30 50 1 20 47
M  V30 51 1 22 48
M  V30 52 1 23 49
M  V30 53 1 26 50
M  V30 54 1 27 51
M  V30 55 1 28 52
M  V30 56 1 29 53
M  V30 57 1 30 54
M  V30 58 1 32 55
M  V30 59 1 32 56
M  V30 END BOND
M  V30 END CTAB
M  END
>  <Dataset>  (130) 
ChEMBL_Kinases

>  <Ligand_Instance>  (130) 
nan

>  <PDB_ID>  (130) 
nan

>  <Standardized_SMILES>  (130) 
CC(=O)N1CCCC(C(=O)Nc2cc(-c3ccnc(Nc4ccc(F)cc4)c3)ccn2)C1

>  <Name>  (130) 
nan

>  <Pocket>  (130) 
nan

>  <ATP_Site>  (130) 
nan

>  <Peripheral>  (130) 
nan

>  <Num_H_Atoms_ProtBoundConf>  (130) 
nan

>  <Num_Resolved_Atoms>  (130) 
nan

>  <Num_Not_Resolved_Atoms>  (130) 
nan

$$$$
CHEMBL4643993
     RDKit          3D

  0  0  0  0  0  0  0  0  0  0999 V3000
M  V30 BEGIN CTAB
M  V30 COUNTS 52 56 0 0 0
M  V30 BEGIN ATOM
M  V30 1 C 1.939357 -4.021730 -1.866867 0
M  V30 2 N 3.074532 -4.733975 -1.384225 0
M  V30 3 C 4.223388 -3.860809 -1.270705 0
M  V30 4 C 4.062154 -2.775066 -0.242082 0
M  V30 5 N 2.860127 -3.039049 0.519422 0
M  V30 6 C 1.786894 -2.141994 0.760681 0
M  V30 7 C 1.803958 -0.843053 0.304639 0
M  V30 8 C 0.710577 -0.052352 0.589413 0
M  V30 9 C 0.606901 1.325152 0.169102 0
M  V30 10 C -0.460249 1.553893 -0.695891 0
M  V30 11 C -0.693553 2.835849 -1.191212 0
M  V30 12 N 0.110571 3.850062 -0.834073 0
M  V30 13 C 1.146600 3.653177 -0.000059 0
M  V30 14 C 1.407334 2.395951 0.509483 0
M  V30 15 C -0.357415 -0.553791 1.305939 0
M  V30 16 C -1.570076 0.168697 1.674875 0
M  V30 17 C -1.324941 1.241984 2.539739 0
M  V30 18 C -2.383893 2.009840 2.966893 0
M  V30 19 C -3.671406 1.731963 2.552970 0
M  V30 20 C -4.704671 2.514359 2.994612 0
M  V30 21 C -5.981342 2.196065 2.550706 0
M  V30 22 F -6.961850 3.021447 3.033857 0
M  V30 23 C -6.214730 1.133833 1.696257 0
M  V30 24 C -5.149401 0.367951 1.272304 0
M  V30 25 C -3.875371 0.666534 1.700721 0
M  V30 26 C -2.847369 -0.130325 1.246460 0
M  V30 27 N -0.322510 -1.848611 1.734021 0
M  V30 28 N 0.733833 -2.603804 1.456092 0
M  V30 29 C 2.863828 -4.390952 1.044879 0
M  V30 30 C 2.817379 -5.348866 -0.099566 0
M  V30 31 H 1.579948 -4.511770 -2.818562 0
M  V30 32 H 2.138861 -2.960444 -2.038909 0
M  V30 33 H 1.082672 -4.198046 -1.151209 0
M  V30 34 H 5.086630 -4.547334 -1.040493 0
M  V30 35 H 4.488579 -3.440904 -2.276896 0
M  V30 36 H 4.113875 -1.762374 -0.674046 0
M  V30 37 H 4.920641 -2.891771 0.482340 0
M  V30 38 H 2.633867 -0.440343 -0.256160 0
M  V30 39 H -1.155041 0.790702 -1.032357 0
M  V30 40 H -1.525826 3.022968 -1.867839 0
M  V30 41 H 1.815184 4.440932 0.311628 0
M  V30 42 H 2.217409 2.133054 1.188387 0
M  V30 43 H -0.348971 1.522076 2.907474 0
M  V30 44 H -2.230289 2.852684 3.640618 0
M  V30 45 H -4.488686 3.335991 3.660497 0
M  V30 46 H -7.239024 0.979605 1.418342 0
M  V30 47 H -5.335753 -0.459839 0.605529 0
M  V30 48 H -2.944855 -0.975394 0.581168 0
M  V30 49 H 3.713885 -4.565895 1.733617 0
M  V30 50 H 1.945770 -4.507545 1.681890 0
M  V30 51 H 1.787792 -5.794953 -0.175256 0
M  V30 52 H 3.479018 -6.240325 0.065539 0
M  V30 END ATOM
M  V30 BEGIN BOND
M  V30 1 1 1 2
M  V30 2 1 2 3
M  V30 3 1 3 4
M  V30 4 1 4 5
M  V30 5 1 5 6
M  V30 6 2 6 7
M  V30 7 1 7 8
M  V30 8 1 8 9
M  V30 9 2 9 10
M  V30 10 1 10 11
M  V30 11 2 11 12
M  V30 12 1 12 13
M  V30 13 2 13 14
M  V30 14 2 8 15
M  V30 15 1 15 16
M  V30 16 2 16 17
M  V30 17 1 17 18
M  V30 18 2 18 19
M  V30 19 1 19 20
M  V30 20 2 20 21
M  V30 21 1 21 22
M  V30 22 1 21 23
M  V30 23 2 23 24
M  V30 24 1 24 25
M  V30 25 2 25 26
M  V30 26 1 15 27
M  V30 27 2 27 28
M  V30 28 1 5 29
M  V30 29 1 29 30
M  V30 30 1 30 2
M  V30 31 1 28 6
M  V30 32 1 14 9
M  V30 33 1 26 16
M  V30 34 1 25 19
M  V30 35 1 1 31
M  V30 36 1 1 32
M  V30 37 1 1 33
M  V30 38 1 3 34
M  V30 39 1 3 35
M  V30 40 1 4 36
M  V30 41 1 4 37
M  V30 42 1 7 38
M  V30 43 1 10 39
M  V30 44 1 11 40
M  V30 45 1 13 41
M  V30 46 1 14 42
M  V30 47 1 17 43
M  V30 48 1 18 44
M  V30 49 1 20 45
M  V30 50 1 23 46
M  V30 51 1 24 47
M  V30 52 1 26 48
M  V30 53 1 29 49
M  V30 54 1 29 50
M  V30 55 1 30 51
M  V30 56 1 30 52
M  V30 END BOND
M  V30 END CTAB
M  END
>  <Dataset>  (131) 
ChEMBL_Kinases

>  <Ligand_Instance>  (131) 
nan

>  <PDB_ID>  (131) 
nan

>  <Standardized_SMILES>  (131) 
CN1CCN(c2cc(-c3ccncc3)c(-c3ccc4cc(F)ccc4c3)nn2)CC1

>  <Name>  (131) 
nan

>  <Pocket>  (131) 
nan

>  <ATP_Site>  (131) 
nan

>  <Peripheral>  (131) 
nan

>  <Num_H_Atoms_ProtBoundConf>  (131) 
nan

>  <Num_Resolved_Atoms>  (131) 
nan

>  <Num_Not_Resolved_Atoms>  (131) 
nan

$$$$
CHEMBL4527736
     RDKit          3D

  0  0  0  0  0  0  0  0  0  0999 V3000
M  V30 BEGIN CTAB
M  V30 COUNTS 58 63 0 0 0
M  V30 BEGIN ATOM
M  V30 1 C 4.505065 -3.121302 0.742494 0
M  V30 2 N 4.838871 -2.140243 -0.285729 0
M  V30 3 C 6.056243 -2.322472 -1.023880 0
M  V30 4 C 6.089034 -1.426577 -2.227109 0
M  V30 5 O 5.570543 -0.147070 -1.831210 0
M  V30 6 C 4.296584 -0.038573 -1.271206 0
M  V30 7 C 3.912171 -1.074964 -0.465664 0
M  V30 8 C 2.665173 -1.008462 0.106151 0
M  V30 9 N 1.851878 0.054486 -0.127906 0
M  V30 10 N 2.227998 1.066843 -0.915062 0
M  V30 11 C 1.597315 2.199217 -1.279930 0
M  V30 12 C 0.256195 2.578260 -0.847489 0
M  V30 13 C -0.321189 3.759129 -1.267372 0
M  V30 14 C -1.605711 4.033572 -0.800487 0
M  V30 15 C -2.327568 3.214490 0.041569 0
M  V30 16 C -3.587777 3.521803 0.477667 0
M  V30 17 F -4.135070 4.679696 0.056234 0
M  V30 18 C -4.232032 2.642957 1.318206 0
M  V30 19 C -3.568939 1.496971 1.675596 0
M  V30 20 C -2.303916 1.135362 1.268847 0
M  V30 21 N -1.674378 -0.058375 1.702526 0
M  V30 22 C -2.022577 -1.167412 2.519101 0
M  V30 23 C -2.959142 -2.169245 1.945080 0
M  V30 24 F -4.158611 -1.598735 1.618238 0
M  V30 25 C -2.431486 -2.812196 0.678647 0
M  V30 26 C -3.327546 -3.955942 0.300637 0
M  V30 27 N -3.254182 -4.974140 1.344677 0
M  V30 28 C -3.886141 -4.447627 2.514299 0
M  V30 29 C -3.248207 -3.196956 3.019271 0
M  V30 30 C -1.689827 2.061002 0.415570 0
M  V30 31 N -0.457627 1.787715 -0.026400 0
M  V30 32 N 2.461038 2.843381 -2.086991 0
M  V30 33 N 3.582321 2.123554 -2.208274 0
M  V30 34 C 3.452998 1.017717 -1.486475 0
M  V30 35 H 5.355073 -3.832794 0.913284 0
M  V30 36 H 4.306387 -2.608331 1.728567 0
M  V30 37 H 3.618722 -3.741093 0.456078 0
M  V30 38 H 6.972642 -2.164117 -0.413697 0
M  V30 39 H 6.051951 -3.379545 -1.417118 0
M  V30 40 H 7.110168 -1.229541 -2.606934 0
M  V30 41 H 5.471698 -1.894182 -3.021731 0
M  V30 42 H 2.356793 -1.833543 0.748704 0
M  V30 43 H 0.190276 4.446052 -1.927547 0
M  V30 44 H -2.101910 4.966601 -1.112645 0
M  V30 45 H -5.215046 2.932915 1.628288 0
M  V30 46 H -4.169551 0.900427 2.345281 0
M  V30 47 H -0.703524 -0.135839 1.313334 0
M  V30 48 H -2.499315 -0.794797 3.480895 0
M  V30 49 H -1.111393 -1.691150 2.885209 0
M  V30 50 H -1.376199 -3.084349 0.753842 0
M  V30 51 H -2.532311 -2.019456 -0.116095 0
M  V30 52 H -3.050468 -4.402285 -0.673972 0
M  V30 53 H -4.371577 -3.559480 0.279581 0
M  V30 54 H -3.667786 -5.871158 1.071156 0
M  V30 55 H -3.784048 -5.221910 3.312270 0
M  V30 56 H -4.978466 -4.294769 2.398950 0
M  V30 57 H -2.288880 -3.365720 3.567187 0
M  V30 58 H -4.010130 -2.715653 3.700752 0
M  V30 END ATOM
M  V30 BEGIN BOND
M  V30 1 1 1 2
M  V30 2 1 2 3
M  V30 3 1 3 4
M  V30 4 1 4 5
M  V30 5 1 5 6
M  V30 6 2 6 7
M  V30 7 1 7 8
M  V30 8 2 8 9
M  V30 9 1 9 10
M  V30 10 1 10 11
M  V30 11 1 11 12
M  V30 12 2 12 13
M  V30 13 1 13 14
M  V30 14 2 14 15
M  V30 15 1 15 16
M  V30 16 1 16 17
M  V30 17 2 16 18
M  V30 18 1 18 19
M  V30 19 2 19 20
M  V30 20 1 20 21
M  V30 21 1 21 22
M  V30 22 1 22 23
M  V30 23 1 23 24
M  V30 24 1 23 25
M  V30 25 1 25 26
M  V30 26 1 26 27
M  V30 27 1 27 28
M  V30 28 1 28 29
M  V30 29 1 20 30
M  V30 30 2 30 31
M  V30 31 2 11 32
M  V30 32 1 32 33
M  V30 33 2 33 34
M  V30 34 1 7 2
M  V30 35 1 34 10
M  V30 36 1 34 6
M  V30 37 1 31 12
M  V30 38 1 30 15
M  V30 39 1 29 23
M  V30 40 1 1 35
M  V30 41 1 1 36
M  V30 42 1 1 37
M  V30 43 1 3 38
M  V30 44 1 3 39
M  V30 45 1 4 40
M  V30 46 1 4 41
M  V30 47 1 8 42
M  V30 48 1 13 43
M  V30 49 1 14 44
M  V30 50 1 18 45
M  V30 51 1 19 46
M  V30 52 1 21 47
M  V30 53 1 22 48
M  V30 54 1 22 49
M  V30 55 1 25 50
M  V30 56 1 25 51
M  V30 57 1 26 52
M  V30 58 1 26 53
M  V30 59 1 27 54
M  V30 60 1 28 55
M  V30 61 1 28 56
M  V30 62 1 29 57
M  V30 63 1 29 58
M  V30 END BOND
M  V30 END CTAB
M  END
>  <Dataset>  (132) 
ChEMBL_Kinases

>  <Ligand_Instance>  (132) 
nan

>  <PDB_ID>  (132) 
nan

>  <Standardized_SMILES>  (132) 
CN1CCOc2c1cnn1c(-c3ccc4c(F)ccc(NCC5(F)CCNCC5)c4n3)nnc21

>  <Name>  (132) 
nan

>  <Pocket>  (132) 
nan

>  <ATP_Site>  (132) 
nan

>  <Peripheral>  (132) 
nan

>  <Num_H_Atoms_ProtBoundConf>  (132) 
nan

>  <Num_Resolved_Atoms>  (132) 
nan

>  <Num_Not_Resolved_Atoms>  (132) 
nan

$$$$
CHEMBL4643632
     RDKit          3D

  0  0  0  0  0  0  0  0  0  0999 V3000
M  V30 BEGIN CTAB
M  V30 COUNTS 71 75 0 0 0
M  V30 BEGIN ATOM
M  V30 1 C 0.270528 0.381610 7.220509 0
M  V30 2 C 0.893209 -0.339162 6.045026 0
M  V30 3 N 1.282220 0.511906 4.963173 0
M  V30 4 C 2.620967 1.062838 4.947892 0
M  V30 5 O 3.117740 1.170689 6.115791 0
M  V30 6 C 3.444110 1.495580 3.794400 0
M  V30 7 C 4.785959 1.378186 4.155386 0
M  V30 8 C 5.685869 1.744714 3.155135 0
M  V30 9 C 5.252611 2.178362 1.933253 0
M  V30 10 C 3.898198 2.275965 1.626819 0
M  V30 11 C 2.972363 1.924032 2.587378 0
M  V30 12 N 1.619161 2.068947 2.154624 0
M  V30 13 C 1.441056 2.924881 1.000105 0
M  V30 14 C 0.466333 1.477000 2.721245 0
M  V30 15 N -0.607829 1.619886 1.919191 0
M  V30 16 C -1.829081 1.118823 2.263313 0
M  V30 17 N -2.937238 1.323396 1.361112 0
M  V30 18 C -2.988866 0.493856 0.204961 0
M  V30 19 C -2.002299 -0.424726 -0.086117 0
M  V30 20 C -1.975310 -1.244787 -1.194543 0
M  V30 21 C -3.013770 -1.154034 -2.098936 0
M  V30 22 C -3.077127 -1.973037 -3.302852 0
M  V30 23 O -4.037625 -1.896260 -4.099893 0
M  V30 24 N -2.044241 -2.880822 -3.601057 0
M  V30 25 C -1.799757 -3.815384 -4.676326 0
M  V30 26 C -1.636165 -5.207496 -4.090467 0
M  V30 27 C -0.217927 -5.639073 -3.929954 0
M  V30 28 N 0.749452 -4.620301 -3.746706 0
M  V30 29 C 1.240264 -4.414394 -2.427366 0
M  V30 30 C 0.632347 -3.441681 -4.527397 0
M  V30 31 C -0.548009 -3.510709 -5.453195 0
M  V30 32 C -4.034191 -0.254409 -1.866049 0
M  V30 33 C -4.024476 0.563503 -0.725573 0
M  V30 34 O -5.036529 1.446841 -0.504487 0
M  V30 35 C -6.164291 1.713381 -1.257679 0
M  V30 36 N -1.961907 0.468298 3.430507 0
M  V30 37 C -0.876453 0.331482 4.228239 0
M  V30 38 C 0.350750 0.818111 3.914000 0
M  V30 39 H -0.353836 -0.334577 7.794753 0
M  V30 40 H -0.335094 1.267414 6.888183 0
M  V30 41 H 1.017956 0.817298 7.924179 0
M  V30 42 H 1.889402 -0.685449 6.486631 0
M  V30 43 H 0.447612 -1.303945 5.788899 0
M  V30 44 H 5.058217 1.025002 5.142782 0
M  V30 45 H 6.730270 1.648921 3.448372 0
M  V30 46 H 5.984108 2.451824 1.185923 0
M  V30 47 H 3.539884 2.615328 0.663429 0
M  V30 48 H 1.615825 2.403593 0.035076 0
M  V30 49 H 0.367717 3.247428 0.970941 0
M  V30 50 H 2.016675 3.882820 1.094190 0
M  V30 51 H -3.691265 2.029919 1.502675 0
M  V30 52 H -1.171525 -0.506259 0.627530 0
M  V30 53 H -1.156827 -1.917259 -1.315509 0
M  V30 54 H -1.208264 -3.003866 -2.993584 0
M  V30 55 H -2.651321 -3.787298 -5.401408 0
M  V30 56 H -2.112379 -5.921082 -4.811233 0
M  V30 57 H -2.161205 -5.295131 -3.114761 0
M  V30 58 H 0.119460 -6.329440 -4.744915 0
M  V30 59 H -0.172331 -6.291940 -3.006099 0
M  V30 60 H 0.542521 -4.720341 -1.620365 0
M  V30 61 H 2.244103 -4.889937 -2.259196 0
M  V30 62 H 1.460255 -3.312864 -2.298559 0
M  V30 63 H 0.576705 -2.542118 -3.849776 0
M  V30 64 H 1.589362 -3.290358 -5.079661 0
M  V30 65 H -0.363720 -4.355601 -6.144379 0
M  V30 66 H -0.642238 -2.546871 -5.988424 0
M  V30 67 H -4.846207 -0.187371 -2.578803 0
M  V30 68 H -5.976058 1.518721 -2.324018 0
M  V30 69 H -6.608838 2.713267 -1.073084 0
M  V30 70 H -6.966780 0.983296 -0.966380 0
M  V30 71 H -1.054953 -0.188566 5.132727 0
M  V30 END ATOM
M  V30 BEGIN BOND
M  V30 1 1 1 2
M  V30 2 1 2 3
M  V30 3 1 3 4
M  V30 4 2 4 5
M  V30 5 1 4 6
M  V30 6 2 6 7
M  V30 7 1 7 8
M  V30 8 2 8 9
M  V30 9 1 9 10
M  V30 10 2 10 11
M  V30 11 1 11 12
M  V30 12 1 12 13
M  V30 13 1 12 14
M  V30 14 2 14 15
M  V30 15 1 15 16
M  V30 16 1 16 17
M  V30 17 1 17 18
M  V30 18 2 18 19
M  V30 19 1 19 20
M  V30 20 2 20 21
M  V30 21 1 21 22
M  V30 22 2 22 23
M  V30 23 1 22 24
M  V30 24 1 24 25
M  V30 25 1 25 26
M  V30 26 1 26 27
M  V30 27 1 27 28
M  V30 28 1 28 29
M  V30 29 1 28 30
M  V30 30 1 30 31
M  V30 31 1 21 32
M  V30 32 2 32 33
M  V30 33 1 33 34
M  V30 34 1 34 35
M  V30 35 2 16 36
M  V30 36 1 36 37
M  V30 37 2 37 38
M  V30 38 1 38 3
M  V30 39 1 11 6
M  V30 40 1 38 14
M  V30 41 1 33 18
M  V30 42 1 31 25
M  V30 43 1 1 39
M  V30 44 1 1 40
M  V30 45 1 1 41
M  V30 46 1 2 42
M  V30 47 1 2 43
M  V30 48 1 7 44
M  V30 49 1 8 45
M  V30 50 1 9 46
M  V30 51 1 10 47
M  V30 52 1 13 48
M  V30 53 1 13 49
M  V30 54 1 13 50
M  V30 55 1 17 51
M  V30 56 1 19 52
M  V30 57 1 20 53
M  V30 58 1 24 54
M  V30 59 1 25 55
M  V30 60 1 26 56
M  V30 61 1 26 57
M  V30 62 1 27 58
M  V30 63 1 27 59
M  V30 64 1 29 60
M  V30 65 1 29 61
M  V30 66 1 29 62
M  V30 67 1 30 63
M  V30 68 1 30 64
M  V30 69 1 31 65
M  V30 70 1 31 66
M  V30 71 1 32 67
M  V30 72 1 35 68
M  V30 73 1 35 69
M  V30 74 1 35 70
M  V30 75 1 37 71
M  V30 END BOND
M  V30 END CTAB
M  END
>  <Dataset>  (133) 
ChEMBL_Kinases

>  <Ligand_Instance>  (133) 
nan

>  <PDB_ID>  (133) 
nan

>  <Standardized_SMILES>  (133) 
CCN1C(=O)c2ccccc2N(C)c2nc(Nc3ccc(C(=O)NC4CCN(C)CC4)cc3OC)ncc21

>  <Name>  (133) 
nan

>  <Pocket>  (133) 
nan

>  <ATP_Site>  (133) 
nan

>  <Peripheral>  (133) 
nan

>  <Num_H_Atoms_ProtBoundConf>  (133) 
nan

>  <Num_Resolved_Atoms>  (133) 
nan

>  <Num_Not_Resolved_Atoms>  (133) 
nan

$$$$
CHEMBL4529398
     RDKit          3D

  0  0  0  0  0  0  0  0  0  0999 V3000
M  V30 BEGIN CTAB
M  V30 COUNTS 82 86 0 0 0
M  V30 BEGIN ATOM
M  V30 1 C 3.073529 0.297950 5.355462 0
M  V30 2 C 4.324597 0.666214 4.615582 0
M  V30 3 C 4.212257 0.502986 3.145496 0 CFG=2
M  V30 4 C 5.563312 0.881136 2.543841 0
M  V30 5 O 6.623613 1.379025 3.047297 0
M  V30 6 N 5.615278 0.609065 1.127268 0
M  V30 7 C 6.866722 0.250359 0.440532 0
M  V30 8 C 4.381708 0.703285 0.384161 0
M  V30 9 C 4.455120 0.450214 -0.969244 0
M  V30 10 N 3.315639 0.546683 -1.674855 0
M  V30 11 C 2.144173 0.877313 -1.088592 0
M  V30 12 N 0.823681 1.058551 -1.583042 0
M  V30 13 C -0.152279 0.024393 -1.841794 0
M  V30 14 C 0.371057 -1.246565 -1.619313 0
M  V30 15 C -0.436695 -2.368597 -1.839389 0
M  V30 16 C -1.731745 -2.175686 -2.271060 0
M  V30 17 C -2.579205 -3.334157 -2.511355 0
M  V30 18 O -2.014725 -4.451849 -2.368073 0
M  V30 19 N -3.950528 -3.269980 -2.881260 0
M  V30 20 C -4.664887 -4.505055 -3.078622 0
M  V30 21 C -4.753541 -5.368344 -1.857243 0
M  V30 22 N -5.451647 -4.804437 -0.764859 0
M  V30 23 C -4.877011 -3.699259 -0.093279 0
M  V30 24 C -3.681784 -4.112417 0.751843 0
M  V30 25 O -4.203803 -4.914643 1.771778 0
M  V30 26 C -4.627698 -6.082799 1.172912 0
M  V30 27 C -5.747954 -5.852328 0.196833 0
M  V30 28 C -2.221885 -0.907757 -2.482197 0
M  V30 29 C -1.469314 0.227017 -2.281349 0
M  V30 30 O -1.713385 1.549792 -2.413529 0
M  V30 31 C -2.830013 2.250814 -2.811770 0
M  V30 32 C -3.328930 2.005457 -4.193075 0
M  V30 33 O -2.336946 2.334550 -5.133463 0
M  V30 34 N 2.172999 1.101678 0.216241 0
M  V30 35 C 3.194047 1.051191 1.051860 0
M  V30 36 N 3.207787 1.314221 2.476950 0
M  V30 37 C 2.320435 2.305230 2.933796 0
M  V30 38 C 3.103942 3.545410 3.349344 0
M  V30 39 C 2.811034 4.563540 2.267750 0
M  V30 40 C 1.695706 4.028422 1.407250 0
M  V30 41 C 1.193949 2.776448 2.116209 0
M  V30 42 H 2.309616 -0.194234 4.722226 0
M  V30 43 H 2.654226 1.152473 5.958701 0
M  V30 44 H 3.300978 -0.510543 6.130753 0
M  V30 45 H 4.763616 1.625238 4.964228 0
M  V30 46 H 5.115864 -0.088359 4.931071 0
M  V30 47 H 3.974796 -0.560520 2.947996 0
M  V30 48 H 6.675226 -0.676479 -0.163290 0
M  V30 49 H 7.644178 0.010687 1.180542 0
M  V30 50 H 7.206312 1.016855 -0.256808 0
M  V30 51 H 5.337411 0.186328 -1.499513 0
M  V30 52 H 0.575886 2.054397 -1.762998 0
M  V30 53 H 1.375467 -1.443938 -1.282862 0
M  V30 54 H -0.021515 -3.350795 -1.664102 0
M  V30 55 H -4.399425 -2.320725 -3.001200 0
M  V30 56 H -5.673651 -4.348983 -3.516197 0
M  V30 57 H -4.091593 -5.036598 -3.895865 0
M  V30 58 H -5.315262 -6.304446 -2.158892 0
M  V30 59 H -3.748394 -5.768674 -1.558754 0
M  V30 60 H -4.694244 -2.802341 -0.681244 0
M  V30 61 H -5.650559 -3.374277 0.682262 0
M  V30 62 H -3.195034 -3.239511 1.186301 0
M  V30 63 H -2.933374 -4.689440 0.187469 0
M  V30 64 H -5.038311 -6.781038 1.952658 0
M  V30 65 H -3.785560 -6.655508 0.706172 0
M  V30 66 H -5.986193 -6.786894 -0.327267 0
M  V30 67 H -6.624136 -5.510393 0.786928 0
M  V30 68 H -3.218825 -0.684845 -2.811957 0
M  V30 69 H -3.702250 2.150722 -2.122842 0
M  V30 70 H -2.575260 3.352339 -2.765117 0
M  V30 71 H -3.726731 0.992776 -4.376233 0
M  V30 72 H -4.169665 2.717686 -4.431422 0
M  V30 73 H -1.446791 2.025937 -4.846471 0
M  V30 74 H 1.868251 1.948544 3.910560 0
M  V30 75 H 2.803148 3.922424 4.344802 0
M  V30 76 H 4.173732 3.284712 3.389941 0
M  V30 77 H 3.747402 4.716211 1.694956 0
M  V30 78 H 2.573319 5.519760 2.771047 0
M  V30 79 H 1.965925 3.862070 0.353768 0
M  V30 80 H 0.912090 4.835192 1.366490 0
M  V30 81 H 0.378830 3.202978 2.807979 0
M  V30 82 H 0.637511 2.084978 1.504864 0
M  V30 END ATOM
M  V30 BEGIN BOND
M  V30 1 1 1 2
M  V30 2 1 2 3
M  V30 3 1 3 4
M  V30 4 2 4 5
M  V30 5 1 4 6
M  V30 6 1 6 7
M  V30 7 1 6 8
M  V30 8 2 8 9
M  V30 9 1 9 10
M  V30 10 2 10 11
M  V30 11 1 11 12
M  V30 12 1 12 13
M  V30 13 2 13 14
M  V30 14 1 14 15
M  V30 15 2 15 16
M  V30 16 1 16 17
M  V30 17 2 17 18
M  V30 18 1 17 19
M  V30 19 1 19 20
M  V30 20 1 20 21
M  V30 21 1 21 22
M  V30 22 1 22 23
M  V30 23 1 23 24
M  V30 24 1 24 25
M  V30 25 1 25 26
M  V30 26 1 26 27
M  V30 27 1 16 28
M  V30 28 2 28 29
M  V30 29 1 29 30
M  V30 30 1 30 31
M  V30 31 1 31 32
M  V30 32 1 32 33
M  V30 33 1 11 34
M  V30 34 2 34 35
M  V30 35 1 35 36
M  V30 36 1 36 37
M  V30 37 1 37 38
M  V30 38 1 38 39
M  V30 39 1 39 40
M  V30 40 1 40 41
M  V30 41 1 36 3
M  V30 42 1 41 37
M  V30 43 1 35 8
M  V30 44 1 29 13
M  V30 45 1 27 22
M  V30 46 1 1 42
M  V30 47 1 1 43
M  V30 48 1 1 44
M  V30 49 1 2 45
M  V30 50 1 2 46
M  V30 51 1 3 47 CFG=1
M  V30 52 1 7 48
M  V30 53 1 7 49
M  V30 54 1 7 50
M  V30 55 1 9 51
M  V30 56 1 12 52
M  V30 57 1 14 53
M  V30 58 1 15 54
M  V30 59 1 19 55
M  V30 60 1 20 56
M  V30 61 1 20 57
M  V30 62 1 21 58
M  V30 63 1 21 59
M  V30 64 1 23 60
M  V30 65 1 23 61
M  V30 66 1 24 62
M  V30 67 1 24 63
M  V30 68 1 26 64
M  V30 69 1 26 65
M  V30 70 1 27 66
M  V30 71 1 27 67
M  V30 72 1 28 68
M  V30 73 1 31 69
M  V30 74 1 31 70
M  V30 75 1 32 71
M  V30 76 1 32 72
M  V30 77 1 33 73
M  V30 78 1 37 74
M  V30 79 1 38 75
M  V30 80 1 38 76
M  V30 81 1 39 77
M  V30 82 1 39 78
M  V30 83 1 40 79
M  V30 84 1 40 80
M  V30 85 1 41 81
M  V30 86 1 41 82
M  V30 END BOND
M  V30 END CTAB
M  END
>  <Dataset>  (134) 
ChEMBL_Kinases

>  <Ligand_Instance>  (134) 
nan

>  <PDB_ID>  (134) 
nan

>  <Standardized_SMILES>  (134) 
CC[C@@H]1C(=O)N(C)c2cnc(Nc3ccc(C(=O)NCCN4CCOCC4)cc3OCCO)nc2N1C1CCCC1

>  <Name>  (134) 
nan

>  <Pocket>  (134) 
nan

>  <ATP_Site>  (134) 
nan

>  <Peripheral>  (134) 
nan

>  <Num_H_Atoms_ProtBoundConf>  (134) 
nan

>  <Num_Resolved_Atoms>  (134) 
nan

>  <Num_Not_Resolved_Atoms>  (134) 
nan

$$$$
CHEMBL4531932
     RDKit          3D

  0  0  0  0  0  0  0  0  0  0999 V3000
M  V30 BEGIN CTAB
M  V30 COUNTS 76 80 0 0 0
M  V30 BEGIN ATOM
M  V30 1 C 5.732007 1.054065 -1.828191 0
M  V30 2 C 4.297156 1.242428 -1.328433 0
M  V30 3 C 4.421864 2.068151 -0.065530 0 CFG=2
M  V30 4 C 5.305086 1.215179 0.833154 0
M  V30 5 O 6.532231 1.470034 1.036923 0
M  V30 6 N 4.757204 0.078133 1.486002 0
M  V30 7 C 5.618513 -1.023990 1.907120 0
M  V30 8 C 3.351306 0.070960 1.705002 0
M  V30 9 C 2.830142 -1.026631 2.332498 0
M  V30 10 N 1.500393 -1.007737 2.525479 0
M  V30 11 C 0.734858 0.021088 2.128664 0
M  V30 12 N -0.664572 -0.048825 2.388777 0
M  V30 13 C -1.647212 -0.943174 1.831966 0
M  V30 14 C -1.041568 -1.867774 0.980883 0
M  V30 15 C -1.834617 -2.825106 0.374792 0
M  V30 16 C -3.177909 -2.870019 0.599491 0
M  V30 17 C -4.116446 -3.851283 0.019917 0
M  V30 18 O -5.350260 -3.870168 0.314328 0
M  V30 19 N -3.653486 -4.826453 -0.904900 0
M  V30 20 C -4.611669 -5.764458 -1.426480 0
M  V30 21 C -4.678981 -5.601361 -2.924507 0
M  V30 22 C -4.002669 -6.768634 -3.565297 0
M  V30 23 C -3.449718 -7.640903 -2.456323 0
M  V30 24 C -4.224427 -7.197933 -1.230122 0
M  V30 25 C -3.730529 -1.932024 1.451097 0
M  V30 26 C -3.027870 -0.946304 2.094290 0
M  V30 27 O -3.303299 0.052581 2.936118 0
M  V30 28 C -4.440579 0.520094 3.499086 0
M  V30 29 C -5.432831 1.095798 2.552127 0
M  V30 30 O -5.952317 0.315243 1.575282 0
M  V30 31 N 1.300738 1.076563 1.516509 0
M  V30 32 C 2.619425 1.189125 1.260342 0
M  V30 33 N 3.165613 2.356747 0.596096 0
M  V30 34 C 2.319936 3.485307 0.753419 0
M  V30 35 C 1.369971 3.887419 -0.287907 0
M  V30 36 C 2.114699 4.534043 -1.380853 0
M  V30 37 C 3.297767 5.160432 -0.663362 0
M  V30 38 C 3.211083 4.757994 0.768195 0
M  V30 39 H 6.122071 0.048091 -1.552128 0
M  V30 40 H 6.376639 1.853699 -1.418678 0
M  V30 41 H 5.798861 1.164055 -2.925086 0
M  V30 42 H 3.792531 0.305431 -1.123822 0
M  V30 43 H 3.807060 1.799697 -2.151811 0
M  V30 44 H 5.064046 2.968365 -0.213128 0
M  V30 45 H 5.307648 -1.956983 1.410899 0
M  V30 46 H 6.644056 -0.778767 1.601760 0
M  V30 47 H 5.615796 -1.098450 3.018980 0
M  V30 48 H 3.485707 -1.823622 2.636335 0
M  V30 49 H -1.014308 0.655493 3.088637 0
M  V30 50 H 0.004932 -1.914743 0.740042 0
M  V30 51 H -1.422881 -3.564546 -0.288852 0
M  V30 52 H -2.653612 -4.886734 -1.215740 0
M  V30 53 H -5.633112 -5.604707 -1.011986 0
M  V30 54 H -5.742644 -5.508068 -3.252030 0
M  V30 55 H -4.116607 -4.669834 -3.222020 0
M  V30 56 H -4.779768 -7.343272 -4.121716 0
M  V30 57 H -3.235383 -6.440290 -4.269384 0
M  V30 58 H -2.380837 -7.407749 -2.359039 0
M  V30 59 H -3.643867 -8.697246 -2.703827 0
M  V30 60 H -5.089567 -7.876877 -1.078953 0
M  V30 61 H -3.481507 -7.269457 -0.380069 0
M  V30 62 H -4.778110 -1.955625 1.663172 0
M  V30 63 H -4.912563 -0.307590 4.107235 0
M  V30 64 H -4.232311 1.369045 4.245703 0
M  V30 65 H -5.020765 2.023421 2.068849 0
M  V30 66 H -6.278877 1.484109 3.199267 0
M  V30 67 H -6.847863 -0.019103 1.816961 0
M  V30 68 H 1.869848 3.516682 1.799063 0
M  V30 69 H 0.580805 3.177847 -0.586763 0
M  V30 70 H 0.752245 4.736964 0.183001 0
M  V30 71 H 2.427970 3.730034 -2.102257 0
M  V30 72 H 1.517811 5.311126 -1.934411 0
M  V30 73 H 4.222333 4.889389 -1.196896 0
M  V30 74 H 3.220110 6.285786 -0.800675 0
M  V30 75 H 4.139042 4.628880 1.323077 0
M  V30 76 H 2.608642 5.557111 1.288092 0
M  V30 END ATOM
M  V30 BEGIN BOND
M  V30 1 1 1 2
M  V30 2 1 2 3
M  V30 3 1 3 4
M  V30 4 2 4 5
M  V30 5 1 4 6
M  V30 6 1 6 7
M  V30 7 1 6 8
M  V30 8 2 8 9
M  V30 9 1 9 10
M  V30 10 2 10 11
M  V30 11 1 11 12
M  V30 12 1 12 13
M  V30 13 2 13 14
M  V30 14 1 14 15
M  V30 15 2 15 16
M  V30 16 1 16 17
M  V30 17 2 17 18
M  V30 18 1 17 19
M  V30 19 1 19 20
M  V30 20 1 20 21
M  V30 21 1 21 22
M  V30 22 1 22 23
M  V30 23 1 23 24
M  V30 24 1 16 25
M  V30 25 2 25 26
M  V30 26 1 26 27
M  V30 27 1 27 28
M  V30 28 1 28 29
M  V30 29 1 29 30
M  V30 30 1 11 31
M  V30 31 2 31 32
M  V30 32 1 32 33
M  V30 33 1 33 34
M  V30 34 1 34 35
M  V30 35 1 35 36
M  V30 36 1 36 37
M  V30 37 1 37 38
M  V30 38 1 33 3
M  V30 39 1 38 34
M  V30 40 1 32 8
M  V30 41 1 26 13
M  V30 42 1 24 20
M  V30 43 1 1 39
M  V30 44 1 1 40
M  V30 45 1 1 41
M  V30 46 1 2 42
M  V30 47 1 2 43
M  V30 48 1 3 44 CFG=3
M  V30 49 1 7 45
M  V30 50 1 7 46
M  V30 51 1 7 47
M  V30 52 1 9 48
M  V30 53 1 12 49
M  V30 54 1 14 50
M  V30 55 1 15 51
M  V30 56 1 19 52
M  V30 57 1 20 53
M  V30 58 1 21 54
M  V30 59 1 21 55
M  V30 60 1 22 56
M  V30 61 1 22 57
M  V30 62 1 23 58
M  V30 63 1 23 59
M  V30 64 1 24 60
M  V30 65 1 24 61
M  V30 66 1 25 62
M  V30 67 1 28 63
M  V30 68 1 28 64
M  V30 69 1 29 65
M  V30 70 1 29 66
M  V30 71 1 30 67
M  V30 72 1 34 68
M  V30 73 1 35 69
M  V30 74 1 35 70
M  V30 75 1 36 71
M  V30 76 1 36 72
M  V30 77 1 37 73
M  V30 78 1 37 74
M  V30 79 1 38 75
M  V30 80 1 38 76
M  V30 END BOND
M  V30 END CTAB
M  END
>  <Dataset>  (135) 
ChEMBL_Kinases

>  <Ligand_Instance>  (135) 
nan

>  <PDB_ID>  (135) 
nan

>  <Standardized_SMILES>  (135) 
CC[C@@H]1C(=O)N(C)c2cnc(Nc3ccc(C(=O)NC4CCCC4)cc3OCCO)nc2N1C1CCCC1

>  <Name>  (135) 
nan

>  <Pocket>  (135) 
nan

>  <ATP_Site>  (135) 
nan

>  <Peripheral>  (135) 
nan

>  <Num_H_Atoms_ProtBoundConf>  (135) 
nan

>  <Num_Resolved_Atoms>  (135) 
nan

>  <Num_Not_Resolved_Atoms>  (135) 
nan

$$$$
CHEMBL4643246
     RDKit          3D

  0  0  0  0  0  0  0  0  0  0999 V3000
M  V30 BEGIN CTAB
M  V30 COUNTS 44 48 0 0 0
M  V30 BEGIN ATOM
M  V30 1 C 1.127772 -5.871575 3.266830 0
M  V30 2 C 1.098165 -4.855514 4.216770 0
M  V30 3 C 1.119411 -3.532842 3.760805 0
M  V30 4 C 1.168093 -3.319006 2.408952 0
M  V30 5 C 1.189361 -2.006375 1.947730 0
M  V30 6 C 1.237836 -1.813995 0.589827 0
M  V30 7 C 1.261612 -0.463753 0.036676 0
M  V30 8 N 2.275371 0.045757 -0.688675 0
M  V30 9 N 2.229955 1.296344 -1.166139 0
M  V30 10 C 1.171758 2.096702 -0.942537 0
M  V30 11 N 1.119784 3.429818 -1.448953 0
M  V30 12 C 0.155820 4.507912 -1.384687 0
M  V30 13 C 0.880458 5.264825 -2.447995 0
M  V30 14 C 1.985559 4.259604 -2.224335 0
M  V30 15 C 0.125795 1.587444 -0.200774 0
M  V30 16 C 0.138320 0.292510 0.311404 0
M  V30 17 C -1.029429 -0.119279 1.077656 0
M  V30 18 C -1.907232 -1.147646 0.770663 0
M  V30 19 C -2.973173 -1.415134 1.602816 0
M  V30 20 N -3.206450 -0.705438 2.728189 0
M  V30 21 C -2.342954 0.305526 3.029497 0
M  V30 22 C -1.257905 0.618755 2.232669 0
M  V30 23 C 1.267311 -2.817540 -0.357356 0
M  V30 24 C 1.245501 -4.126389 0.119027 0
M  V30 25 C 1.196861 -4.349827 1.478962 0
M  V30 26 C 1.176568 -5.651612 1.908338 0
M  V30 27 H 1.112645 -6.922148 3.584400 0
M  V30 28 H 1.059717 -5.062893 5.283121 0
M  V30 29 H 1.096607 -2.724159 4.496553 0
M  V30 30 H 1.169808 -1.151110 2.601439 0
M  V30 31 H -0.839549 4.112803 -1.673963 0
M  V30 32 H 0.162661 4.974252 -0.366521 0
M  V30 33 H 0.371339 5.202462 -3.443364 0
M  V30 34 H 1.128991 6.304952 -2.134264 0
M  V30 35 H 2.879042 4.665123 -1.695629 0
M  V30 36 H 2.272359 3.845783 -3.233357 0
M  V30 37 H -0.726376 2.235733 -0.021884 0
M  V30 38 H -1.661829 -1.672230 -0.139897 0
M  V30 39 H -3.625436 -2.245594 1.293144 0
M  V30 40 H -2.602969 0.825668 3.950949 0
M  V30 41 H -0.624618 1.454062 2.568975 0
M  V30 42 H 1.305681 -2.625557 -1.422971 0
M  V30 43 H 1.267258 -4.945809 -0.594902 0
M  V30 44 H 1.198388 -6.451429 1.200400 0
M  V30 END ATOM
M  V30 BEGIN BOND
M  V30 1 2 1 2
M  V30 2 1 2 3
M  V30 3 2 3 4
M  V30 4 1 4 5
M  V30 5 2 5 6
M  V30 6 1 6 7
M  V30 7 2 7 8
M  V30 8 1 8 9
M  V30 9 2 9 10
M  V30 10 1 10 11
M  V30 11 1 11 12
M  V30 12 1 12 13
M  V30 13 1 13 14
M  V30 14 1 10 15
M  V30 15 2 15 16
M  V30 16 1 16 17
M  V30 17 2 17 18
M  V30 18 1 18 19
M  V30 19 2 19 20
M  V30 20 1 20 21
M  V30 21 2 21 22
M  V30 22 1 6 23
M  V30 23 2 23 24
M  V30 24 1 24 25
M  V30 25 2 25 26
M  V30 26 1 26 1
M  V30 27 1 25 4
M  V30 28 1 16 7
M  V30 29 1 22 17
M  V30 30 1 14 11
M  V30 31 1 1 27
M  V30 32 1 2 28
M  V30 33 1 3 29
M  V30 34 1 5 30
M  V30 35 1 12 31
M  V30 36 1 12 32
M  V30 37 1 13 33
M  V30 38 1 13 34
M  V30 39 1 14 35
M  V30 40 1 14 36
M  V30 41 1 15 37
M  V30 42 1 18 38
M  V30 43 1 19 39
M  V30 44 1 21 40
M  V30 45 1 22 41
M  V30 46 1 23 42
M  V30 47 1 24 43
M  V30 48 1 26 44
M  V30 END BOND
M  V30 END CTAB
M  END
>  <Dataset>  (136) 
ChEMBL_Kinases

>  <Ligand_Instance>  (136) 
nan

>  <PDB_ID>  (136) 
nan

>  <Standardized_SMILES>  (136) 
c1ccc2cc(-c3nnc(N4CCC4)cc3-c3ccncc3)ccc2c1

>  <Name>  (136) 
nan

>  <Pocket>  (136) 
nan

>  <ATP_Site>  (136) 
nan

>  <Peripheral>  (136) 
nan

>  <Num_H_Atoms_ProtBoundConf>  (136) 
nan

>  <Num_Resolved_Atoms>  (136) 
nan

>  <Num_Not_Resolved_Atoms>  (136) 
nan

$$$$
CHEMBL4643057
     RDKit          3D

  0  0  0  0  0  0  0  0  0  0999 V3000
M  V30 BEGIN CTAB
M  V30 COUNTS 52 54 0 0 0
M  V30 BEGIN ATOM
M  V30 1 C 2.358990 -2.794401 -4.975820 0
M  V30 2 C 3.501825 -2.679511 -4.286285 0
M  V30 3 C 3.415860 -1.324871 -3.727416 0
M  V30 4 O 2.357862 -0.752511 -4.061752 0
M  V30 5 N 4.385630 -0.696062 -2.904024 0
M  V30 6 C 3.995643 0.628060 -2.528578 0
M  V30 7 C 4.344462 1.702770 -3.310408 0
M  V30 8 C 3.955589 2.948329 -2.920271 0
M  V30 9 C 3.217227 3.128578 -1.748992 0
M  V30 10 C 2.854059 2.072281 -0.947222 0
M  V30 11 C 2.083399 2.331423 0.263529 0
M  V30 12 O 1.810363 3.544157 0.486259 0
M  V30 13 N 1.720973 1.241951 1.056207 0
M  V30 14 C 0.938849 1.298993 2.324807 0
M  V30 15 N 1.288218 1.413470 3.478507 0
M  V30 16 C 0.418402 1.441722 4.470696 0
M  V30 17 C -0.927497 1.339196 4.200799 0
M  V30 18 S -2.152831 1.372062 5.559801 0
M  V30 19 C -2.419820 -0.363569 6.094605 0
M  V30 20 C -3.076162 -1.060685 4.941384 0
M  V30 21 N -4.413540 -1.137640 4.764924 0
M  V30 22 C -4.611866 -1.836795 3.625936 0
M  V30 23 C -3.381259 -2.176692 3.123602 0
M  V30 24 C -3.259246 -2.956256 1.866583 0
M  V30 25 C -4.628131 -3.272778 1.311729 0
M  V30 26 C -2.574754 -2.104857 0.788665 0
M  V30 27 C -2.473086 -4.232953 2.027941 0
M  V30 28 O -2.496976 -1.698880 3.931292 0
M  V30 29 S -0.844028 1.191302 2.312087 0
M  V30 30 C 3.268423 0.830491 -1.379920 0
M  V30 31 H 1.393962 -2.506429 -5.385637 0
M  V30 32 H 1.384973 -2.494988 -5.385550 0
M  V30 33 H 3.868960 -3.662763 -4.521743 0
M  V30 34 H 5.229566 -1.311021 -2.708338 0
M  V30 35 H 4.923780 1.477306 -4.212538 0
M  V30 36 H 4.230504 3.793562 -3.536381 0
M  V30 37 H 2.954859 4.141636 -1.519768 0
M  V30 38 H 1.919301 0.253588 0.912894 0
M  V30 39 H 0.891111 1.550423 5.462124 0
M  V30 40 H -1.478873 -0.881931 6.303620 0
M  V30 41 H -3.119104 -0.324843 6.940846 0
M  V30 42 H -5.647210 -1.989973 3.337565 0
M  V30 43 H -5.142974 -4.087525 1.858838 0
M  V30 44 H -4.493433 -3.546376 0.244127 0
M  V30 45 H -5.234803 -2.338302 1.342292 0
M  V30 46 H -2.199396 -2.740370 -0.032022 0
M  V30 47 H -1.682436 -1.621438 1.247389 0
M  V30 48 H -3.230363 -1.271844 0.461952 0
M  V30 49 H -2.897627 -4.961835 1.293449 0
M  V30 50 H -2.586369 -4.663959 3.029158 0
M  V30 51 H -1.380817 -4.079048 1.792719 0
M  V30 52 H 3.004150 -0.026736 -0.779970 0
M  V30 END ATOM
M  V30 BEGIN BOND
M  V30 1 2 1 2
M  V30 2 1 2 3
M  V30 3 2 3 4
M  V30 4 1 3 5
M  V30 5 1 5 6
M  V30 6 2 6 7
M  V30 7 1 7 8
M  V30 8 2 8 9
M  V30 9 1 9 10
M  V30 10 1 10 11
M  V30 11 2 11 12
M  V30 12 1 11 13
M  V30 13 1 13 14
M  V30 14 2 14 15
M  V30 15 1 15 16
M  V30 16 2 16 17
M  V30 17 1 17 18
M  V30 18 1 18 19
M  V30 19 1 19 20
M  V30 20 2 20 21
M  V30 21 1 21 22
M  V30 22 2 22 23
M  V30 23 1 23 24
M  V30 24 1 24 25
M  V30 25 1 24 26
M  V30 26 1 24 27
M  V30 27 1 23 28
M  V30 28 1 17 29
M  V30 29 2 10 30
M  V30 30 1 30 6
M  V30 31 1 29 14
M  V30 32 1 28 20
M  V30 33 1 1 31
M  V30 34 1 1 32
M  V30 35 1 2 33
M  V30 36 1 5 34
M  V30 37 1 7 35
M  V30 38 1 8 36
M  V30 39 1 9 37
M  V30 40 1 13 38
M  V30 41 1 16 39
M  V30 42 1 19 40
M  V30 43 1 19 41
M  V30 44 1 22 42
M  V30 45 1 25 43
M  V30 46 1 25 44
M  V30 47 1 25 45
M  V30 48 1 26 46
M  V30 49 1 26 47
M  V30 50 1 26 48
M  V30 51 1 27 49
M  V30 52 1 27 50
M  V30 53 1 27 51
M  V30 54 1 30 52
M  V30 END BOND
M  V30 END CTAB
M  END
>  <Dataset>  (137) 
ChEMBL_Kinases

>  <Ligand_Instance>  (137) 
nan

>  <PDB_ID>  (137) 
nan

>  <Standardized_SMILES>  (137) 
C=CC(=O)Nc1cccc(C(=O)Nc2ncc(SCc3ncc(C(C)(C)C)o3)s2)c1

>  <Name>  (137) 
nan

>  <Pocket>  (137) 
nan

>  <ATP_Site>  (137) 
nan

>  <Peripheral>  (137) 
nan

>  <Num_H_Atoms_ProtBoundConf>  (137) 
nan

>  <Num_Resolved_Atoms>  (137) 
nan

>  <Num_Not_Resolved_Atoms>  (137) 
nan

$$$$
CHEMBL2312649
     RDKit          3D

  0  0  0  0  0  0  0  0  0  0999 V3000
M  V30 BEGIN CTAB
M  V30 COUNTS 70 73 0 0 0
M  V30 BEGIN ATOM
M  V30 1 C 3.613422 2.710275 3.910385 0
M  V30 2 N 4.827315 1.998926 3.636169 0
M  V30 3 C 4.515939 0.632225 3.314033 0
M  V30 4 C 5.247793 0.176447 2.068999 0
M  V30 5 C 4.862755 1.119855 0.904409 0
M  V30 6 N 3.413386 1.143522 0.770968 0
M  V30 7 C 2.650524 0.200435 0.064693 0
M  V30 8 O 3.400239 -0.714070 -0.442877 0
M  V30 9 C 1.206060 0.201374 -0.099609 0
M  V30 10 C 0.664794 1.446233 0.175603 0
M  V30 11 N -0.676084 1.647657 0.007797 0
M  V30 12 C -1.479845 0.658820 -0.419601 0
M  V30 13 N -2.874933 0.810614 -0.612792 0
M  V30 14 C -3.769973 1.436467 0.295113 0
M  V30 15 C -3.423063 1.778421 1.572402 0
M  V30 16 C -4.264276 2.396826 2.467451 0
M  V30 17 Cl -3.759594 2.804615 4.083176 0
M  V30 18 C -5.520318 2.671285 2.015396 0
M  V30 19 C -5.948427 2.356230 0.731199 0
M  V30 20 Cl -7.527651 2.679211 0.053153 0
M  V30 21 C -5.071753 1.735049 -0.136820 0
M  V30 22 N -0.905919 -0.517034 -0.667092 0
M  V30 23 C 0.391597 -0.803618 -0.531256 0
M  V30 24 N 0.956491 -2.082363 -0.762013 0
M  V30 25 C -0.024027 -3.078161 -1.167747 0
M  V30 26 C -0.604654 -2.705549 -2.485627 0
M  V30 27 C -1.889058 -3.392686 -2.842610 0
M  V30 28 C -2.212388 -4.502027 -1.831925 0
M  V30 29 N -3.389311 -5.178672 -2.269259 0
M  V30 30 C -3.718329 -6.222396 -1.316664 0
M  V30 31 C -4.530321 -4.300200 -2.400065 0
M  V30 32 C -2.391352 -3.738976 -0.519452 0
M  V30 33 C -1.022950 -3.322807 -0.059408 0
M  V30 34 C 5.303519 2.491879 1.323706 0
M  V30 35 C 5.707821 2.654728 2.744978 0
M  V30 36 H 2.708690 2.122279 3.606242 0
M  V30 37 H 3.532392 2.832945 5.032383 0
M  V30 38 H 3.602427 3.742927 3.509114 0
M  V30 39 H 4.883517 -0.025639 4.141791 0
M  V30 40 H 3.423762 0.413279 3.260177 0
M  V30 41 H 4.977918 -0.854340 1.843216 0
M  V30 42 H 6.323198 0.370453 2.217058 0
M  V30 43 H 5.376276 0.677330 0.030564 0
M  V30 44 H 2.872640 1.921435 1.234214 0
M  V30 45 H 1.069726 2.390667 0.520430 0
M  V30 46 H -3.261478 0.417120 -1.524456 0
M  V30 47 H -2.397132 1.517897 1.840262 0
M  V30 48 H -6.264037 3.146514 2.629861 0
M  V30 49 H -5.316330 1.454625 -1.147152 0
M  V30 50 H 1.941935 -2.380079 -0.674636 0
M  V30 51 H 0.516844 -4.044210 -1.288063 0
M  V30 52 H -0.638126 -1.613937 -2.698567 0
M  V30 53 H 0.143304 -3.081575 -3.263882 0
M  V30 54 H -2.690850 -2.614568 -2.654823 0
M  V30 55 H -1.995488 -3.713489 -3.871514 0
M  V30 56 H -1.342651 -5.173673 -1.692927 0
M  V30 57 H -4.474343 -6.928791 -1.758192 0
M  V30 58 H -2.841427 -6.722982 -0.888968 0
M  V30 59 H -4.233532 -5.711707 -0.465462 0
M  V30 60 H -4.532199 -3.696174 -3.326730 0
M  V30 61 H -5.450942 -4.947430 -2.481542 0
M  V30 62 H -4.684385 -3.670752 -1.492566 0
M  V30 63 H -2.857924 -4.422475 0.243750 0
M  V30 64 H -3.005510 -2.825594 -0.677911 0
M  V30 65 H -0.666349 -4.152374 0.628996 0
M  V30 66 H -1.161209 -2.467486 0.626961 0
M  V30 67 H 6.069751 2.871149 0.606027 0
M  V30 68 H 4.419490 3.197744 1.172376 0
M  V30 69 H 5.698261 3.775319 2.933003 0
M  V30 70 H 6.778120 2.368733 2.874656 0
M  V30 END ATOM
M  V30 BEGIN BOND
M  V30 1 1 1 2
M  V30 2 1 2 3
M  V30 3 1 3 4
M  V30 4 1 4 5
M  V30 5 1 5 6
M  V30 6 1 6 7
M  V30 7 2 7 8
M  V30 8 1 7 9
M  V30 9 2 9 10
M  V30 10 1 10 11
M  V30 11 2 11 12
M  V30 12 1 12 13
M  V30 13 1 13 14
M  V30 14 2 14 15
M  V30 15 1 15 16
M  V30 16 1 16 17
M  V30 17 2 16 18
M  V30 18 1 18 19
M  V30 19 1 19 20
M  V30 20 2 19 21
M  V30 21 1 12 22
M  V30 22 2 22 23
M  V30 23 1 23 24
M  V30 24 1 24 25
M  V30 25 1 25 26
M  V30 26 1 26 27
M  V30 27 1 27 28
M  V30 28 1 28 29
M  V30 29 1 29 30
M  V30 30 1 29 31
M  V30 31 1 28 32
M  V30 32 1 32 33
M  V30 33 1 5 34
M  V30 34 1 34 35
M  V30 35 1 35 2
M  V30 36 1 23 9
M  V30 37 1 33 25
M  V30 38 1 21 14
M  V30 39 1 1 36
M  V30 40 1 1 37
M  V30 41 1 1 38
M  V30 42 1 3 39
M  V30 43 1 3 40
M  V30 44 1 4 41
M  V30 45 1 4 42
M  V30 46 1 5 43
M  V30 47 1 6 44
M  V30 48 1 10 45
M  V30 49 1 13 46
M  V30 50 1 15 47
M  V30 51 1 18 48
M  V30 52 1 21 49
M  V30 53 1 24 50
M  V30 54 1 25 51
M  V30 55 1 26 52
M  V30 56 1 26 53
M  V30 57 1 27 54
M  V30 58 1 27 55
M  V30 59 1 28 56
M  V30 60 1 30 57
M  V30 61 1 30 58
M  V30 62 1 30 59
M  V30 63 1 31 60
M  V30 64 1 31 61
M  V30 65 1 31 62
M  V30 66 1 32 63
M  V30 67 1 32 64
M  V30 68 1 33 65
M  V30 69 1 33 66
M  V30 70 1 34 67
M  V30 71 1 34 68
M  V30 72 1 35 69
M  V30 73 1 35 70
M  V30 END BOND
M  V30 END CTAB
M  END
>  <Dataset>  (138) 
ChEMBL_Kinases

>  <Ligand_Instance>  (138) 
nan

>  <PDB_ID>  (138) 
nan

>  <Standardized_SMILES>  (138) 
CN1CCC(NC(=O)c2cnc(Nc3cc(Cl)cc(Cl)c3)nc2NC2CCC(N(C)C)CC2)CC1

>  <Name>  (138) 
nan

>  <Pocket>  (138) 
nan

>  <ATP_Site>  (138) 
nan

>  <Peripheral>  (138) 
nan

>  <Num_H_Atoms_ProtBoundConf>  (138) 
nan

>  <Num_Resolved_Atoms>  (138) 
nan

>  <Num_Not_Resolved_Atoms>  (138) 
nan

$$$$
CHEMBL2312304
     RDKit          3D

  0  0  0  0  0  0  0  0  0  0999 V3000
M  V30 BEGIN CTAB
M  V30 COUNTS 62 65 0 0 0
M  V30 BEGIN ATOM
M  V30 1 O 2.287385 -0.921980 0.034563 0
M  V30 2 C 1.587031 -1.409995 0.954704 0
M  V30 3 N 2.311929 -1.320968 2.153866 0
M  V30 4 C 3.551939 -0.859595 2.663499 0
M  V30 5 C 3.861274 0.590574 2.631034 0
M  V30 6 C 3.876887 1.301133 1.331490 0
M  V30 7 N 4.278885 2.704913 1.557790 0
M  V30 8 C 3.581482 3.968203 1.837740 0
M  V30 9 C 4.425913 5.017541 1.154373 0
M  V30 10 O 5.737369 4.499480 1.273663 0
M  V30 11 C 5.659168 3.117262 1.527889 0
M  V30 12 O 6.640435 2.318889 1.709494 0
M  V30 13 C 0.260842 -1.961108 0.768626 0
M  V30 14 C -0.432534 -2.531939 1.802881 0
M  V30 15 N -1.657437 -3.056784 1.625824 0
M  V30 16 C -2.213440 -3.018498 0.400920 0
M  V30 17 N -3.496706 -3.583121 0.210560 0
M  V30 18 C -4.843044 -3.089825 0.441435 0
M  V30 19 C -4.942780 -2.859263 1.917078 0
M  V30 20 C -4.925095 -1.708962 2.672391 0
M  V30 21 C -5.039955 -1.794983 4.039960 0
M  V30 22 Cl -5.008112 -0.286436 4.899861 0
M  V30 23 C -5.175156 -3.011518 4.706365 0
M  V30 24 C -5.192317 -4.162388 3.943016 0
M  V30 25 C -5.077005 -4.097514 2.549653 0
M  V30 26 Cl -5.122493 -5.684866 1.793124 0
M  V30 27 N -1.518352 -2.456771 -0.591027 0
M  V30 28 C -0.293342 -1.915735 -0.482925 0
M  V30 29 N 0.296229 -1.363848 -1.645506 0
M  V30 30 C -0.411524 -1.396643 -2.878718 0
M  V30 31 C 0.266886 -0.819227 -4.070858 0
M  V30 32 C -0.859725 -0.774274 -5.098658 0
M  V30 33 C -2.156603 -0.714523 -4.280034 0
M  V30 34 C -1.673443 -0.523574 -2.842525 0
M  V30 35 H 1.712002 -1.749204 2.937379 0
M  V30 36 H 4.430257 -1.366652 2.150034 0
M  V30 37 H 3.708109 -1.195117 3.736417 0
M  V30 38 H 3.196628 1.142298 3.368048 0
M  V30 39 H 4.896707 0.750570 3.084384 0
M  V30 40 H 2.831162 1.427346 0.906179 0
M  V30 41 H 4.494978 0.876286 0.538214 0
M  V30 42 H 2.641359 3.896014 1.247140 0
M  V30 43 H 3.434794 4.153905 2.902648 0
M  V30 44 H 4.277989 5.993876 1.636374 0
M  V30 45 H 4.133177 5.109642 0.068132 0
M  V30 46 H -0.068764 -2.606527 2.812270 0
M  V30 47 H -3.384160 -4.559678 -0.180100 0
M  V30 48 H -5.003425 -2.114080 -0.064818 0
M  V30 49 H -5.597583 -3.790128 0.065663 0
M  V30 50 H -4.817784 -0.849932 2.046311 0
M  V30 51 H -5.262477 -3.035081 5.778074 0
M  V30 52 H -5.299181 -5.082319 4.514637 0
M  V30 53 H 1.192828 -0.898382 -1.852046 0
M  V30 54 H -0.769990 -2.423402 -3.170020 0
M  V30 55 H 0.542405 0.258494 -3.881004 0
M  V30 56 H 1.133944 -1.399270 -4.452684 0
M  V30 57 H -0.770388 0.082116 -5.796715 0
M  V30 58 H -0.851611 -1.745799 -5.653333 0
M  V30 59 H -2.682983 -1.690308 -4.305924 0
M  V30 60 H -2.809913 0.119393 -4.617133 0
M  V30 61 H -2.394985 -0.831712 -2.092189 0
M  V30 62 H -1.298866 0.511754 -2.753777 0
M  V30 END ATOM
M  V30 BEGIN BOND
M  V30 1 2 1 2
M  V30 2 1 2 3
M  V30 3 1 3 4
M  V30 4 1 4 5
M  V30 5 1 5 6
M  V30 6 1 6 7
M  V30 7 1 7 8
M  V30 8 1 8 9
M  V30 9 1 9 10
M  V30 10 1 10 11
M  V30 11 2 11 12
M  V30 12 1 2 13
M  V30 13 2 13 14
M  V30 14 1 14 15
M  V30 15 2 15 16
M  V30 16 1 16 17
M  V30 17 1 17 18
M  V30 18 1 18 19
M  V30 19 2 19 20
M  V30 20 1 20 21
M  V30 21 1 21 22
M  V30 22 2 21 23
M  V30 23 1 23 24
M  V30 24 2 24 25
M  V30 25 1 25 26
M  V30 26 1 16 27
M  V30 27 2 27 28
M  V30 28 1 28 29
M  V30 29 1 29 30
M  V30 30 1 30 31
M  V30 31 1 31 32
M  V30 32 1 32 33
M  V30 33 1 33 34
M  V30 34 1 11 7
M  V30 35 1 28 13
M  V30 36 1 34 30
M  V30 37 1 25 19
M  V30 38 1 3 35
M  V30 39 1 4 36
M  V30 40 1 4 37
M  V30 41 1 5 38
M  V30 42 1 5 39
M  V30 43 1 6 40
M  V30 44 1 6 41
M  V30 45 1 8 42
M  V30 46 1 8 43
M  V30 47 1 9 44
M  V30 48 1 9 45
M  V30 49 1 14 46
M  V30 50 1 17 47
M  V30 51 1 18 48
M  V30 52 1 18 49
M  V30 53 1 20 50
M  V30 54 1 23 51
M  V30 55 1 24 52
M  V30 56 1 29 53
M  V30 57 1 30 54
M  V30 58 1 31 55
M  V30 59 1 31 56
M  V30 60 1 32 57
M  V30 61 1 32 58
M  V30 62 1 33 59
M  V30 63 1 33 60
M  V30 64 1 34 61
M  V30 65 1 34 62
M  V30 END BOND
M  V30 END CTAB
M  END
>  <Dataset>  (139) 
ChEMBL_Kinases

>  <Ligand_Instance>  (139) 
nan

>  <PDB_ID>  (139) 
nan

>  <Standardized_SMILES>  (139) 
O=C(NCCCN1CCOC1=O)c1cnc(NCc2cc(Cl)ccc2Cl)nc1NC1CCCC1

>  <Name>  (139) 
nan

>  <Pocket>  (139) 
nan

>  <ATP_Site>  (139) 
nan

>  <Peripheral>  (139) 
nan

>  <Num_H_Atoms_ProtBoundConf>  (139) 
nan

>  <Num_Resolved_Atoms>  (139) 
nan

>  <Num_Not_Resolved_Atoms>  (139) 
nan

$$$$
CHEMBL2321962
     RDKit          3D

  0  0  0  0  0  0  0  0  0  0999 V3000
M  V30 BEGIN CTAB
M  V30 COUNTS 35 38 0 0 0
M  V30 BEGIN ATOM
M  V30 1 O 1.039239 -2.301480 -2.335256 0
M  V30 2 C 1.720303 -2.179684 -1.306679 0
M  V30 3 N 2.987295 -2.799813 -1.142617 0
M  V30 4 C 3.431108 -2.407583 0.174054 0
M  V30 5 C 4.655100 -2.821416 0.715295 0
M  V30 6 Br 5.881613 -3.933976 -0.184254 0
M  V30 7 C 4.983119 -2.394312 1.971926 0
M  V30 8 C 4.074849 -1.568638 2.641755 0
M  V30 9 C 2.899093 -1.218745 2.023435 0
M  V30 10 C 2.512849 -1.599558 0.796024 0
M  V30 11 C 1.428703 -1.432961 -0.096507 0
M  V30 12 C 0.354909 -0.737079 0.116324 0
M  V30 13 N -0.718148 -0.570822 -0.764275 0
M  V30 14 C -1.759365 0.251551 -0.252923 0
M  V30 15 C -2.956079 0.636825 -0.822054 0
M  V30 16 C -3.746853 1.449930 -0.044136 0
M  V30 17 C -5.019084 1.879797 -0.607282 0
M  V30 18 O -5.853202 2.617198 -0.035212 0
M  V30 19 O -5.448418 1.504587 -1.872323 0
M  V30 20 C -3.404034 1.870069 1.215011 0
M  V30 21 C -2.196405 1.441247 1.706616 0
M  V30 22 C -1.305605 0.617367 1.020542 0
M  V30 23 C -0.008769 0.023552 1.273024 0
M  V30 24 N 0.518869 0.262532 2.368701 0
M  V30 25 O 0.084868 1.003118 3.403764 0
M  V30 26 H 3.452246 -3.402342 -1.857123 0
M  V30 27 H 5.910721 -2.691132 2.416820 0
M  V30 28 H 4.418135 -1.272462 3.645289 0
M  V30 29 H 2.367042 -0.608563 2.677214 0
M  V30 30 H -0.758502 -1.007163 -1.711854 0
M  V30 31 H -3.233130 0.310722 -1.811882 0
M  V30 32 H -6.436578 1.327678 -2.107254 0
M  V30 33 H -4.058754 2.510672 1.791715 0
M  V30 34 H -1.956750 1.789746 2.700057 0
M  V30 35 H 0.033779 0.579682 4.323357 0
M  V30 END ATOM
M  V30 BEGIN BOND
M  V30 1 2 1 2
M  V30 2 1 2 3
M  V30 3 1 3 4
M  V30 4 2 4 5
M  V30 5 1 5 6
M  V30 6 1 5 7
M  V30 7 2 7 8
M  V30 8 1 8 9
M  V30 9 2 9 10
M  V30 10 1 10 11
M  V30 11 2 11 12
M  V30 12 1 12 13
M  V30 13 1 13 14
M  V30 14 2 14 15
M  V30 15 1 15 16
M  V30 16 1 16 17
M  V30 17 2 17 18
M  V30 18 1 17 19
M  V30 19 2 16 20
M  V30 20 1 20 21
M  V30 21 2 21 22
M  V30 22 1 22 23
M  V30 23 2 23 24
M  V30 24 1 24 25
M  V30 25 1 11 2
M  V30 26 1 23 12
M  V30 27 1 10 4
M  V30 28 1 22 14
M  V30 29 1 3 26
M  V30 30 1 7 27
M  V30 31 1 8 28
M  V30 32 1 9 29
M  V30 33 1 13 30
M  V30 34 1 15 31
M  V30 35 1 19 32
M  V30 36 1 20 33
M  V30 37 1 21 34
M  V30 38 1 25 35
M  V30 END BOND
M  V30 END CTAB
M  END
>  <Dataset>  (140) 
ChEMBL_Kinases

>  <Ligand_Instance>  (140) 
nan

>  <PDB_ID>  (140) 
nan

>  <Standardized_SMILES>  (140) 
O=C1Nc2c(Br)cccc2/C1=C1/Nc2cc(C(=O)O)ccc2/C1=N\O

>  <Name>  (140) 
nan

>  <Pocket>  (140) 
nan

>  <ATP_Site>  (140) 
nan

>  <Peripheral>  (140) 
nan

>  <Num_H_Atoms_ProtBoundConf>  (140) 
nan

>  <Num_Resolved_Atoms>  (140) 
nan

>  <Num_Not_Resolved_Atoms>  (140) 
nan

$$$$
CHEMBL2048865
     RDKit          3D

  0  0  0  0  0  0  0  0  0  0999 V3000
M  V30 BEGIN CTAB
M  V30 COUNTS 38 40 0 0 0
M  V30 BEGIN ATOM
M  V30 1 N -1.537382 -2.622311 3.449988 0
M  V30 2 C -1.545383 -2.353611 2.015066 0 CFG=2
M  V30 3 C -0.749371 -3.439973 1.317520 0
M  V30 4 C 0.696993 -2.968882 1.137364 0
M  V30 5 C 0.796101 -1.726884 0.302147 0
M  V30 6 N -0.332829 -0.811098 0.513875 0
M  V30 7 C -0.583106 0.030949 -0.609187 0
M  V30 8 C -1.801476 -0.172333 -1.232060 0
M  V30 9 C -2.071910 0.581658 -2.348889 0
M  V30 10 C -1.167190 1.501274 -2.827565 0
M  V30 11 C 0.044910 1.658488 -2.152412 0
M  V30 12 C 0.363252 0.925345 -1.025137 0
M  V30 13 C 1.632145 1.238945 -0.409275 0
M  V30 14 C 1.917073 1.588754 0.807436 0
M  V30 15 S 0.925825 1.857021 2.300248 0
M  V30 16 C 2.307169 1.549126 3.433692 0
M  V30 17 O 1.932080 1.192330 4.574039 0
M  V30 18 N 3.432172 1.820659 2.635911 0
M  V30 19 C 3.261936 1.848921 1.256061 0
M  V30 20 O 4.264415 2.092552 0.501196 0
M  V30 21 C -0.929171 -0.997508 1.825892 0
M  V30 22 H -2.240724 -3.324582 3.742887 0
M  V30 23 H -0.551425 -2.912790 3.719558 0
M  V30 24 H -2.593100 -2.389149 1.668772 0
M  V30 25 H -1.166212 -3.699728 0.324752 0
M  V30 26 H -0.689410 -4.344056 1.946489 0
M  V30 27 H 1.213842 -3.788007 0.606902 0
M  V30 28 H 1.184726 -2.882943 2.121375 0
M  V30 29 H 0.859113 -1.994830 -0.784916 0
M  V30 30 H 1.768646 -1.256824 0.537828 0
M  V30 31 H -2.513205 -0.890484 -0.862344 0
M  V30 32 H -3.011138 0.445909 -2.856176 0
M  V30 33 H -1.363159 2.090458 -3.689033 0
M  V30 34 H 0.727208 2.389082 -2.562710 0
M  V30 35 H 2.438738 1.139622 -1.155686 0
M  V30 36 H 4.315487 1.976469 3.201156 0
M  V30 37 H -0.091943 -0.934008 2.579491 0
M  V30 38 H -1.668979 -0.238693 2.077927 0
M  V30 END ATOM
M  V30 BEGIN BOND
M  V30 1 1 1 2
M  V30 2 1 2 3
M  V30 3 1 3 4
M  V30 4 1 4 5
M  V30 5 1 5 6
M  V30 6 1 6 7
M  V30 7 2 7 8
M  V30 8 1 8 9
M  V30 9 2 9 10
M  V30 10 1 10 11
M  V30 11 2 11 12
M  V30 12 1 12 13
M  V30 13 2 13 14
M  V30 14 1 14 15
M  V30 15 1 15 16
M  V30 16 2 16 17
M  V30 17 1 16 18
M  V30 18 1 18 19
M  V30 19 2 19 20
M  V30 20 1 6 21
M  V30 21 1 21 2
M  V30 22 1 12 7
M  V30 23 1 19 14
M  V30 24 1 1 22
M  V30 25 1 1 23
M  V30 26 1 2 24 CFG=3
M  V30 27 1 3 25
M  V30 28 1 3 26
M  V30 29 1 4 27
M  V30 30 1 4 28
M  V30 31 1 5 29
M  V30 32 1 5 30
M  V30 33 1 8 31
M  V30 34 1 9 32
M  V30 35 1 10 33
M  V30 36 1 11 34
M  V30 37 1 13 35
M  V30 38 1 18 36
M  V30 39 1 21 37
M  V30 40 1 21 38
M  V30 END BOND
M  V30 END CTAB
M  END
>  <Dataset>  (141) 
ChEMBL_Kinases

>  <Ligand_Instance>  (141) 
nan

>  <PDB_ID>  (141) 
nan

>  <Standardized_SMILES>  (141) 
N[C@@H]1CCCN(c2ccccc2/C=C2\SC(=O)NC2=O)C1

>  <Name>  (141) 
nan

>  <Pocket>  (141) 
nan

>  <ATP_Site>  (141) 
nan

>  <Peripheral>  (141) 
nan

>  <Num_H_Atoms_ProtBoundConf>  (141) 
nan

>  <Num_Resolved_Atoms>  (141) 
nan

>  <Num_Not_Resolved_Atoms>  (141) 
nan

$$$$
CHEMBL2048866
     RDKit          3D

  0  0  0  0  0  0  0  0  0  0999 V3000
M  V30 BEGIN CTAB
M  V30 COUNTS 38 40 0 0 0
M  V30 BEGIN ATOM
M  V30 1 N 0.343512 -2.494634 3.585221 0
M  V30 2 C 0.069511 -1.976663 2.229730 0 CFG=2
M  V30 3 C 0.192682 -3.182784 1.290004 0
M  V30 4 C 1.595563 -3.146948 0.783071 0
M  V30 5 C 1.852263 -1.918440 -0.094881 0
M  V30 6 N 1.326748 -0.710752 0.492235 0
M  V30 7 C 1.255617 0.468633 -0.291063 0
M  V30 8 C 1.855497 0.551786 -1.522644 0
M  V30 9 Cl 2.791182 -0.690775 -2.319127 0
M  V30 10 C 1.816423 1.679582 -2.313311 0
M  V30 11 C 1.149051 2.839456 -1.903908 0
M  V30 12 C 0.527589 2.781494 -0.653675 0
M  V30 13 C 0.608641 1.615074 0.079345 0
M  V30 14 C -0.233739 1.749312 1.258258 0
M  V30 15 C -1.288126 0.946240 1.164225 0
M  V30 16 S -1.689152 -0.181021 -0.199403 0
M  V30 17 C -3.386059 -0.493835 0.358342 0
M  V30 18 O -4.283059 -1.061084 -0.314733 0
M  V30 19 N -3.471832 0.027042 1.678953 0
M  V30 20 C -2.388025 0.787386 2.133919 0
M  V30 21 O -2.310763 1.316837 3.276386 0
M  V30 22 C 1.046505 -0.916608 1.876513 0
M  V30 23 H -0.137360 -3.417244 3.637485 0
M  V30 24 H 1.347152 -2.512819 3.787050 0
M  V30 25 H -0.988649 -1.708434 2.253453 0
M  V30 26 H -0.497847 -3.077058 0.431260 0
M  V30 27 H 0.037123 -4.101826 1.860952 0
M  V30 28 H 2.295414 -3.136971 1.624209 0
M  V30 29 H 1.839072 -4.048426 0.161001 0
M  V30 30 H 2.952388 -1.891921 -0.189855 0
M  V30 31 H 1.306118 -2.071362 -1.063546 0
M  V30 32 H 2.269345 1.806900 -3.293142 0
M  V30 33 H 1.106315 3.739627 -2.507325 0
M  V30 34 H 0.023047 3.694067 -0.369420 0
M  V30 35 H -0.103926 2.382045 2.132229 0
M  V30 36 H -4.324945 -0.174644 2.247819 0
M  V30 37 H 0.915519 0.005956 2.470088 0
M  V30 38 H 2.055924 -1.298319 2.306468 0
M  V30 END ATOM
M  V30 BEGIN BOND
M  V30 1 1 1 2
M  V30 2 1 2 3
M  V30 3 1 3 4
M  V30 4 1 4 5
M  V30 5 1 5 6
M  V30 6 1 6 7
M  V30 7 2 7 8
M  V30 8 1 8 9
M  V30 9 1 8 10
M  V30 10 2 10 11
M  V30 11 1 11 12
M  V30 12 2 12 13
M  V30 13 1 13 14
M  V30 14 2 14 15
M  V30 15 1 15 16
M  V30 16 1 16 17
M  V30 17 2 17 18
M  V30 18 1 17 19
M  V30 19 1 19 20
M  V30 20 2 20 21
M  V30 21 1 6 22
M  V30 22 1 22 2
M  V30 23 1 13 7
M  V30 24 1 20 15
M  V30 25 1 1 23
M  V30 26 1 1 24
M  V30 27 1 2 25 CFG=1
M  V30 28 1 3 26
M  V30 29 1 3 27
M  V30 30 1 4 28
M  V30 31 1 4 29
M  V30 32 1 5 30
M  V30 33 1 5 31
M  V30 34 1 10 32
M  V30 35 1 11 33
M  V30 36 1 12 34
M  V30 37 1 14 35
M  V30 38 1 19 36
M  V30 39 1 22 37
M  V30 40 1 22 38
M  V30 END BOND
M  V30 END CTAB
M  END
>  <Dataset>  (142) 
ChEMBL_Kinases

>  <Ligand_Instance>  (142) 
nan

>  <PDB_ID>  (142) 
nan

>  <Standardized_SMILES>  (142) 
N[C@@H]1CCCN(c2c(Cl)cccc2/C=C2\SC(=O)NC2=O)C1

>  <Name>  (142) 
nan

>  <Pocket>  (142) 
nan

>  <ATP_Site>  (142) 
nan

>  <Peripheral>  (142) 
nan

>  <Num_H_Atoms_ProtBoundConf>  (142) 
nan

>  <Num_Resolved_Atoms>  (142) 
nan

>  <Num_Not_Resolved_Atoms>  (142) 
nan

$$$$
CHEMBL2048867
     RDKit          3D

  0  0  0  0  0  0  0  0  0  0999 V3000
M  V30 BEGIN CTAB
M  V30 COUNTS 38 40 0 0 0
M  V30 BEGIN ATOM
M  V30 1 N 1.693793 -2.482448 3.864944 0
M  V30 2 C 1.015445 -1.799882 2.780428 0 CFG=2
M  V30 3 C 0.275314 -2.842544 1.972529 0
M  V30 4 C 1.008928 -3.007961 0.665104 0
M  V30 5 C 0.876481 -1.700825 -0.072160 0
M  V30 6 N 1.553032 -0.649027 0.683063 0
M  V30 7 C 1.528618 0.485545 -0.181427 0
M  V30 8 C 2.503220 0.832226 -1.089508 0
M  V30 9 Br 4.042024 -0.291880 -1.166171 0
M  V30 10 C 2.407853 1.932400 -1.919800 0
M  V30 11 C 1.269919 2.696726 -1.807224 0
M  V30 12 C 0.258417 2.412193 -0.927716 0
M  V30 13 C 0.396197 1.291569 -0.106909 0
M  V30 14 C -0.629194 0.948929 0.869456 0
M  V30 15 C -1.896224 0.899412 0.585269 0
M  V30 16 S -2.935934 1.164671 -0.876512 0
M  V30 17 C -4.087052 -0.176591 -0.449833 0
M  V30 18 O -4.677488 -0.976084 -1.224543 0
M  V30 19 N -4.104617 -0.033519 0.981339 0
M  V30 20 C -2.941326 0.542520 1.574207 0
M  V30 21 O -2.872669 0.707785 2.851624 0
M  V30 22 C 2.023595 -1.019557 1.982749 0
M  V30 23 H 1.064717 -3.205325 4.285333 0
M  V30 24 H 2.622382 -2.889541 3.566212 0
M  V30 25 H 0.257145 -1.156507 3.264232 0
M  V30 26 H -0.744619 -2.499221 1.754007 0
M  V30 27 H 0.210265 -3.798482 2.539340 0
M  V30 28 H 2.056145 -3.291385 0.880444 0
M  V30 29 H 0.558066 -3.829888 0.063275 0
M  V30 30 H 1.231740 -1.840110 -1.082733 0
M  V30 31 H -0.211314 -1.464762 -0.103841 0
M  V30 32 H 3.204857 2.161976 -2.611255 0
M  V30 33 H 1.134934 3.581589 -2.431752 0
M  V30 34 H -0.631332 3.027963 -0.859037 0
M  V30 35 H -0.297140 0.721392 1.880120 0
M  V30 36 H -4.966303 -0.365183 1.516158 0
M  V30 37 H 2.377150 -0.192947 2.598188 0
M  V30 38 H 2.899697 -1.714359 1.834580 0
M  V30 END ATOM
M  V30 BEGIN BOND
M  V30 1 1 1 2
M  V30 2 1 2 3
M  V30 3 1 3 4
M  V30 4 1 4 5
M  V30 5 1 5 6
M  V30 6 1 6 7
M  V30 7 2 7 8
M  V30 8 1 8 9
M  V30 9 1 8 10
M  V30 10 2 10 11
M  V30 11 1 11 12
M  V30 12 2 12 13
M  V30 13 1 13 14
M  V30 14 2 14 15
M  V30 15 1 15 16
M  V30 16 1 16 17
M  V30 17 2 17 18
M  V30 18 1 17 19
M  V30 19 1 19 20
M  V30 20 2 20 21
M  V30 21 1 6 22
M  V30 22 1 22 2
M  V30 23 1 13 7
M  V30 24 1 20 15
M  V30 25 1 1 23
M  V30 26 1 1 24
M  V30 27 1 2 25 CFG=1
M  V30 28 1 3 26
M  V30 29 1 3 27
M  V30 30 1 4 28
M  V30 31 1 4 29
M  V30 32 1 5 30
M  V30 33 1 5 31
M  V30 34 1 10 32
M  V30 35 1 11 33
M  V30 36 1 12 34
M  V30 37 1 14 35
M  V30 38 1 19 36
M  V30 39 1 22 37
M  V30 40 1 22 38
M  V30 END BOND
M  V30 END CTAB
M  END
>  <Dataset>  (143) 
ChEMBL_Kinases

>  <Ligand_Instance>  (143) 
nan

>  <PDB_ID>  (143) 
nan

>  <Standardized_SMILES>  (143) 
N[C@@H]1CCCN(c2c(Br)cccc2/C=C2\SC(=O)NC2=O)C1

>  <Name>  (143) 
nan

>  <Pocket>  (143) 
nan

>  <ATP_Site>  (143) 
nan

>  <Peripheral>  (143) 
nan

>  <Num_H_Atoms_ProtBoundConf>  (143) 
nan

>  <Num_Resolved_Atoms>  (143) 
nan

>  <Num_Not_Resolved_Atoms>  (143) 
nan

$$$$
CHEMBL2048868
     RDKit          3D

  0  0  0  0  0  0  0  0  0  0999 V3000
M  V30 BEGIN CTAB
M  V30 COUNTS 42 44 0 0 0
M  V30 BEGIN ATOM
M  V30 1 C 0.612562 -4.588889 1.741451 0
M  V30 2 O 0.455831 -3.255113 1.364433 0
M  V30 3 C 1.475114 -2.337249 1.249574 0
M  V30 4 C 2.732322 -2.814914 1.538009 0
M  V30 5 C 3.803390 -1.962102 1.447158 0
M  V30 6 C 3.567230 -0.659185 1.068538 0
M  V30 7 C 2.318395 -0.133596 0.767863 0
M  V30 8 C 2.260590 1.257737 0.432665 0
M  V30 9 C 1.802246 1.939705 -0.564955 0
M  V30 10 S 0.980262 1.414191 -2.082883 0
M  V30 11 C 1.616354 2.795093 -3.075920 0
M  V30 12 O 1.893618 2.937765 -4.287252 0
M  V30 13 N 1.747497 3.791807 -2.068334 0
M  V30 14 C 1.848568 3.398173 -0.730876 0
M  V30 15 O 1.968884 4.198003 0.258645 0
M  V30 16 C 1.279137 -1.021156 0.872692 0
M  V30 17 N -0.077115 -0.705523 0.667124 0
M  V30 18 C -1.076391 -0.743202 -0.384348 0
M  V30 19 C -2.118431 -1.777597 -0.014070 0
M  V30 20 C -2.525277 -1.705463 1.416877 0
M  V30 21 C -2.141612 -0.354355 1.966147 0 CFG=1
M  V30 22 N -2.469205 -0.272473 3.399999 0
M  V30 23 C -0.648533 -0.157360 1.894677 0
M  V30 24 H 1.447900 -5.076851 1.163582 0
M  V30 25 H 0.756574 -4.738420 2.845227 0
M  V30 26 H -0.315864 -5.120880 1.398797 0
M  V30 27 H 2.937933 -3.830894 1.836323 0
M  V30 28 H 4.807513 -2.302372 1.666359 0
M  V30 29 H 4.460859 -0.018313 1.011976 0
M  V30 30 H 2.719473 1.852416 1.244577 0
M  V30 31 H 1.769795 4.823452 -2.344315 0
M  V30 32 H -1.551648 0.253301 -0.452081 0
M  V30 33 H -0.630814 -0.955263 -1.377213 0
M  V30 34 H -3.017555 -1.628140 -0.646033 0
M  V30 35 H -1.768145 -2.811354 -0.255644 0
M  V30 36 H -2.104898 -2.516696 2.043826 0
M  V30 37 H -3.622754 -1.827793 1.485468 0
M  V30 38 H -2.717728 0.411756 1.383314 0
M  V30 39 H -1.696413 -0.803954 3.898649 0
M  V30 40 H -2.289051 0.742833 3.651010 0
M  V30 41 H -0.133112 -0.447355 2.811765 0
M  V30 42 H -0.492612 0.957685 1.788913 0
M  V30 END ATOM
M  V30 BEGIN BOND
M  V30 1 1 1 2
M  V30 2 1 2 3
M  V30 3 2 3 4
M  V30 4 1 4 5
M  V30 5 2 5 6
M  V30 6 1 6 7
M  V30 7 1 7 8
M  V30 8 2 8 9
M  V30 9 1 9 10
M  V30 10 1 10 11
M  V30 11 2 11 12
M  V30 12 1 11 13
M  V30 13 1 13 14
M  V30 14 2 14 15
M  V30 15 2 7 16
M  V30 16 1 16 17
M  V30 17 1 17 18
M  V30 18 1 18 19
M  V30 19 1 19 20
M  V30 20 1 20 21
M  V30 21 1 21 22
M  V30 22 1 21 23
M  V30 23 1 16 3
M  V30 24 1 23 17
M  V30 25 1 14 9
M  V30 26 1 1 24
M  V30 27 1 1 25
M  V30 28 1 1 26
M  V30 29 1 4 27
M  V30 30 1 5 28
M  V30 31 1 6 29
M  V30 32 1 8 30
M  V30 33 1 13 31
M  V30 34 1 18 32
M  V30 35 1 18 33
M  V30 36 1 19 34
M  V30 37 1 19 35
M  V30 38 1 20 36
M  V30 39 1 20 37
M  V30 40 1 21 38 CFG=3
M  V30 41 1 22 39
M  V30 42 1 22 40
M  V30 43 1 23 41
M  V30 44 1 23 42
M  V30 END BOND
M  V30 END CTAB
M  END
>  <Dataset>  (144) 
ChEMBL_Kinases

>  <Ligand_Instance>  (144) 
nan

>  <PDB_ID>  (144) 
nan

>  <Standardized_SMILES>  (144) 
COc1cccc(/C=C2\SC(=O)NC2=O)c1N1CCC[C@@H](N)C1

>  <Name>  (144) 
nan

>  <Pocket>  (144) 
nan

>  <ATP_Site>  (144) 
nan

>  <Peripheral>  (144) 
nan

>  <Num_H_Atoms_ProtBoundConf>  (144) 
nan

>  <Num_Resolved_Atoms>  (144) 
nan

>  <Num_Not_Resolved_Atoms>  (144) 
nan

$$$$
CHEMBL2048869
     RDKit          3D

  0  0  0  0  0  0  0  0  0  0999 V3000
M  V30 BEGIN CTAB
M  V30 COUNTS 45 47 0 0 0
M  V30 BEGIN ATOM
M  V30 1 C -0.163313 -5.128970 0.842768 0
M  V30 2 C 0.044673 -4.228357 2.039856 0
M  V30 3 O 0.201900 -2.923736 1.600746 0
M  V30 4 C 1.151501 -2.397536 0.780566 0
M  V30 5 C 2.114655 -3.259892 0.301888 0
M  V30 6 C 3.073872 -2.720417 -0.527924 0
M  V30 7 C 3.075622 -1.386236 -0.866629 0
M  V30 8 C 2.123666 -0.505671 -0.401420 0
M  V30 9 C 2.239397 0.876154 -0.792320 0
M  V30 10 C 1.416412 1.690497 -1.372144 0
M  V30 11 S -0.279830 1.531135 -1.992088 0
M  V30 12 C -0.703423 3.269063 -1.681467 0
M  V30 13 O -1.794206 3.830503 -1.408835 0
M  V30 14 N 0.570604 3.881103 -1.828939 0
M  V30 15 C 1.721402 3.104310 -1.678537 0
M  V30 16 O 2.907405 3.556055 -1.791018 0
M  V30 17 C 1.182247 -1.066065 0.421994 0
M  V30 18 N 0.151231 -0.306069 1.038632 0
M  V30 19 C 0.661724 0.240083 2.282643 0
M  V30 20 C -0.169136 1.357564 2.856730 0
M  V30 21 C -1.578532 0.980504 3.189511 0
M  V30 22 C -1.964172 -0.172401 2.266882 0 CFG=1
M  V30 23 N -3.370185 -0.126864 1.981256 0
M  V30 24 C -1.225073 0.142337 0.958579 0
M  V30 25 H -1.205852 -5.538263 0.830534 0
M  V30 26 H -0.062779 -4.608684 -0.133156 0
M  V30 27 H 0.546265 -5.978025 0.842757 0
M  V30 28 H 0.866604 -4.589465 2.691305 0
M  V30 29 H -0.893193 -4.267218 2.666806 0
M  V30 30 H 2.222940 -4.315921 0.493114 0
M  V30 31 H 3.861904 -3.334369 -0.943652 0
M  V30 32 H 3.860585 -1.017607 -1.526763 0
M  V30 33 H 3.239639 1.254017 -0.515294 0
M  V30 34 H 0.606573 4.925558 -2.049215 0
M  V30 35 H 1.677464 0.691472 2.109363 0
M  V30 36 H 0.775007 -0.583458 2.996675 0
M  V30 37 H 0.319806 1.632857 3.814441 0
M  V30 38 H -0.116900 2.276070 2.235583 0
M  V30 39 H -1.718911 0.617152 4.224435 0
M  V30 40 H -2.280578 1.808695 2.911538 0
M  V30 41 H -1.673919 -1.131712 2.699858 0
M  V30 42 H -3.767106 -1.019061 1.659409 0
M  V30 43 H -3.681799 0.729314 1.517434 0
M  V30 44 H -1.323369 1.219157 0.797056 0
M  V30 45 H -1.811989 -0.380608 0.177192 0
M  V30 END ATOM
M  V30 BEGIN BOND
M  V30 1 1 1 2
M  V30 2 1 2 3
M  V30 3 1 3 4
M  V30 4 2 4 5
M  V30 5 1 5 6
M  V30 6 2 6 7
M  V30 7 1 7 8
M  V30 8 1 8 9
M  V30 9 2 9 10
M  V30 10 1 10 11
M  V30 11 1 11 12
M  V30 12 2 12 13
M  V30 13 1 12 14
M  V30 14 1 14 15
M  V30 15 2 15 16
M  V30 16 2 8 17
M  V30 17 1 17 18
M  V30 18 1 18 19
M  V30 19 1 19 20
M  V30 20 1 20 21
M  V30 21 1 21 22
M  V30 22 1 22 23
M  V30 23 1 22 24
M  V30 24 1 17 4
M  V30 25 1 24 18
M  V30 26 1 15 10
M  V30 27 1 1 25
M  V30 28 1 1 26
M  V30 29 1 1 27
M  V30 30 1 2 28
M  V30 31 1 2 29
M  V30 32 1 5 30
M  V30 33 1 6 31
M  V30 34 1 7 32
M  V30 35 1 9 33
M  V30 36 1 14 34
M  V30 37 1 19 35
M  V30 38 1 19 36
M  V30 39 1 20 37
M  V30 40 1 20 38
M  V30 41 1 21 39
M  V30 42 1 21 40
M  V30 43 1 22 41 CFG=1
M  V30 44 1 23 42
M  V30 45 1 23 43
M  V30 46 1 24 44
M  V30 47 1 24 45
M  V30 END BOND
M  V30 END CTAB
M  END
>  <Dataset>  (145) 
ChEMBL_Kinases

>  <Ligand_Instance>  (145) 
nan

>  <PDB_ID>  (145) 
nan

>  <Standardized_SMILES>  (145) 
CCOc1cccc(/C=C2\SC(=O)NC2=O)c1N1CCC[C@@H](N)C1

>  <Name>  (145) 
nan

>  <Pocket>  (145) 
nan

>  <ATP_Site>  (145) 
nan

>  <Peripheral>  (145) 
nan

>  <Num_H_Atoms_ProtBoundConf>  (145) 
nan

>  <Num_Resolved_Atoms>  (145) 
nan

>  <Num_Not_Resolved_Atoms>  (145) 
nan

$$$$
CHEMBL2048873
     RDKit          3D

  0  0  0  0  0  0  0  0  0  0999 V3000
M  V30 BEGIN CTAB
M  V30 COUNTS 47 50 0 0 0
M  V30 BEGIN ATOM
M  V30 1 N 3.087710 -3.324064 0.028925 0
M  V30 2 C 1.644935 -3.064949 0.182392 0 CFG=2
M  V30 3 C 0.996575 -2.776948 -1.122163 0
M  V30 4 C 0.889665 -1.348464 -1.484225 0
M  V30 5 C 0.743910 -0.372032 -0.370302 0
M  V30 6 N 0.542063 -0.977368 0.931195 0
M  V30 7 C -0.499794 -0.259077 1.622201 0
M  V30 8 C 0.056749 0.792151 2.362232 0
M  V30 9 C 1.508675 1.077512 2.454284 0
M  V30 10 C 1.770383 2.388154 2.298331 0
M  V30 11 S 0.754132 3.866876 2.002368 0
M  V30 12 C 2.048071 4.712145 1.050471 0
M  V30 13 O 1.946749 5.540074 0.088269 0
M  V30 14 N 3.248878 4.216112 1.650254 0
M  V30 15 C 3.096757 2.957613 2.325433 0
M  V30 16 O 4.138039 2.457273 2.885278 0
M  V30 17 C -0.812691 1.626873 3.077524 0
M  V30 18 C -2.177047 1.418298 3.053310 0
M  V30 19 C -2.685741 0.372144 2.313504 0
M  V30 20 C -1.855888 -0.469983 1.597305 0
M  V30 21 C -2.384922 -1.581520 0.824646 0
M  V30 22 C -2.080470 -2.918670 0.735256 0
M  V30 23 C -2.780984 -3.737349 -0.120347 0
M  V30 24 N -3.771019 -3.260057 -0.883710 0
M  V30 25 C -4.117370 -1.958105 -0.841426 0
M  V30 26 C -3.425617 -1.096770 0.016996 0
M  V30 27 C 1.379661 -2.112230 1.288221 0
M  V30 28 H 3.265500 -4.338143 -0.208704 0
M  V30 29 H 3.540181 -3.157904 0.958167 0
M  V30 30 H 1.247604 -4.069932 0.515638 0
M  V30 31 H 0.023669 -3.320189 -1.209169 0
M  V30 32 H 1.640700 -3.277498 -1.906785 0
M  V30 33 H 1.728447 -1.056505 -2.176084 0
M  V30 34 H -0.021049 -1.253878 -2.152118 0
M  V30 35 H 1.768253 0.119618 -0.273256 0
M  V30 36 H -0.012317 0.390291 -0.635817 0
M  V30 37 H 2.332144 0.434190 2.619079 0
M  V30 38 H 4.122712 4.807034 1.543619 0
M  V30 39 H -0.482647 2.457417 3.680291 0
M  V30 40 H -2.891946 2.015928 3.572342 0
M  V30 41 H -3.755819 0.160710 2.256596 0
M  V30 42 H -1.272308 -3.155809 1.408581 0
M  V30 43 H -2.456021 -4.772792 -0.106592 0
M  V30 44 H -4.929663 -1.665585 -1.492212 0
M  V30 45 H -3.824772 -0.086937 -0.069713 0
M  V30 46 H 0.928642 -2.607603 2.193436 0
M  V30 47 H 2.377368 -1.734322 1.638075 0
M  V30 END ATOM
M  V30 BEGIN BOND
M  V30 1 1 1 2
M  V30 2 1 2 3
M  V30 3 1 3 4
M  V30 4 1 4 5
M  V30 5 1 5 6
M  V30 6 1 6 7
M  V30 7 1 7 8
M  V30 8 1 8 9
M  V30 9 2 9 10
M  V30 10 1 10 11
M  V30 11 1 11 12
M  V30 12 2 12 13
M  V30 13 1 12 14
M  V30 14 1 14 15
M  V30 15 2 15 16
M  V30 16 2 8 17
M  V30 17 1 17 18
M  V30 18 2 18 19
M  V30 19 1 19 20
M  V30 20 1 20 21
M  V30 21 2 21 22
M  V30 22 1 22 23
M  V30 23 2 23 24
M  V30 24 1 24 25
M  V30 25 2 25 26
M  V30 26 1 6 27
M  V30 27 1 27 2
M  V30 28 2 20 7
M  V30 29 1 26 21
M  V30 30 1 15 10
M  V30 31 1 1 28
M  V30 32 1 1 29
M  V30 33 1 2 30 CFG=1
M  V30 34 1 3 31
M  V30 35 1 3 32
M  V30 36 1 4 33
M  V30 37 1 4 34
M  V30 38 1 5 35
M  V30 39 1 5 36
M  V30 40 1 9 37
M  V30 41 1 14 38
M  V30 42 1 17 39
M  V30 43 1 18 40
M  V30 44 1 19 41
M  V30 45 1 22 42
M  V30 46 1 23 43
M  V30 47 1 25 44
M  V30 48 1 26 45
M  V30 49 1 27 46
M  V30 50 1 27 47
M  V30 END BOND
M  V30 END CTAB
M  END
>  <Dataset>  (146) 
ChEMBL_Kinases

>  <Ligand_Instance>  (146) 
nan

>  <PDB_ID>  (146) 
nan

>  <Standardized_SMILES>  (146) 
N[C@@H]1CCCN(c2c(/C=C3\SC(=O)NC3=O)cccc2-c2ccncc2)C1

>  <Name>  (146) 
nan

>  <Pocket>  (146) 
nan

>  <ATP_Site>  (146) 
nan

>  <Peripheral>  (146) 
nan

>  <Num_H_Atoms_ProtBoundConf>  (146) 
nan

>  <Num_Resolved_Atoms>  (146) 
nan

>  <Num_Not_Resolved_Atoms>  (146) 
nan

$$$$
CHEMBL4648747
     RDKit          3D

  0  0  0  0  0  0  0  0  0  0999 V3000
M  V30 BEGIN CTAB
M  V30 COUNTS 43 45 0 0 0
M  V30 BEGIN ATOM
M  V30 1 C -3.158122 -4.900046 2.596656 0
M  V30 2 C -2.386322 -3.667103 2.122339 0
M  V30 3 C -3.346740 -2.546621 1.818905 0
M  V30 4 N -2.696368 -1.337682 1.358722 0
M  V30 5 C -3.607977 -0.245736 1.069735 0
M  V30 6 C -1.297390 -1.116499 1.163286 0
M  V30 7 C -0.816579 0.101246 0.726877 0
M  V30 8 C 0.542536 0.263274 0.551885 0
M  V30 9 C 1.053957 1.541665 0.093503 0
M  V30 10 C 1.884561 2.181992 0.985114 0
M  V30 11 C 2.473919 3.419027 0.725512 0
M  V30 12 N 2.204386 3.999721 -0.462625 0
M  V30 13 C 1.397823 3.375178 -1.325252 0
M  V30 14 C 0.792481 2.149719 -1.110134 0
M  V30 15 C 1.449174 -0.748576 0.796482 0
M  V30 16 C 2.894913 -0.632903 0.628612 0
M  V30 17 C 3.888304 -0.771421 1.577924 0
M  V30 18 C 5.206447 -0.619241 1.196986 0
M  V30 19 C 5.592847 -0.336288 -0.079019 0
M  V30 20 C 4.590950 -0.200548 -1.017257 0
M  V30 21 C 3.263818 -0.342907 -0.686456 0
M  V30 22 N 0.902533 -1.903938 1.218702 0
M  V30 23 N -0.395184 -2.087094 1.395035 0
M  V30 24 H -4.157509 -4.590678 2.957112 0
M  V30 25 H -2.593603 -5.380378 3.415167 0
M  V30 26 H -3.303742 -5.594230 1.766809 0
M  V30 27 H -1.872988 -3.949287 1.195181 0
M  V30 28 H -1.670632 -3.380084 2.918770 0
M  V30 29 H -4.102959 -2.843138 1.074453 0
M  V30 30 H -3.870622 -2.323491 2.771531 0
M  V30 31 H -3.630749 0.512144 1.876996 0
M  V30 32 H -3.300820 0.195232 0.076015 0
M  V30 33 H -4.651898 -0.557523 0.920450 0
M  V30 34 H -1.452388 0.921589 0.519895 0
M  V30 35 H 2.142779 1.778793 1.948878 0
M  V30 36 H 3.124962 3.911979 1.433816 0
M  V30 37 H 1.204662 3.868252 -2.264939 0
M  V30 38 H 0.149422 1.633442 -1.776850 0
M  V30 39 H 3.511388 -0.995094 2.566957 0
M  V30 40 H 5.912880 -0.743816 1.999344 0
M  V30 41 H 6.659038 -0.229357 -0.308374 0
M  V30 42 H 4.888598 0.025017 -2.037315 0
M  V30 43 H 2.555182 -0.213975 -1.510639 0
M  V30 END ATOM
M  V30 BEGIN BOND
M  V30 1 1 1 2
M  V30 2 1 2 3
M  V30 3 1 3 4
M  V30 4 1 4 5
M  V30 5 1 4 6
M  V30 6 2 6 7
M  V30 7 1 7 8
M  V30 8 1 8 9
M  V30 9 2 9 10
M  V30 10 1 10 11
M  V30 11 2 11 12
M  V30 12 1 12 13
M  V30 13 2 13 14
M  V30 14 2 8 15
M  V30 15 1 15 16
M  V30 16 2 16 17
M  V30 17 1 17 18
M  V30 18 2 18 19
M  V30 19 1 19 20
M  V30 20 2 20 21
M  V30 21 1 15 22
M  V30 22 2 22 23
M  V30 23 1 23 6
M  V30 24 1 14 9
M  V30 25 1 21 16
M  V30 26 1 1 24
M  V30 27 1 1 25
M  V30 28 1 1 26
M  V30 29 1 2 27
M  V30 30 1 2 28
M  V30 31 1 3 29
M  V30 32 1 3 30
M  V30 33 1 5 31
M  V30 34 1 5 32
M  V30 35 1 5 33
M  V30 36 1 7 34
M  V30 37 1 10 35
M  V30 38 1 11 36
M  V30 39 1 13 37
M  V30 40 1 14 38
M  V30 41 1 17 39
M  V30 42 1 18 40
M  V30 43 1 19 41
M  V30 44 1 20 42
M  V30 45 1 21 43
M  V30 END BOND
M  V30 END CTAB
M  END
>  <Dataset>  (147) 
ChEMBL_Kinases

>  <Ligand_Instance>  (147) 
nan

>  <PDB_ID>  (147) 
nan

>  <Standardized_SMILES>  (147) 
CCCN(C)c1cc(-c2ccncc2)c(-c2ccccc2)nn1

>  <Name>  (147) 
nan

>  <Pocket>  (147) 
nan

>  <ATP_Site>  (147) 
nan

>  <Peripheral>  (147) 
nan

>  <Num_H_Atoms_ProtBoundConf>  (147) 
nan

>  <Num_Resolved_Atoms>  (147) 
nan

>  <Num_Not_Resolved_Atoms>  (147) 
nan

$$$$
CHEMBL4514173
     RDKit          3D

  0  0  0  0  0  0  0  0  0  0999 V3000
M  V30 BEGIN CTAB
M  V30 COUNTS 27 30 0 0 0
M  V30 BEGIN ATOM
M  V30 1 O -1.057761 -3.866024 1.684756 0
M  V30 2 N 0.268629 -3.517508 1.866415 0
M  V30 3 C 0.597302 -2.337594 1.479684 0
M  V30 4 C 1.900439 -1.685245 1.535787 0
M  V30 5 C 3.071248 -2.224019 2.030299 0
M  V30 6 C 4.271267 -1.505383 2.035400 0
M  V30 7 C 4.156669 -0.222628 1.501368 0
M  V30 8 C 3.012406 0.351486 0.999289 0
M  V30 9 C 1.859434 -0.406306 1.020974 0
M  V30 10 C 0.477159 -0.182583 0.599938 0
M  V30 11 N -0.084786 0.911773 0.032608 0
M  V30 12 C -1.404151 0.930941 -0.292531 0
M  V30 13 C -1.971892 2.048275 -0.870331 0
M  V30 14 C -3.318071 2.010945 -1.179623 0
M  V30 15 N -4.077254 0.904490 -0.925514 0
M  V30 16 C -3.480246 -0.180461 -0.353452 0
M  V30 17 C -2.133649 -0.207457 -0.018661 0
M  V30 18 N -1.611667 -1.324506 0.548007 0
M  V30 19 C -0.284108 -1.326307 0.868261 0
M  V30 20 H -1.561518 -3.687316 0.829147 0
M  V30 21 H 3.142114 -3.228212 2.443818 0
M  V30 22 H 5.210895 -1.869268 2.405215 0
M  V30 23 H 5.071512 0.367771 1.488489 0
M  V30 24 H 3.011305 1.345237 0.606648 0
M  V30 25 H -1.354072 2.897708 -1.057000 0
M  V30 26 H -3.760342 2.889038 -1.632771 0
M  V30 27 H -4.105201 -1.031212 -0.167987 0
M  V30 END ATOM
M  V30 BEGIN BOND
M  V30 1 1 1 2
M  V30 2 2 2 3
M  V30 3 1 3 4
M  V30 4 2 4 5
M  V30 5 1 5 6
M  V30 6 2 6 7
M  V30 7 1 7 8
M  V30 8 2 8 9
M  V30 9 1 9 10
M  V30 10 2 10 11
M  V30 11 1 11 12
M  V30 12 2 12 13
M  V30 13 1 13 14
M  V30 14 2 14 15
M  V30 15 1 15 16
M  V30 16 2 16 17
M  V30 17 1 17 18
M  V30 18 2 18 19
M  V30 19 1 19 3
M  V30 20 1 9 4
M  V30 21 1 19 10
M  V30 22 1 17 12
M  V30 23 1 1 20
M  V30 24 1 5 21
M  V30 25 1 6 22
M  V30 26 1 7 23
M  V30 27 1 8 24
M  V30 28 1 13 25
M  V30 29 1 14 26
M  V30 30 1 16 27
M  V30 END BOND
M  V30 END CTAB
M  END
>  <Dataset>  (148) 
ChEMBL_Kinases

>  <Ligand_Instance>  (148) 
nan

>  <PDB_ID>  (148) 
nan

>  <Standardized_SMILES>  (148) 
O/N=C1/c2ccccc2-c2nc3ccncc3nc21

>  <Name>  (148) 
nan

>  <Pocket>  (148) 
nan

>  <ATP_Site>  (148) 
nan

>  <Peripheral>  (148) 
nan

>  <Num_H_Atoms_ProtBoundConf>  (148) 
nan

>  <Num_Resolved_Atoms>  (148) 
nan

>  <Num_Not_Resolved_Atoms>  (148) 
nan

$$$$
CHEMBL205078
     RDKit          3D

  0  0  0  0  0  0  0  0  0  0999 V3000
M  V30 BEGIN CTAB
M  V30 COUNTS 50 53 0 0 0
M  V30 BEGIN ATOM
M  V30 1 O -0.922889 -3.783961 1.318046 0
M  V30 2 C -0.154130 -4.572434 0.671346 0
M  V30 3 N 1.182348 -4.152372 0.458506 0
M  V30 4 C 1.352685 -2.850616 1.066824 0
M  V30 5 C 1.077312 -1.774690 0.250294 0
M  V30 6 C 1.243484 -0.535593 0.840737 0
M  V30 7 C 1.010490 0.741605 0.172580 0
M  V30 8 C 0.014182 0.792441 -0.806868 0
M  V30 9 C -0.254368 1.974219 -1.475126 0
M  V30 10 N 0.458977 3.084950 -1.170809 0
M  V30 11 C 1.428148 3.034751 -0.217699 0
M  V30 12 N 2.093451 4.274360 -0.003999 0
M  V30 13 C 1.545863 5.156546 0.982683 0
M  V30 14 C 2.109748 6.387089 1.272383 0
M  V30 15 C 1.595285 7.249721 2.220728 0
M  V30 16 C 0.469441 6.857475 2.903373 0
M  V30 17 F -0.067788 7.679626 3.845341 0
M  V30 18 C -0.146028 5.642380 2.665322 0
M  V30 19 C 0.420836 4.838807 1.710214 0
M  V30 20 C 1.712083 1.866892 0.460405 0
M  V30 21 C 1.658574 -0.403048 2.162224 0
M  V30 22 C 1.918007 -1.525237 2.925641 0
M  V30 23 N 1.751181 -2.723051 2.335248 0
M  V30 24 C -0.852308 -5.794858 0.271794 0
M  V30 25 C -2.281163 -5.668087 0.784068 0
M  V30 26 C -3.251164 -6.584281 0.137177 0
M  V30 27 O -3.137663 -6.754807 -1.214858 0
M  V30 28 C -2.286739 -5.838008 -1.775358 0
M  V30 29 C -0.876239 -6.067392 -1.211751 0
M  V30 30 H 1.738934 -4.869025 -0.083767 0
M  V30 31 H 0.754601 -1.800914 -0.774814 0
M  V30 32 H -0.564808 -0.104715 -1.054990 0
M  V30 33 H -1.022946 2.056870 -2.245911 0
M  V30 34 H 2.948822 4.606002 -0.500808 0
M  V30 35 H 2.998841 6.694422 0.732119 0
M  V30 36 H 2.044575 8.214787 2.442231 0
M  V30 37 H -1.038232 5.312575 3.194638 0
M  V30 38 H -0.021750 3.862530 1.475716 0
M  V30 39 H 2.476276 1.874689 1.195233 0
M  V30 40 H 1.797851 0.557934 2.653978 0
M  V30 41 H 2.240935 -1.412296 3.953256 0
M  V30 42 H -0.405537 -6.652079 0.784999 0
M  V30 43 H -2.556645 -4.584421 0.682112 0
M  V30 44 H -2.250961 -5.911140 1.883402 0
M  V30 45 H -3.235583 -7.586070 0.641311 0
M  V30 46 H -4.273709 -6.183895 0.376311 0
M  V30 47 H -2.558120 -4.777887 -1.632252 0
M  V30 48 H -2.200550 -6.009257 -2.878423 0
M  V30 49 H -0.560804 -7.104489 -1.472043 0
M  V30 50 H -0.221286 -5.377485 -1.781504 0
M  V30 END ATOM
M  V30 BEGIN BOND
M  V30 1 2 1 2
M  V30 2 1 2 3
M  V30 3 1 3 4
M  V30 4 2 4 5
M  V30 5 1 5 6
M  V30 6 1 6 7
M  V30 7 2 7 8
M  V30 8 1 8 9
M  V30 9 2 9 10
M  V30 10 1 10 11
M  V30 11 1 11 12
M  V30 12 1 12 13
M  V30 13 2 13 14
M  V30 14 1 14 15
M  V30 15 2 15 16
M  V30 16 1 16 17
M  V30 17 1 16 18
M  V30 18 2 18 19
M  V30 19 2 11 20
M  V30 20 2 6 21
M  V30 21 1 21 22
M  V30 22 2 22 23
M  V30 23 1 2 24
M  V30 24 1 24 25
M  V30 25 1 25 26
M  V30 26 1 26 27
M  V30 27 1 27 28
M  V30 28 1 28 29
M  V30 29 1 23 4
M  V30 30 1 29 24
M  V30 31 1 20 7
M  V30 32 1 19 13
M  V30 33 1 3 30
M  V30 34 1 5 31
M  V30 35 1 8 32
M  V30 36 1 9 33
M  V30 37 1 12 34
M  V30 38 1 14 35
M  V30 39 1 15 36
M  V30 40 1 18 37
M  V30 41 1 19 38
M  V30 42 1 20 39
M  V30 43 1 21 40
M  V30 44 1 22 41
M  V30 45 1 24 42
M  V30 46 1 25 43
M  V30 47 1 25 44
M  V30 48 1 26 45
M  V30 49 1 26 46
M  V30 50 1 28 47
M  V30 51 1 28 48
M  V30 52 1 29 49
M  V30 53 1 29 50
M  V30 END BOND
M  V30 END CTAB
M  END
>  <Dataset>  (149) 
ChEMBL_Kinases

>  <Ligand_Instance>  (149) 
nan

>  <PDB_ID>  (149) 
nan

>  <Standardized_SMILES>  (149) 
O=C(Nc1cc(-c2ccnc(Nc3ccc(F)cc3)c2)ccn1)C1CCOCC1

>  <Name>  (149) 
nan

>  <Pocket>  (149) 
nan

>  <ATP_Site>  (149) 
nan

>  <Peripheral>  (149) 
nan

>  <Num_H_Atoms_ProtBoundConf>  (149) 
nan

>  <Num_Resolved_Atoms>  (149) 
nan

>  <Num_Not_Resolved_Atoms>  (149) 
nan

$$$$
CHEMBL4515187
     RDKit          3D

  0  0  0  0  0  0  0  0  0  0999 V3000
M  V30 BEGIN CTAB
M  V30 COUNTS 87 91 0 0 0
M  V30 BEGIN ATOM
M  V30 1 C 5.141693 -1.941528 4.893159 0
M  V30 2 C 6.210204 -2.002238 3.836180 0
M  V30 3 C 5.741229 -1.984316 2.450540 0 CFG=2
M  V30 4 C 6.992212 -2.085312 1.567676 0
M  V30 5 O 8.201761 -1.995660 1.968167 0
M  V30 6 N 6.789924 -2.302871 0.154784 0
M  V30 7 C 7.750602 -3.068855 -0.653478 0
M  V30 8 C 5.604316 -1.704847 -0.359976 0
M  V30 9 C 5.327796 -1.868262 -1.698077 0
M  V30 10 N 4.218309 -1.312418 -2.179056 0
M  V30 11 C 3.377714 -0.601586 -1.366153 0
M  V30 12 N 2.153573 0.088615 -1.590725 0
M  V30 13 C 0.814749 -0.457221 -1.591769 0
M  V30 14 C 0.884466 -1.850083 -1.452544 0
M  V30 15 C -0.284812 -2.579600 -1.439461 0
M  V30 16 C -1.509466 -1.971928 -1.558651 0
M  V30 17 C -2.765245 -2.704129 -1.557589 0
M  V30 18 O -2.638414 -3.949481 -1.646857 0
M  V30 19 N -3.999661 -2.049639 -1.461041 0
M  V30 20 C -5.286284 -2.708538 -1.453867 0
M  V30 21 C -5.903562 -2.749508 -0.073268 0
M  V30 22 C -6.935779 -1.717007 0.197837 0
M  V30 23 N -7.230903 -0.756124 -0.768622 0
M  V30 24 C -7.770764 0.477409 -0.340544 0
M  V30 25 C -8.046208 1.416925 -1.495582 0
M  V30 26 C -6.998962 1.198224 0.738412 0
M  V30 27 C -6.791198 -0.851651 -2.087850 0
M  V30 28 C -6.255434 -2.179069 -2.475159 0
M  V30 29 C -1.529966 -0.605937 -1.692286 0
M  V30 30 C -0.423681 0.209569 -1.717789 0
M  V30 31 O -0.112776 1.509387 -1.827902 0
M  V30 32 C -0.772408 2.686559 -1.981114 0
M  V30 33 C -1.586149 2.907793 -3.208665 0
M  V30 34 O -2.617049 2.042990 -3.434615 0
M  V30 35 N 3.660126 -0.452571 -0.070008 0
M  V30 36 C 4.773437 -0.983711 0.510250 0
M  V30 37 N 5.080101 -0.818765 1.929729 0
M  V30 38 C 4.661467 0.441460 2.446249 0
M  V30 39 C 3.497616 0.436007 3.391548 0
M  V30 40 C 2.682165 1.687702 3.130624 0
M  V30 41 C 3.032270 2.075278 1.718639 0
M  V30 42 C 4.449643 1.576013 1.561998 0
M  V30 43 H 5.244056 -1.003551 5.517114 0
M  V30 44 H 4.121321 -2.121887 4.534556 0
M  V30 45 H 5.307070 -2.755680 5.666716 0
M  V30 46 H 6.747301 -2.988504 3.985546 0
M  V30 47 H 6.972323 -1.255461 4.115062 0
M  V30 48 H 5.211641 -2.938509 2.283214 0
M  V30 49 H 7.187805 -3.894191 -1.164573 0
M  V30 50 H 8.227578 -2.431551 -1.398301 0
M  V30 51 H 8.447045 -3.573872 0.049950 0
M  V30 52 H 5.960521 -2.413554 -2.349656 0
M  V30 53 H 2.329957 1.119571 -1.772178 0
M  V30 54 H 1.778981 -2.456528 -1.349500 0
M  V30 55 H -0.293537 -3.655575 -1.335661 0
M  V30 56 H -4.116950 -1.017069 -1.382562 0
M  V30 57 H -5.064699 -3.761368 -1.746845 0
M  V30 58 H -5.092419 -2.786821 0.718329 0
M  V30 59 H -6.394041 -3.747980 0.062828 0
M  V30 60 H -6.577175 -1.165214 1.122312 0
M  V30 61 H -7.910748 -2.157727 0.565385 0
M  V30 62 H -8.783267 0.259694 0.114119 0
M  V30 63 H -8.858118 0.995824 -2.134121 0
M  V30 64 H -7.183361 1.599026 -2.138869 0
M  V30 65 H -8.404356 2.404529 -1.120090 0
M  V30 66 H -5.942237 1.360839 0.525205 0
M  V30 67 H -7.473114 2.199885 0.821633 0
M  V30 68 H -7.209074 0.682943 1.708800 0
M  V30 69 H -7.677505 -0.665017 -2.767022 0
M  V30 70 H -6.042957 -0.063744 -2.393744 0
M  V30 71 H -7.088565 -2.894731 -2.570273 0
M  V30 72 H -5.717565 -2.165706 -3.450596 0
M  V30 73 H -2.416938 -0.008389 -1.781274 0
M  V30 74 H -1.478438 2.794234 -1.099749 0
M  V30 75 H -0.103531 3.580940 -1.867828 0
M  V30 76 H -1.988860 3.955631 -3.251555 0
M  V30 77 H -0.915757 2.850930 -4.120000 0
M  V30 78 H -3.481702 2.457364 -3.657605 0
M  V30 79 H 5.552669 0.743310 3.110239 0
M  V30 80 H 3.795904 0.537065 4.477367 0
M  V30 81 H 2.833853 -0.450928 3.303039 0
M  V30 82 H 1.591139 1.493865 3.214829 0
M  V30 83 H 2.968485 2.536302 3.784102 0
M  V30 84 H 2.283316 1.587616 1.072308 0
M  V30 85 H 2.965299 3.195655 1.578539 0
M  V30 86 H 4.779591 1.507800 0.507918 0
M  V30 87 H 5.043594 2.496768 1.893791 0
M  V30 END ATOM
M  V30 BEGIN BOND
M  V30 1 1 1 2
M  V30 2 1 2 3
M  V30 3 1 3 4
M  V30 4 2 4 5
M  V30 5 1 4 6
M  V30 6 1 6 7
M  V30 7 1 6 8
M  V30 8 2 8 9
M  V30 9 1 9 10
M  V30 10 2 10 11
M  V30 11 1 11 12
M  V30 12 1 12 13
M  V30 13 2 13 14
M  V30 14 1 14 15
M  V30 15 2 15 16
M  V30 16 1 16 17
M  V30 17 2 17 18
M  V30 18 1 17 19
M  V30 19 1 19 20
M  V30 20 1 20 21
M  V30 21 1 21 22
M  V30 22 1 22 23
M  V30 23 1 23 24
M  V30 24 1 24 25
M  V30 25 1 24 26
M  V30 26 1 23 27
M  V30 27 1 27 28
M  V30 28 1 16 29
M  V30 29 2 29 30
M  V30 30 1 30 31
M  V30 31 1 31 32
M  V30 32 1 32 33
M  V30 33 1 33 34
M  V30 34 1 11 35
M  V30 35 2 35 36
M  V30 36 1 36 37
M  V30 37 1 37 38
M  V30 38 1 38 39
M  V30 39 1 39 40
M  V30 40 1 40 41
M  V30 41 1 41 42
M  V30 42 1 37 3
M  V30 43 1 42 38
M  V30 44 1 36 8
M  V30 45 1 30 13
M  V30 46 1 28 20
M  V30 47 1 1 43
M  V30 48 1 1 44
M  V30 49 1 1 45
M  V30 50 1 2 46
M  V30 51 1 2 47
M  V30 52 1 3 48 CFG=1
M  V30 53 1 7 49
M  V30 54 1 7 50
M  V30 55 1 7 51
M  V30 56 1 9 52
M  V30 57 1 12 53
M  V30 58 1 14 54
M  V30 59 1 15 55
M  V30 60 1 19 56
M  V30 61 1 20 57
M  V30 62 1 21 58
M  V30 63 1 21 59
M  V30 64 1 22 60
M  V30 65 1 22 61
M  V30 66 1 24 62
M  V30 67 1 25 63
M  V30 68 1 25 64
M  V30 69 1 25 65
M  V30 70 1 26 66
M  V30 71 1 26 67
M  V30 72 1 26 68
M  V30 73 1 27 69
M  V30 74 1 27 70
M  V30 75 1 28 71
M  V30 76 1 28 72
M  V30 77 1 29 73
M  V30 78 1 32 74
M  V30 79 1 32 75
M  V30 80 1 33 76
M  V30 81 1 33 77
M  V30 82 1 34 78
M  V30 83 1 38 79
M  V30 84 1 39 80
M  V30 85 1 39 81
M  V30 86 1 40 82
M  V30 87 1 40 83
M  V30 88 1 41 84
M  V30 89 1 41 85
M  V30 90 1 42 86
M  V30 91 1 42 87
M  V30 END BOND
M  V30 END CTAB
M  END
>  <Dataset>  (150) 
ChEMBL_Kinases

>  <Ligand_Instance>  (150) 
nan

>  <PDB_ID>  (150) 
nan

>  <Standardized_SMILES>  (150) 
CC[C@@H]1C(=O)N(C)c2cnc(Nc3ccc(C(=O)NC4CCN(C(C)C)CC4)cc3OCCO)nc2N1C1CCCC1

>  <Name>  (150) 
nan

>  <Pocket>  (150) 
nan

>  <ATP_Site>  (150) 
nan

>  <Peripheral>  (150) 
nan

>  <Num_H_Atoms_ProtBoundConf>  (150) 
nan

>  <Num_Resolved_Atoms>  (150) 
nan

>  <Num_Not_Resolved_Atoms>  (150) 
nan

$$$$
CHEMBL4515390
     RDKit          3D

  0  0  0  0  0  0  0  0  0  0999 V3000
M  V30 BEGIN CTAB
M  V30 COUNTS 47 49 0 0 0
M  V30 BEGIN ATOM
M  V30 1 C 1.188759 -4.786310 0.604068 0
M  V30 2 C 2.687966 -4.651383 0.525352 0
M  V30 3 C 3.143556 -3.273899 0.114927 0 CFG=1
M  V30 4 N 2.625032 -2.921664 -1.189211 0
M  V30 5 C 2.815045 -2.258953 1.178456 0
M  V30 6 N 3.280972 -0.968032 0.700274 0
M  V30 7 C 2.971564 0.006062 1.719374 0
M  V30 8 C 3.788771 0.455616 2.733521 0
M  V30 9 C 3.264760 1.397843 3.600734 0
M  V30 10 N 2.002298 1.848679 3.446577 0
M  V30 11 C 1.198759 1.415936 2.461331 0
M  V30 12 C -0.171794 1.873795 2.258748 0
M  V30 13 C -0.912558 1.340787 1.223642 0
M  V30 14 C -2.213708 1.696076 0.939639 0
M  V30 15 C -2.866784 1.038149 -0.189437 0
M  V30 16 C -2.133116 0.633419 -1.304397 0
M  V30 17 N -2.950953 0.053638 -2.201923 0
M  V30 18 N -4.198005 0.069471 -1.702419 0
M  V30 19 C -5.435638 -0.435416 -2.285765 0
M  V30 20 C -4.166613 0.662322 -0.483457 0
M  V30 21 C -2.804479 2.643976 1.744394 0
M  V30 22 C -2.055056 3.179136 2.786694 0
M  V30 23 C -0.754463 2.823194 3.069830 0
M  V30 24 O -0.044524 3.387576 4.125158 0
M  V30 25 N 1.735836 0.502207 1.636292 0
M  V30 26 H 0.854418 -5.240070 -0.370463 0
M  V30 27 H 0.878509 -5.533983 1.385686 0
M  V30 28 H 0.660781 -3.837247 0.804122 0
M  V30 29 H 3.162436 -4.895225 1.503649 0
M  V30 30 H 3.099832 -5.375281 -0.226669 0
M  V30 31 H 4.255487 -3.361528 -0.026207 0
M  V30 32 H 2.264315 -3.793756 -1.645367 0
M  V30 33 H 1.859826 -2.196063 -1.132093 0
M  V30 34 H 1.742100 -2.215170 1.367762 0
M  V30 35 H 3.440597 -2.527705 2.063410 0
M  V30 36 H 3.764929 -0.579036 -0.161985 0
M  V30 37 H 4.774144 0.013376 2.742902 0
M  V30 38 H 3.926775 1.732391 4.385476 0
M  V30 39 H -0.422387 0.587961 0.595577 0
M  V30 40 H -1.072658 0.723336 -1.513305 0
M  V30 41 H -5.848764 -1.254349 -1.647165 0
M  V30 42 H -5.151386 -0.936962 -3.239345 0
M  V30 43 H -6.158182 0.346774 -2.535113 0
M  V30 44 H -4.930980 0.881376 0.257696 0
M  V30 45 H -3.823618 2.931758 1.532355 0
M  V30 46 H -2.518742 3.937894 3.436179 0
M  V30 47 H -0.162971 2.915015 5.032095 0
M  V30 END ATOM
M  V30 BEGIN BOND
M  V30 1 1 1 2
M  V30 2 1 2 3
M  V30 3 1 3 4
M  V30 4 1 3 5
M  V30 5 1 5 6
M  V30 6 1 6 7
M  V30 7 2 7 8
M  V30 8 1 8 9
M  V30 9 2 9 10
M  V30 10 1 10 11
M  V30 11 1 11 12
M  V30 12 2 12 13
M  V30 13 1 13 14
M  V30 14 1 14 15
M  V30 15 1 15 16
M  V30 16 2 16 17
M  V30 17 1 17 18
M  V30 18 1 18 19
M  V30 19 1 18 20
M  V30 20 2 14 21
M  V30 21 1 21 22
M  V30 22 2 22 23
M  V30 23 1 23 24
M  V30 24 2 11 25
M  V30 25 1 25 7
M  V30 26 1 23 12
M  V30 27 2 20 15
M  V30 28 1 1 26
M  V30 29 1 1 27
M  V30 30 1 1 28
M  V30 31 1 2 29
M  V30 32 1 2 30
M  V30 33 1 3 31 CFG=3
M  V30 34 1 4 32
M  V30 35 1 4 33
M  V30 36 1 5 34
M  V30 37 1 5 35
M  V30 38 1 6 36
M  V30 39 1 8 37
M  V30 40 1 9 38
M  V30 41 1 13 39
M  V30 42 1 16 40
M  V30 43 1 19 41
M  V30 44 1 19 42
M  V30 45 1 19 43
M  V30 46 1 20 44
M  V30 47 1 21 45
M  V30 48 1 22 46
M  V30 49 1 24 47
M  V30 END BOND
M  V30 END CTAB
M  END
>  <Dataset>  (151) 
ChEMBL_Kinases

>  <Ligand_Instance>  (151) 
nan

>  <PDB_ID>  (151) 
nan

>  <Standardized_SMILES>  (151) 
CC[C@@H](N)CNc1ccnc(-c2cc(-c3cnn(C)c3)ccc2O)n1

>  <Name>  (151) 
nan

>  <Pocket>  (151) 
nan

>  <ATP_Site>  (151) 
nan

>  <Peripheral>  (151) 
nan

>  <Num_H_Atoms_ProtBoundConf>  (151) 
nan

>  <Num_Resolved_Atoms>  (151) 
nan

>  <Num_Not_Resolved_Atoms>  (151) 
nan

$$$$
CHEMBL4515413
     RDKit          3D

  0  0  0  0  0  0  0  0  0  0999 V3000
M  V30 BEGIN CTAB
M  V30 COUNTS 63 67 0 0 0
M  V30 BEGIN ATOM
M  V30 1 C 7.610705 -2.379368 4.190664 0
M  V30 2 C 7.884168 -1.575289 2.954438 0
M  V30 3 C 6.840006 -0.934727 2.314169 0
M  V30 4 C 6.989275 -0.169991 1.167359 0
M  V30 5 C 5.858391 0.486622 0.525381 0
M  V30 6 C 5.914129 1.675569 -0.175118 0
M  V30 7 C 4.777263 2.195037 -0.737607 0
M  V30 8 C 3.554658 1.552169 -0.622115 0
M  V30 9 N 2.344314 1.873198 -1.082520 0
M  V30 10 C 1.484591 0.907402 -0.693724 0
M  V30 11 N 0.096645 0.632877 -0.840012 0
M  V30 12 C -0.866163 1.134674 0.080548 0
M  V30 13 C -2.207967 0.857402 -0.067474 0
M  V30 14 C -3.218239 1.297045 0.763092 0
M  V30 15 C -4.636373 0.963328 0.557294 0
M  V30 16 N -5.047494 -0.199605 1.255152 0
M  V30 17 C -6.403124 -0.573802 1.068044 0
M  V30 18 C -6.667857 -1.578514 -0.005071 0
M  V30 19 N -5.524218 -2.333495 -0.426151 0
M  V30 20 C -5.714238 -3.253110 -1.488456 0
M  V30 21 O -4.796351 -3.977506 -1.954882 0
M  V30 22 C -6.991403 -3.498519 -2.197094 0
M  V30 23 C -6.708950 -4.568749 -3.252830 0
M  V30 24 F -6.259296 -5.712755 -2.585884 0
M  V30 25 F -7.858927 -4.859264 -3.969354 0
M  V30 26 F -5.722248 -4.138141 -4.110112 0
M  V30 27 C -4.207595 -2.239411 0.134253 0
M  V30 28 C -4.128633 -1.269938 1.284808 0
M  V30 29 C -2.828577 2.091229 1.842873 0
M  V30 30 C -1.468254 2.375918 1.998452 0
M  V30 31 N -0.523256 1.905234 1.135244 0
M  V30 32 N 2.172848 -0.030640 0.021163 0
M  V30 33 C 3.483481 0.346504 0.085012 0
M  V30 34 C 4.645617 -0.164813 0.648139 0
M  V30 35 C 8.249601 -0.050900 0.650121 0
M  V30 36 C 9.309482 -0.698437 1.296120 0
M  V30 37 N 9.109716 -1.438439 2.420899 0
M  V30 38 H 6.984255 -1.786271 4.886929 0
M  V30 39 H 8.573467 -2.561356 4.702660 0
M  V30 40 H 7.119505 -3.319365 3.858329 0
M  V30 41 H 5.863926 -1.052554 2.752927 0
M  V30 42 H 6.870667 2.130835 -0.236790 0
M  V30 43 H 4.833319 3.130491 -1.286135 0
M  V30 44 H -0.239426 0.050686 -1.637012 0
M  V30 45 H -2.469374 0.246595 -0.907176 0
M  V30 46 H -5.298372 1.807572 0.912357 0
M  V30 47 H -4.813377 0.873335 -0.549685 0
M  V30 48 H -6.760681 -1.004181 2.045268 0
M  V30 49 H -7.044574 0.337218 0.938122 0
M  V30 50 H -7.421817 -2.335534 0.351034 0
M  V30 51 H -7.170793 -1.045648 -0.839984 0
M  V30 52 H -7.282793 -2.591510 -2.728992 0
M  V30 53 H -7.771903 -3.920908 -1.532858 0
M  V30 54 H -3.835271 -3.259826 0.431745 0
M  V30 55 H -3.517434 -1.892795 -0.660551 0
M  V30 56 H -4.327973 -1.890188 2.207912 0
M  V30 57 H -3.095346 -0.870048 1.420251 0
M  V30 58 H -3.532583 2.489589 2.554826 0
M  V30 59 H -1.089797 2.990088 2.819291 0
M  V30 60 H 1.915330 -0.927333 0.502153 0
M  V30 61 H 4.556058 -1.110600 1.194680 0
M  V30 62 H 8.430649 0.536339 -0.248629 0
M  V30 63 H 10.323149 -0.605998 0.884798 0
M  V30 END ATOM
M  V30 BEGIN BOND
M  V30 1 1 1 2
M  V30 2 2 2 3
M  V30 3 1 3 4
M  V30 4 1 4 5
M  V30 5 2 5 6
M  V30 6 1 6 7
M  V30 7 2 7 8
M  V30 8 1 8 9
M  V30 9 2 9 10
M  V30 10 1 10 11
M  V30 11 1 11 12
M  V30 12 2 12 13
M  V30 13 1 13 14
M  V30 14 1 14 15
M  V30 15 1 15 16
M  V30 16 1 16 17
M  V30 17 1 17 18
M  V30 18 1 18 19
M  V30 19 1 19 20
M  V30 20 2 20 21
M  V30 21 1 20 22
M  V30 22 1 22 23
M  V30 23 1 23 24
M  V30 24 1 23 25
M  V30 25 1 23 26
M  V30 26 1 19 27
M  V30 27 1 27 28
M  V30 28 2 14 29
M  V30 29 1 29 30
M  V30 30 2 30 31
M  V30 31 1 10 32
M  V30 32 1 32 33
M  V30 33 2 33 34
M  V30 34 2 4 35
M  V30 35 1 35 36
M  V30 36 2 36 37
M  V30 37 1 37 2
M  V30 38 1 34 5
M  V30 39 1 33 8
M  V30 40 1 31 12
M  V30 41 1 28 16
M  V30 42 1 1 38
M  V30 43 1 1 39
M  V30 44 1 1 40
M  V30 45 1 3 41
M  V30 46 1 6 42
M  V30 47 1 7 43
M  V30 48 1 11 44
M  V30 49 1 13 45
M  V30 50 1 15 46
M  V30 51 1 15 47
M  V30 52 1 17 48
M  V30 53 1 17 49
M  V30 54 1 18 50
M  V30 55 1 18 51
M  V30 56 1 22 52
M  V30 57 1 22 53
M  V30 58 1 27 54
M  V30 59 1 27 55
M  V30 60 1 28 56
M  V30 61 1 28 57
M  V30 62 1 29 58
M  V30 63 1 30 59
M  V30 64 1 32 60
M  V30 65 1 34 61
M  V30 66 1 35 62
M  V30 67 1 36 63
M  V30 END BOND
M  V30 END CTAB
M  END
>  <Dataset>  (152) 
ChEMBL_Kinases

>  <Ligand_Instance>  (152) 
nan

>  <PDB_ID>  (152) 
nan

>  <Standardized_SMILES>  (152) 
Cc1cc(-c2ccc3nc(Nc4cc(CN5CCN(C(=O)CC(F)(F)F)CC5)ccn4)[nH]c3c2)ccn1

>  <Name>  (152) 
nan

>  <Pocket>  (152) 
nan

>  <ATP_Site>  (152) 
nan

>  <Peripheral>  (152) 
nan

>  <Num_H_Atoms_ProtBoundConf>  (152) 
nan

>  <Num_Resolved_Atoms>  (152) 
nan

>  <Num_Not_Resolved_Atoms>  (152) 
nan

$$$$
CHEMBL4515755
     RDKit          3D

  0  0  0  0  0  0  0  0  0  0999 V3000
M  V30 BEGIN CTAB
M  V30 COUNTS 77 80 0 0 0
M  V30 BEGIN ATOM
M  V30 1 C 6.480507 -4.196970 -0.840327 0
M  V30 2 C 5.025397 -4.504233 -0.885669 0
M  V30 3 C 4.156483 -3.533808 -1.584305 0 CFG=2
M  V30 4 C 4.556654 -3.348555 -3.005561 0
M  V30 5 O 5.625363 -3.796290 -3.553256 0
M  V30 6 N 3.660775 -2.595514 -3.849989 0
M  V30 7 C 3.588764 -2.794116 -5.307628 0
M  V30 8 C 2.862706 -1.637790 -3.153554 0
M  V30 9 C 2.007700 -0.924563 -3.966935 0
M  V30 10 N 1.226468 0.001278 -3.351121 0
M  V30 11 C 1.293766 0.200291 -2.021978 0
M  V30 12 N 0.515805 1.146939 -1.297977 0
M  V30 13 C -0.783027 0.972590 -0.682158 0
M  V30 14 C -1.236708 -0.339445 -0.893247 0
M  V30 15 C -2.464407 -0.685349 -0.372843 0
M  V30 16 F -2.962537 -1.913268 -0.530878 0
M  V30 17 C -3.252361 0.190638 0.334929 0
M  V30 18 C -4.557145 -0.011648 0.941252 0
M  V30 19 O -5.175139 0.893978 1.605263 0
M  V30 20 N -5.362941 -1.152396 0.933133 0
M  V30 21 C -6.659482 -1.289634 1.562554 0
M  V30 22 C -6.666170 -1.095015 3.040177 0
M  V30 23 N -8.060415 -1.278192 3.479891 0
M  V30 24 C -8.064572 -1.093287 4.929545 0
M  V30 25 C -8.917949 -0.232408 2.954040 0
M  V30 26 C -2.753084 1.460623 0.507630 0
M  V30 27 C -1.549147 1.909252 0.035157 0
M  V30 28 O -0.838006 3.048550 0.052163 0
M  V30 29 C -0.960867 4.308021 0.557329 0
M  V30 30 C -1.033970 4.487501 2.035942 0
M  V30 31 O -2.062639 3.882471 2.688846 0
M  V30 32 N 2.151508 -0.539065 -1.322834 0
M  V30 33 C 2.975687 -1.473631 -1.763614 0
M  V30 34 N 3.904702 -2.260614 -0.961748 0
M  V30 35 C 4.308862 -1.527455 0.195416 0
M  V30 36 C 5.675425 -0.932637 0.194258 0
M  V30 37 C 5.673877 -0.129107 1.507141 0
M  V30 38 C 4.236868 -0.131071 1.999310 0
M  V30 39 C 3.446915 -0.442690 0.694532 0
M  V30 40 H 6.908680 -4.054167 0.167666 0
M  V30 41 H 7.129833 -4.995255 -1.305836 0
M  V30 42 H 6.708627 -3.294602 -1.480165 0
M  V30 43 H 4.594077 -4.762495 0.105544 0
M  V30 44 H 4.933076 -5.477835 -1.456613 0
M  V30 45 H 3.145392 -4.100700 -1.688107 0
M  V30 46 H 4.224195 -3.660734 -5.527895 0
M  V30 47 H 2.518455 -2.978343 -5.550687 0
M  V30 48 H 3.915716 -1.872538 -5.812853 0
M  V30 49 H 1.954842 -1.085144 -5.031817 0
M  V30 50 H 1.069288 2.040990 -1.283078 0
M  V30 51 H -0.717583 -1.121173 -1.429568 0
M  V30 52 H -4.965098 -1.988406 0.406608 0
M  V30 53 H -7.366162 -0.519633 1.142181 0
M  V30 54 H -7.069575 -2.293470 1.330029 0
M  V30 55 H -6.447034 -0.040069 3.299838 0
M  V30 56 H -6.044543 -1.815482 3.588994 0
M  V30 57 H -7.315351 -1.822296 5.353916 0
M  V30 58 H -9.065178 -1.262708 5.346307 0
M  V30 59 H -7.646182 -0.083270 5.121320 0
M  V30 60 H -9.261092 -0.446707 1.905237 0
M  V30 61 H -9.839077 -0.258675 3.598726 0
M  V30 62 H -8.473545 0.764257 2.985098 0
M  V30 63 H -3.280255 2.233560 1.028800 0
M  V30 64 H -0.024467 4.879176 0.238555 0
M  V30 65 H -1.770649 4.921426 0.068199 0
M  V30 66 H -0.049012 4.166544 2.461600 0
M  V30 67 H -1.104450 5.600006 2.207359 0
M  V30 68 H -1.796537 2.926690 2.856950 0
M  V30 69 H 4.347664 -2.284626 1.059322 0
M  V30 70 H 5.856077 -0.248643 -0.665155 0
M  V30 71 H 6.483240 -1.666231 0.266510 0
M  V30 72 H 6.044482 0.899999 1.353676 0
M  V30 73 H 6.279985 -0.680782 2.252878 0
M  V30 74 H 3.965527 0.878164 2.369607 0
M  V30 75 H 4.050624 -0.893038 2.763308 0
M  V30 76 H 2.417647 -0.706455 0.980194 0
M  V30 77 H 3.536436 0.546292 0.176138 0
M  V30 END ATOM
M  V30 BEGIN BOND
M  V30 1 1 1 2
M  V30 2 1 2 3
M  V30 3 1 3 4
M  V30 4 2 4 5
M  V30 5 1 4 6
M  V30 6 1 6 7
M  V30 7 1 6 8
M  V30 8 2 8 9
M  V30 9 1 9 10
M  V30 10 2 10 11
M  V30 11 1 11 12
M  V30 12 1 12 13
M  V30 13 2 13 14
M  V30 14 1 14 15
M  V30 15 1 15 16
M  V30 16 2 15 17
M  V30 17 1 17 18
M  V30 18 2 18 19
M  V30 19 1 18 20
M  V30 20 1 20 21
M  V30 21 1 21 22
M  V30 22 1 22 23
M  V30 23 1 23 24
M  V30 24 1 23 25
M  V30 25 1 17 26
M  V30 26 2 26 27
M  V30 27 1 27 28
M  V30 28 1 28 29
M  V30 29 1 29 30
M  V30 30 1 30 31
M  V30 31 1 11 32
M  V30 32 2 32 33
M  V30 33 1 33 34
M  V30 34 1 34 35
M  V30 35 1 35 36
M  V30 36 1 36 37
M  V30 37 1 37 38
M  V30 38 1 38 39
M  V30 39 1 34 3
M  V30 40 1 39 35
M  V30 41 1 33 8
M  V30 42 1 27 13
M  V30 43 1 1 40
M  V30 44 1 1 41
M  V30 45 1 1 42
M  V30 46 1 2 43
M  V30 47 1 2 44
M  V30 48 1 3 45 CFG=3
M  V30 49 1 7 46
M  V30 50 1 7 47
M  V30 51 1 7 48
M  V30 52 1 9 49
M  V30 53 1 12 50
M  V30 54 1 14 51
M  V30 55 1 20 52
M  V30 56 1 21 53
M  V30 57 1 21 54
M  V30 58 1 22 55
M  V30 59 1 22 56
M  V30 60 1 24 57
M  V30 61 1 24 58
M  V30 62 1 24 59
M  V30 63 1 25 60
M  V30 64 1 25 61
M  V30 65 1 25 62
M  V30 66 1 26 63
M  V30 67 1 29 64
M  V30 68 1 29 65
M  V30 69 1 30 66
M  V30 70 1 30 67
M  V30 71 1 31 68
M  V30 72 1 35 69
M  V30 73 1 36 70
M  V30 74 1 36 71
M  V30 75 1 37 72
M  V30 76 1 37 73
M  V30 77 1 38 74
M  V30 78 1 38 75
M  V30 79 1 39 76
M  V30 80 1 39 77
M  V30 END BOND
M  V30 END CTAB
M  END
>  <Dataset>  (153) 
ChEMBL_Kinases

>  <Ligand_Instance>  (153) 
nan

>  <PDB_ID>  (153) 
nan

>  <Standardized_SMILES>  (153) 
CC[C@@H]1C(=O)N(C)c2cnc(Nc3cc(F)c(C(=O)NCCN(C)C)cc3OCCO)nc2N1C1CCCC1

>  <Name>  (153) 
nan

>  <Pocket>  (153) 
nan

>  <ATP_Site>  (153) 
nan

>  <Peripheral>  (153) 
nan

>  <Num_H_Atoms_ProtBoundConf>  (153) 
nan

>  <Num_Resolved_Atoms>  (153) 
nan

>  <Num_Not_Resolved_Atoms>  (153) 
nan

$$$$
CHEMBL4648060
     RDKit          3D

  0  0  0  0  0  0  0  0  0  0999 V3000
M  V30 BEGIN CTAB
M  V30 COUNTS 43 46 0 0 0
M  V30 BEGIN ATOM
M  V30 1 C 3.621439 -4.994350 2.284483 0
M  V30 2 N 2.335921 -4.689497 1.683921 0
M  V30 3 C 1.399188 -5.645114 1.116548 0
M  V30 4 C 1.754668 -3.401177 1.538895 0
M  V30 5 C 1.978615 -2.642193 0.409951 0
M  V30 6 C 1.353130 -1.413353 0.403359 0
M  V30 7 C 1.489693 -0.505026 -0.701976 0
M  V30 8 C 0.466241 -0.059935 -1.511294 0
M  V30 9 C 0.574515 0.802638 -2.565099 0
M  V30 10 N 1.798153 1.277062 -2.858327 0
M  V30 11 C 2.837283 0.875204 -2.099406 0
M  V30 12 C 2.757762 -0.005568 -1.015770 0
M  V30 13 C 0.574205 -1.011591 1.459846 0
M  V30 14 C -0.124884 0.267971 1.536485 0
M  V30 15 C 0.587528 1.469397 1.521161 0
M  V30 16 C -0.084329 2.671378 1.595434 0
M  V30 17 C -1.459739 2.625265 1.683278 0
M  V30 18 C -2.119150 3.830385 1.756784 0
M  V30 19 C -3.499091 3.938970 1.848699 0
M  V30 20 C -4.228311 2.743900 1.865299 0
M  V30 21 C -3.524672 1.560973 1.789544 0
M  V30 22 C -2.167672 1.442881 1.698770 0
M  V30 23 C -1.517874 0.228518 1.625660 0
M  V30 24 N 0.412811 -1.830700 2.530289 0
M  V30 25 N 0.994610 -3.023028 2.583238 0
M  V30 26 H 3.591910 -6.054427 2.629239 0
M  V30 27 H 4.445841 -4.806497 1.569259 0
M  V30 28 H 3.791758 -4.381543 3.204566 0
M  V30 29 H 0.429158 -5.562378 1.614020 0
M  V30 30 H 1.332419 -5.478807 0.010738 0
M  V30 31 H 1.847565 -6.670715 1.265669 0
M  V30 32 H 2.598135 -2.984896 -0.407130 0
M  V30 33 H -0.546599 -0.431208 -1.294159 0
M  V30 34 H -0.291608 1.095930 -3.145184 0
M  V30 35 H 3.845094 1.253452 -2.324883 0
M  V30 36 H 3.659526 -0.261697 -0.474039 0
M  V30 37 H 1.664759 1.404291 1.449330 0
M  V30 38 H 0.534847 3.555186 1.577603 0
M  V30 39 H -1.595592 4.777617 1.746789 0
M  V30 40 H -4.039740 4.873531 1.907214 0
M  V30 41 H -5.303699 2.825087 1.937320 0
M  V30 42 H -4.123018 0.649779 1.804940 0
M  V30 43 H -2.075829 -0.695092 1.637730 0
M  V30 END ATOM
M  V30 BEGIN BOND
M  V30 1 1 1 2
M  V30 2 1 2 3
M  V30 3 1 2 4
M  V30 4 2 4 5
M  V30 5 1 5 6
M  V30 6 1 6 7
M  V30 7 2 7 8
M  V30 8 1 8 9
M  V30 9 2 9 10
M  V30 10 1 10 11
M  V30 11 2 11 12
M  V30 12 2 6 13
M  V30 13 1 13 14
M  V30 14 2 14 15
M  V30 15 1 15 16
M  V30 16 2 16 17
M  V30 17 1 17 18
M  V30 18 2 18 19
M  V30 19 1 19 20
M  V30 20 2 20 21
M  V30 21 1 21 22
M  V30 22 2 22 23
M  V30 23 1 13 24
M  V30 24 2 24 25
M  V30 25 1 25 4
M  V30 26 1 12 7
M  V30 27 1 23 14
M  V30 28 1 22 17
M  V30 29 1 1 26
M  V30 30 1 1 27
M  V30 31 1 1 28
M  V30 32 1 3 29
M  V30 33 1 3 30
M  V30 34 1 3 31
M  V30 35 1 5 32
M  V30 36 1 8 33
M  V30 37 1 9 34
M  V30 38 1 11 35
M  V30 39 1 12 36
M  V30 40 1 15 37
M  V30 41 1 16 38
M  V30 42 1 18 39
M  V30 43 1 19 40
M  V30 44 1 20 41
M  V30 45 1 21 42
M  V30 46 1 23 43
M  V30 END BOND
M  V30 END CTAB
M  END
>  <Dataset>  (154) 
ChEMBL_Kinases

>  <Ligand_Instance>  (154) 
nan

>  <PDB_ID>  (154) 
nan

>  <Standardized_SMILES>  (154) 
CN(C)c1cc(-c2ccncc2)c(-c2ccc3ccccc3c2)nn1

>  <Name>  (154) 
nan

>  <Pocket>  (154) 
nan

>  <ATP_Site>  (154) 
nan

>  <Peripheral>  (154) 
nan

>  <Num_H_Atoms_ProtBoundConf>  (154) 
nan

>  <Num_Resolved_Atoms>  (154) 
nan

>  <Num_Not_Resolved_Atoms>  (154) 
nan

$$$$
CHEMBL4517926
     RDKit          3D

  0  0  0  0  0  0  0  0  0  0999 V3000
M  V30 BEGIN CTAB
M  V30 COUNTS 64 69 0 0 0
M  V30 BEGIN ATOM
M  V30 1 C 3.031789 4.284475 3.778637 0
M  V30 2 C 2.375950 2.954794 3.553347 0
M  V30 3 C 1.518740 2.941497 2.300654 0
M  V30 4 N 2.262152 3.166079 1.082703 0
M  V30 5 C 3.002244 4.265941 0.481323 0
M  V30 6 C 4.396256 3.840488 0.094278 0
M  V30 7 O 4.413855 2.616516 -0.600508 0
M  V30 8 C 3.378727 1.721428 -0.727738 0
M  V30 9 C 2.337376 2.085236 0.165025 0
M  V30 10 C 1.254066 1.180162 0.055366 0
M  V30 11 N 1.163441 0.096105 -0.769207 0
M  V30 12 N 2.190152 -0.169221 -1.574181 0
M  V30 13 C 2.395244 -1.145405 -2.477793 0
M  V30 14 C 1.380864 -2.170366 -2.704339 0
M  V30 15 C 1.571400 -3.207173 -3.582052 0
M  V30 16 C 0.656373 -4.217816 -3.842169 0
M  V30 17 C -0.552797 -4.204927 -3.178593 0
M  V30 18 C -1.525172 -5.141743 -3.366435 0
M  V30 19 C -2.716149 -5.006156 -2.636240 0
M  V30 20 C -2.893540 -3.940166 -1.744372 0
M  V30 21 C -1.862670 -3.010305 -1.591452 0
M  V30 22 N -2.222088 -2.005225 -0.657105 0
M  V30 23 C -3.310873 -1.647777 0.198814 0
M  V30 24 C -3.602655 -2.601510 1.324293 0
M  V30 25 C -4.764609 -2.037872 2.090074 0
M  V30 26 C -4.957566 -2.649725 3.442979 0
M  V30 27 N -3.919808 -3.549934 3.830021 0
M  V30 28 C -2.659291 -2.869029 3.631122 0
M  V30 29 C -2.381453 -2.842892 2.146995 0
M  V30 30 C -0.711255 -3.164291 -2.314744 0
M  V30 31 N 0.173737 -2.184923 -2.060815 0
M  V30 32 N 3.619570 -0.929963 -3.004441 0
M  V30 33 N 4.146082 0.164792 -2.425047 0
M  V30 34 C 3.256702 0.631006 -1.540052 0
M  V30 35 H 3.253069 4.417574 4.884848 0
M  V30 36 H 4.013304 4.414326 3.294194 0
M  V30 37 H 2.315458 5.077159 3.476736 0
M  V30 38 H 3.201983 2.213558 3.529199 0
M  V30 39 H 1.686491 2.720899 4.386954 0
M  V30 40 H 0.948635 2.006452 2.223072 0
M  V30 41 H 0.757185 3.740738 2.428868 0
M  V30 42 H 3.082686 5.066028 1.229422 0
M  V30 43 H 2.474477 4.719366 -0.382580 0
M  V30 44 H 5.024559 3.709840 1.009367 0
M  V30 45 H 4.861815 4.664622 -0.478352 0
M  V30 46 H 0.353102 1.281300 0.636511 0
M  V30 47 H 2.515449 -3.238951 -4.118920 0
M  V30 48 H 0.836678 -5.023040 -4.537437 0
M  V30 49 H -1.303435 -5.921102 -4.070020 0
M  V30 50 H -3.387220 -5.827963 -2.892834 0
M  V30 51 H -3.879157 -4.080348 -1.342348 0
M  V30 52 H -1.397703 -1.335905 -0.613430 0
M  V30 53 H -3.087313 -0.632269 0.644931 0
M  V30 54 H -4.251232 -1.441367 -0.398418 0
M  V30 55 H -3.906238 -3.571985 0.902473 0
M  V30 56 H -5.698774 -2.184775 1.511177 0
M  V30 57 H -4.643888 -0.942370 2.219940 0
M  V30 58 H -5.003229 -1.858746 4.232905 0
M  V30 59 H -5.948559 -3.170596 3.534378 0
M  V30 60 H -3.971470 -4.475503 3.359617 0
M  V30 61 H -2.745116 -1.851174 4.067781 0
M  V30 62 H -1.835101 -3.426331 4.127874 0
M  V30 63 H -1.600517 -2.072062 1.975632 0
M  V30 64 H -1.900266 -3.814855 1.913827 0
M  V30 END ATOM
M  V30 BEGIN BOND
M  V30 1 1 1 2
M  V30 2 1 2 3
M  V30 3 1 3 4
M  V30 4 1 4 5
M  V30 5 1 5 6
M  V30 6 1 6 7
M  V30 7 1 7 8
M  V30 8 2 8 9
M  V30 9 1 9 10
M  V30 10 2 10 11
M  V30 11 1 11 12
M  V30 12 1 12 13
M  V30 13 1 13 14
M  V30 14 2 14 15
M  V30 15 1 15 16
M  V30 16 2 16 17
M  V30 17 1 17 18
M  V30 18 2 18 19
M  V30 19 1 19 20
M  V30 20 2 20 21
M  V30 21 1 21 22
M  V30 22 1 22 23
M  V30 23 1 23 24
M  V30 24 1 24 25
M  V30 25 1 25 26
M  V30 26 1 26 27
M  V30 27 1 27 28
M  V30 28 1 28 29
M  V30 29 1 21 30
M  V30 30 2 30 31
M  V30 31 2 13 32
M  V30 32 1 32 33
M  V30 33 2 33 34
M  V30 34 1 9 4
M  V30 35 1 34 12
M  V30 36 1 34 8
M  V30 37 1 31 14
M  V30 38 1 30 17
M  V30 39 1 29 24
M  V30 40 1 1 35
M  V30 41 1 1 36
M  V30 42 1 1 37
M  V30 43 1 2 38
M  V30 44 1 2 39
M  V30 45 1 3 40
M  V30 46 1 3 41
M  V30 47 1 5 42
M  V30 48 1 5 43
M  V30 49 1 6 44
M  V30 50 1 6 45
M  V30 51 1 10 46
M  V30 52 1 15 47
M  V30 53 1 16 48
M  V30 54 1 18 49
M  V30 55 1 19 50
M  V30 56 1 20 51
M  V30 57 1 22 52
M  V30 58 1 23 53
M  V30 59 1 23 54
M  V30 60 1 24 55
M  V30 61 1 25 56
M  V30 62 1 25 57
M  V30 63 1 26 58
M  V30 64 1 26 59
M  V30 65 1 27 60
M  V30 66 1 28 61
M  V30 67 1 28 62
M  V30 68 1 29 63
M  V30 69 1 29 64
M  V30 END BOND
M  V30 END CTAB
M  END
>  <Dataset>  (155) 
ChEMBL_Kinases

>  <Ligand_Instance>  (155) 
nan

>  <PDB_ID>  (155) 
nan

>  <Standardized_SMILES>  (155) 
CCCN1CCOc2c1cnn1c(-c3ccc4cccc(NCC5CCNCC5)c4n3)nnc21

>  <Name>  (155) 
nan

>  <Pocket>  (155) 
nan

>  <ATP_Site>  (155) 
nan

>  <Peripheral>  (155) 
nan

>  <Num_H_Atoms_ProtBoundConf>  (155) 
nan

>  <Num_Resolved_Atoms>  (155) 
nan

>  <Num_Not_Resolved_Atoms>  (155) 
nan

$$$$
CHEMBL2062564
     RDKit          3D

  0  0  0  0  0  0  0  0  0  0999 V3000
M  V30 BEGIN CTAB
M  V30 COUNTS 44 48 0 0 0
M  V30 BEGIN ATOM
M  V30 1 C 2.735577 -5.036676 3.043612 0
M  V30 2 C 2.894710 -3.852381 2.164580 0
M  V30 3 O 3.548785 -2.802679 2.398018 0
M  V30 4 N 2.238451 -3.864937 0.881956 0
M  V30 5 C 2.232720 -2.866855 -0.134881 0
M  V30 6 C 3.210127 -2.907193 -1.100074 0
M  V30 7 C 3.344952 -2.006459 -2.161917 0
M  V30 8 C 2.375139 -0.997246 -2.197371 0
M  V30 9 C 2.227020 0.047855 -3.115779 0
M  V30 10 N 1.130787 0.724245 -2.679995 0
M  V30 11 N 0.647408 0.157819 -1.601783 0
M  V30 12 C -0.494646 0.544292 -0.821707 0
M  V30 13 C -0.229424 1.190282 0.389508 0
M  V30 14 C -1.328472 1.557778 1.131815 0
M  V30 15 N -1.135402 2.221921 2.380437 0
M  V30 16 C 0.206746 2.503868 2.856756 0
M  V30 17 C 0.388728 3.200428 4.167283 0
M  V30 18 C 0.750865 1.746005 4.020884 0
M  V30 19 N -2.582392 1.307752 0.712082 0
M  V30 20 N -3.767972 1.570997 1.260785 0
M  V30 21 C -4.762211 1.122347 0.454097 0
M  V30 22 C -4.184966 0.546722 -0.659854 0
M  V30 23 C -4.799216 -0.070362 -1.801503 0
M  V30 24 N -5.313942 -0.559297 -2.728033 0
M  V30 25 C -2.825265 0.681091 -0.463507 0
M  V30 26 N -1.759467 0.306117 -1.218551 0
M  V30 27 C 1.376257 -0.918920 -1.248988 0
M  V30 28 C 1.312304 -1.842593 -0.236621 0
M  V30 29 H 3.124291 -4.765514 4.041908 0
M  V30 30 H 3.337668 -5.899604 2.694913 0
M  V30 31 H 1.699111 -5.374943 3.170078 0
M  V30 32 H 1.673572 -4.722438 0.630937 0
M  V30 33 H 3.964259 -3.708241 -1.055827 0
M  V30 34 H 4.146454 -2.117872 -2.873139 0
M  V30 35 H 2.845778 0.262422 -3.972850 0
M  V30 36 H 0.777301 1.367452 0.681904 0
M  V30 37 H -1.952072 2.511502 2.963298 0
M  V30 38 H 0.957507 2.828321 2.094266 0
M  V30 39 H 1.221181 3.903828 4.320769 0
M  V30 40 H -0.511655 3.458840 4.782012 0
M  V30 41 H 0.134844 1.048447 4.607422 0
M  V30 42 H 1.843612 1.466531 4.015176 0
M  V30 43 H -5.835811 1.160168 0.571424 0
M  V30 44 H 0.534642 -1.793637 0.514046 0
M  V30 END ATOM
M  V30 BEGIN BOND
M  V30 1 1 1 2
M  V30 2 2 2 3
M  V30 3 1 2 4
M  V30 4 1 4 5
M  V30 5 2 5 6
M  V30 6 1 6 7
M  V30 7 2 7 8
M  V30 8 1 8 9
M  V30 9 2 9 10
M  V30 10 1 10 11
M  V30 11 1 11 12
M  V30 12 1 12 13
M  V30 13 2 13 14
M  V30 14 1 14 15
M  V30 15 1 15 16
M  V30 16 1 16 17
M  V30 17 1 17 18
M  V30 18 1 14 19
M  V30 19 1 19 20
M  V30 20 2 20 21
M  V30 21 1 21 22
M  V30 22 1 22 23
M  V30 23 3 23 24
M  V30 24 2 22 25
M  V30 25 1 25 26
M  V30 26 1 11 27
M  V30 27 2 27 28
M  V30 28 1 28 5
M  V30 29 1 27 8
M  V30 30 2 26 12
M  V30 31 1 18 16
M  V30 32 1 25 19
M  V30 33 1 1 29
M  V30 34 1 1 30
M  V30 35 1 1 31
M  V30 36 1 4 32
M  V30 37 1 6 33
M  V30 38 1 7 34
M  V30 39 1 9 35
M  V30 40 1 13 36
M  V30 41 1 15 37
M  V30 42 1 16 38
M  V30 43 1 17 39
M  V30 44 1 17 40
M  V30 45 1 18 41
M  V30 46 1 18 42
M  V30 47 1 21 43
M  V30 48 1 28 44
M  V30 END BOND
M  V30 END CTAB
M  END
>  <Dataset>  (156) 
ChEMBL_Kinases

>  <Ligand_Instance>  (156) 
nan

>  <PDB_ID>  (156) 
nan

>  <Standardized_SMILES>  (156) 
CC(=O)Nc1ccc2cnn(-c3cc(NC4CC4)n4ncc(C#N)c4n3)c2c1

>  <Name>  (156) 
nan

>  <Pocket>  (156) 
nan

>  <ATP_Site>  (156) 
nan

>  <Peripheral>  (156) 
nan

>  <Num_H_Atoms_ProtBoundConf>  (156) 
nan

>  <Num_Resolved_Atoms>  (156) 
nan

>  <Num_Not_Resolved_Atoms>  (156) 
nan

$$$$
CHEMBL4647072
     RDKit          3D

  0  0  0  0  0  0  0  0  0  0999 V3000
M  V30 BEGIN CTAB
M  V30 COUNTS 49 53 0 0 0
M  V30 BEGIN ATOM
M  V30 1 C -1.761494 -6.537318 3.509784 0
M  V30 2 C -1.047436 -5.765339 4.426519 0
M  V30 3 C -0.472818 -4.542978 4.057063 0
M  V30 4 C -0.622355 -4.103426 2.757818 0
M  V30 5 C -0.065289 -2.902360 2.369966 0
M  V30 6 C -0.198511 -2.435233 1.073148 0
M  V30 7 C 0.349837 -1.181382 0.558134 0
M  V30 8 N 1.697186 -1.082542 0.608711 0
M  V30 9 N 2.323630 0.021445 0.165590 0
M  V30 10 C 1.585980 1.054346 -0.341559 0
M  V30 11 N 2.274015 2.210268 -0.802117 0
M  V30 12 C 1.653829 3.393345 -1.368244 0
M  V30 13 C 2.574278 4.576038 -1.035647 0
M  V30 14 N 3.035707 4.363664 0.314866 0
M  V30 15 C 3.981593 3.284603 0.420482 0
M  V30 16 C 3.720777 2.321765 -0.746273 0
M  V30 17 C 0.208232 1.020130 -0.422838 0
M  V30 18 C -0.416124 -0.127982 0.039922 0
M  V30 19 C -1.861909 -0.325583 0.025809 0
M  V30 20 C -2.405259 -0.476982 1.287246 0
M  V30 21 C -3.762682 -0.672042 1.438942 0
M  V30 22 N -4.542905 -0.711137 0.329497 0
M  V30 23 C -4.045756 -0.568039 -0.899058 0
M  V30 24 C -2.691962 -0.370597 -1.097328 0
M  V30 25 C -0.904454 -3.200118 0.169858 0
M  V30 26 C -1.451020 -4.397003 0.584434 0
M  V30 27 C -1.334499 -4.887621 1.869876 0
M  V30 28 C -1.913042 -6.096457 2.201540 0
M  V30 29 H -2.206723 -7.479625 3.787276 0
M  V30 30 H -0.953999 -6.147325 5.436180 0
M  V30 31 H 0.079533 -3.954190 4.781177 0
M  V30 32 H 0.496029 -2.274628 3.052179 0
M  V30 33 H 1.538647 3.301744 -2.468529 0
M  V30 34 H 0.690881 3.634635 -0.872808 0
M  V30 35 H 1.949700 5.487144 -1.058205 0
M  V30 36 H 3.394533 4.689328 -1.765047 0
M  V30 37 H 3.445471 5.220788 0.754494 0
M  V30 38 H 3.776143 2.677416 1.342302 0
M  V30 39 H 5.002654 3.678260 0.414860 0
M  V30 40 H 4.160539 2.714604 -1.685806 0
M  V30 41 H 4.135294 1.351158 -0.447901 0
M  V30 42 H -0.401829 1.798723 -0.808985 0
M  V30 43 H -1.856180 -0.458662 2.219283 0
M  V30 44 H -4.235176 -0.796051 2.411572 0
M  V30 45 H -4.643597 -0.594112 -1.809905 0
M  V30 46 H -2.172167 -0.242338 -2.033791 0
M  V30 47 H -1.041445 -2.888610 -0.852554 0
M  V30 48 H -2.004785 -4.993254 -0.130451 0
M  V30 49 H -2.468169 -6.693921 1.484115 0
M  V30 END ATOM
M  V30 BEGIN BOND
M  V30 1 2 1 2
M  V30 2 1 2 3
M  V30 3 2 3 4
M  V30 4 1 4 5
M  V30 5 2 5 6
M  V30 6 1 6 7
M  V30 7 2 7 8
M  V30 8 1 8 9
M  V30 9 2 9 10
M  V30 10 1 10 11
M  V30 11 1 11 12
M  V30 12 1 12 13
M  V30 13 1 13 14
M  V30 14 1 14 15
M  V30 15 1 15 16
M  V30 16 1 10 17
M  V30 17 2 17 18
M  V30 18 1 18 19
M  V30 19 2 19 20
M  V30 20 1 20 21
M  V30 21 2 21 22
M  V30 22 1 22 23
M  V30 23 2 23 24
M  V30 24 1 6 25
M  V30 25 2 25 26
M  V30 26 1 26 27
M  V30 27 2 27 28
M  V30 28 1 28 1
M  V30 29 1 27 4
M  V30 30 1 18 7
M  V30 31 1 24 19
M  V30 32 1 16 11
M  V30 33 1 1 29
M  V30 34 1 2 30
M  V30 35 1 3 31
M  V30 36 1 5 32
M  V30 37 1 12 33
M  V30 38 1 12 34
M  V30 39 1 13 35
M  V30 40 1 13 36
M  V30 41 1 14 37
M  V30 42 1 15 38
M  V30 43 1 15 39
M  V30 44 1 16 40
M  V30 45 1 16 41
M  V30 46 1 17 42
M  V30 47 1 20 43
M  V30 48 1 21 44
M  V30 49 1 23 45
M  V30 50 1 24 46
M  V30 51 1 25 47
M  V30 52 1 26 48
M  V30 53 1 28 49
M  V30 END BOND
M  V30 END CTAB
M  END
>  <Dataset>  (157) 
ChEMBL_Kinases

>  <Ligand_Instance>  (157) 
nan

>  <PDB_ID>  (157) 
nan

>  <Standardized_SMILES>  (157) 
c1ccc2cc(-c3nnc(N4CCNCC4)cc3-c3ccncc3)ccc2c1

>  <Name>  (157) 
nan

>  <Pocket>  (157) 
nan

>  <ATP_Site>  (157) 
nan

>  <Peripheral>  (157) 
nan

>  <Num_H_Atoms_ProtBoundConf>  (157) 
nan

>  <Num_Resolved_Atoms>  (157) 
nan

>  <Num_Not_Resolved_Atoms>  (157) 
nan

$$$$
CHEMBL4519294
     RDKit          3D

  0  0  0  0  0  0  0  0  0  0999 V3000
M  V30 BEGIN CTAB
M  V30 COUNTS 77 81 0 0 0
M  V30 BEGIN ATOM
M  V30 1 C 6.192610 -4.639179 -0.810027 0
M  V30 2 C 4.785978 -4.709079 -0.310361 0
M  V30 3 C 3.777792 -3.855833 -0.978364 0 CFG=2
M  V30 4 C 3.629417 -4.103739 -2.439368 0
M  V30 5 O 4.411361 -4.756940 -3.213145 0
M  V30 6 N 2.456328 -3.539701 -3.071121 0
M  V30 7 C 1.826560 -4.105848 -4.280524 0
M  V30 8 C 1.935171 -2.347057 -2.445102 0
M  V30 9 C 0.827740 -1.822783 -3.041938 0
M  V30 10 N 0.329168 -0.712386 -2.474068 0
M  V30 11 C 0.877891 -0.143819 -1.384880 0
M  V30 12 N 0.451034 1.028168 -0.701272 0
M  V30 13 C -0.790044 1.238613 0.009283 0
M  V30 14 C -1.614069 0.111181 -0.084154 0
M  V30 15 C -2.860819 0.057712 0.489618 0
M  V30 16 C -3.311062 1.165796 1.184437 0
M  V30 17 C -4.610120 1.273339 1.843184 0
M  V30 18 O -5.088032 2.240080 2.497504 0
M  V30 19 N -5.520470 0.188769 1.788186 0
M  V30 20 C -6.837550 0.163627 2.394390 0
M  V30 21 C -7.838844 0.005171 1.276530 0
M  V30 22 C -7.649039 -1.342071 0.585144 0
M  V30 23 O -7.731712 -2.394534 1.461484 0
M  V30 24 C -7.952879 -2.067752 2.775086 0
M  V30 25 C -7.002822 -1.029758 3.306804 0
M  V30 26 C -2.488938 2.267491 1.268194 0
M  V30 27 C -1.234547 2.363801 0.710021 0
M  V30 28 O -0.293210 3.310575 0.668478 0
M  V30 29 C -0.097561 4.570011 1.134096 0
M  V30 30 C -0.051618 4.805982 2.605545 0
M  V30 31 O -1.152760 4.479794 3.335570 0
M  V30 32 N 1.961967 -0.712224 -0.853882 0
M  V30 33 C 2.576565 -1.821393 -1.306428 0
M  V30 34 N 3.762890 -2.460767 -0.750516 0
M  V30 35 C 4.640556 -1.510575 -0.143384 0
M  V30 36 C 5.851221 -1.115572 -0.949301 0
M  V30 37 C 6.486149 -0.085927 0.005297 0
M  V30 38 C 5.356103 0.422423 0.870203 0
M  V30 39 C 4.093471 -0.189287 0.213636 0
M  V30 40 H 6.780572 -4.006880 -0.116127 0
M  V30 41 H 6.709615 -5.626423 -0.798441 0
M  V30 42 H 6.273689 -4.165781 -1.816610 0
M  V30 43 H 4.732247 -4.578486 0.808539 0
M  V30 44 H 4.489897 -5.795387 -0.421073 0
M  V30 45 H 2.778603 -4.297282 -0.573143 0
M  V30 46 H 2.550834 -4.836675 -4.721834 0
M  V30 47 H 0.889786 -4.614897 -3.987944 0
M  V30 48 H 1.676084 -3.322396 -5.051024 0
M  V30 49 H 0.365925 -2.256075 -3.914070 0
M  V30 50 H 1.147080 1.801332 -0.730254 0
M  V30 51 H -1.359065 -0.811001 -0.605133 0
M  V30 52 H -3.512798 -0.781825 0.437853 0
M  V30 53 H -5.341601 -0.708556 1.306188 0
M  V30 54 H -7.086193 1.120516 2.921033 0
M  V30 55 H -7.719191 0.772248 0.486242 0
M  V30 56 H -8.882471 0.080574 1.615169 0
M  V30 57 H -6.751077 -1.335834 -0.040513 0
M  V30 58 H -8.513462 -1.399586 -0.134325 0
M  V30 59 H -7.775601 -2.997199 3.376347 0
M  V30 60 H -9.010654 -1.780815 2.931715 0
M  V30 61 H -7.388286 -0.725653 4.311553 0
M  V30 62 H -6.012854 -1.523349 3.381991 0
M  V30 63 H -2.814210 3.148357 1.788965 0
M  V30 64 H -0.827732 5.299750 0.683856 0
M  V30 65 H 0.917416 4.921653 0.749540 0
M  V30 66 H 0.826119 4.300710 3.086491 0
M  V30 67 H 0.104988 5.920643 2.732998 0
M  V30 68 H -0.899056 4.369245 4.282926 0
M  V30 69 H 5.081856 -1.917453 0.824117 0
M  V30 70 H 5.566164 -0.533175 -1.860553 0
M  V30 71 H 6.564420 -1.884874 -1.187146 0
M  V30 72 H 6.997288 0.704879 -0.573008 0
M  V30 73 H 7.178775 -0.672891 0.663985 0
M  V30 74 H 5.361201 1.520822 0.787665 0
M  V30 75 H 5.434534 0.123069 1.934411 0
M  V30 76 H 3.284815 -0.177053 0.971142 0
M  V30 77 H 3.940207 0.526452 -0.630708 0
M  V30 END ATOM
M  V30 BEGIN BOND
M  V30 1 1 1 2
M  V30 2 1 2 3
M  V30 3 1 3 4
M  V30 4 2 4 5
M  V30 5 1 4 6
M  V30 6 1 6 7
M  V30 7 1 6 8
M  V30 8 2 8 9
M  V30 9 1 9 10
M  V30 10 2 10 11
M  V30 11 1 11 12
M  V30 12 1 12 13
M  V30 13 2 13 14
M  V30 14 1 14 15
M  V30 15 2 15 16
M  V30 16 1 16 17
M  V30 17 2 17 18
M  V30 18 1 17 19
M  V30 19 1 19 20
M  V30 20 1 20 21
M  V30 21 1 21 22
M  V30 22 1 22 23
M  V30 23 1 23 24
M  V30 24 1 24 25
M  V30 25 1 16 26
M  V30 26 2 26 27
M  V30 27 1 27 28
M  V30 28 1 28 29
M  V30 29 1 29 30
M  V30 30 1 30 31
M  V30 31 1 11 32
M  V30 32 2 32 33
M  V30 33 1 33 34
M  V30 34 1 34 35
M  V30 35 1 35 36
M  V30 36 1 36 37
M  V30 37 1 37 38
M  V30 38 1 38 39
M  V30 39 1 34 3
M  V30 40 1 39 35
M  V30 41 1 33 8
M  V30 42 1 27 13
M  V30 43 1 25 20
M  V30 44 1 1 40
M  V30 45 1 1 41
M  V30 46 1 1 42
M  V30 47 1 2 43
M  V30 48 1 2 44
M  V30 49 1 3 45 CFG=1
M  V30 50 1 7 46
M  V30 51 1 7 47
M  V30 52 1 7 48
M  V30 53 1 9 49
M  V30 54 1 12 50
M  V30 55 1 14 51
M  V30 56 1 15 52
M  V30 57 1 19 53
M  V30 58 1 20 54
M  V30 59 1 21 55
M  V30 60 1 21 56
M  V30 61 1 22 57
M  V30 62 1 22 58
M  V30 63 1 24 59
M  V30 64 1 24 60
M  V30 65 1 25 61
M  V30 66 1 25 62
M  V30 67 1 26 63
M  V30 68 1 29 64
M  V30 69 1 29 65
M  V30 70 1 30 66
M  V30 71 1 30 67
M  V30 72 1 31 68
M  V30 73 1 35 69
M  V30 74 1 36 70
M  V30 75 1 36 71
M  V30 76 1 37 72
M  V30 77 1 37 73
M  V30 78 1 38 74
M  V30 79 1 38 75
M  V30 80 1 39 76
M  V30 81 1 39 77
M  V30 END BOND
M  V30 END CTAB
M  END
>  <Dataset>  (158) 
ChEMBL_Kinases

>  <Ligand_Instance>  (158) 
nan

>  <PDB_ID>  (158) 
nan

>  <Standardized_SMILES>  (158) 
CC[C@@H]1C(=O)N(C)c2cnc(Nc3ccc(C(=O)NC4CCOCC4)cc3OCCO)nc2N1C1CCCC1

>  <Name>  (158) 
nan

>  <Pocket>  (158) 
nan

>  <ATP_Site>  (158) 
nan

>  <Peripheral>  (158) 
nan

>  <Num_H_Atoms_ProtBoundConf>  (158) 
nan

>  <Num_Resolved_Atoms>  (158) 
nan

>  <Num_Not_Resolved_Atoms>  (158) 
nan

$$$$
CHEMBL4519558
     RDKit          3D

  0  0  0  0  0  0  0  0  0  0999 V3000
M  V30 BEGIN CTAB
M  V30 COUNTS 64 69 0 0 0
M  V30 BEGIN ATOM
M  V30 1 C 5.932154 -2.868781 -0.885747 0
M  V30 2 C 5.379849 -1.510370 -1.166729 0
M  V30 3 O 5.115844 -1.206786 -2.350659 0
M  V30 4 N 5.192634 -0.649981 -0.048166 0
M  V30 5 C 4.680148 0.684072 -0.080665 0
M  V30 6 C 5.631116 1.666390 -0.235949 0
M  V30 7 C 5.206852 2.980279 -0.275748 0
M  V30 8 C 3.858058 3.243175 -0.158680 0
M  V30 9 C 2.883059 2.290225 -0.003120 0
M  V30 10 C 1.462089 2.595357 0.116764 0
M  V30 11 C 1.014801 3.898323 0.061881 0
M  V30 12 C -0.360675 4.143103 0.169620 0
M  V30 13 C -1.139624 3.014898 0.324206 0
M  V30 14 N -2.456007 2.968864 0.448571 0
M  V30 15 C -2.951690 1.734259 0.586135 0
M  V30 16 C -4.353559 1.467682 0.708987 0
M  V30 17 C -5.223870 2.537796 0.606082 0
M  V30 18 C -6.583268 2.375690 0.667460 0
M  V30 19 C -7.180116 1.159189 0.833675 0
M  V30 20 N -6.358102 0.106572 0.936641 0
M  V30 21 C -5.041377 0.302949 0.872532 0
M  V30 22 N -4.345784 -0.910961 1.033929 0
M  V30 23 N -1.871264 1.005791 0.540371 0
M  V30 24 C -1.636516 -0.377896 0.603510 0
M  V30 25 C -1.694351 -1.149057 -0.572318 0
M  V30 26 C -1.413341 -2.477277 -0.473640 0
M  V30 27 C -1.075501 -3.108871 0.711981 0
M  V30 28 C -0.817023 -4.554048 0.575141 0
M  V30 29 N -0.189412 -4.926453 -0.678748 0
M  V30 30 C -2.030420 -5.458928 0.774111 0
M  V30 31 C -1.047671 -6.459693 1.397465 0
M  V30 32 C -0.173264 -5.257881 1.726406 0
M  V30 33 C -1.029539 -2.321182 1.838850 0
M  V30 34 C -1.297562 -0.970511 1.837313 0
M  V30 35 C -0.730560 1.701712 0.383849 0
M  V30 36 N 0.603872 1.576804 0.270630 0
M  V30 37 C 3.343962 0.995599 0.032102 0
M  V30 38 H 7.000351 -2.746457 -0.690333 0
M  V30 39 H 5.686510 -3.591393 -1.681490 0
M  V30 40 H 5.474294 -3.203394 0.074174 0
M  V30 41 H 5.423606 -0.932870 0.933729 0
M  V30 42 H 6.685764 1.443310 -0.326363 0
M  V30 43 H 5.947837 3.766671 -0.398848 0
M  V30 44 H 3.609621 4.281556 -0.199709 0
M  V30 45 H 1.657916 4.751996 -0.059859 0
M  V30 46 H -0.787733 5.119504 0.137125 0
M  V30 47 H -4.874202 3.566527 0.470946 0
M  V30 48 H -7.198760 3.253121 0.579350 0
M  V30 49 H -8.256724 1.122931 0.871082 0
M  V30 50 H -4.181485 -0.953837 2.049470 0
M  V30 51 H -4.166265 -0.972887 2.081835 0
M  V30 52 H -1.960887 -0.645637 -1.502628 0
M  V30 53 H -1.481304 -2.998959 -1.427460 0
M  V30 54 H -0.896166 -4.955748 -1.445160 0
M  V30 55 H 0.348712 -5.799414 -0.641955 0
M  V30 56 H -2.756435 -5.068545 1.488000 0
M  V30 57 H -2.463135 -5.818487 -0.181937 0
M  V30 58 H -0.584746 -7.131323 0.666348 0
M  V30 59 H -1.499321 -6.926731 2.282849 0
M  V30 60 H -0.391071 -4.839093 2.716975 0
M  V30 61 H 0.913882 -5.459436 1.558490 0
M  V30 62 H -0.763881 -2.843800 2.742666 0
M  V30 63 H -1.244596 -0.405066 2.756262 0
M  V30 64 H 2.664742 0.162030 0.152112 0
M  V30 END ATOM
M  V30 BEGIN BOND
M  V30 1 1 1 2
M  V30 2 2 2 3
M  V30 3 1 2 4
M  V30 4 1 4 5
M  V30 5 2 5 6
M  V30 6 1 6 7
M  V30 7 2 7 8
M  V30 8 1 8 9
M  V30 9 1 9 10
M  V30 10 2 10 11
M  V30 11 1 11 12
M  V30 12 2 12 13
M  V30 13 1 13 14
M  V30 14 2 14 15
M  V30 15 1 15 16
M  V30 16 2 16 17
M  V30 17 1 17 18
M  V30 18 2 18 19
M  V30 19 1 19 20
M  V30 20 2 20 21
M  V30 21 1 21 22
M  V30 22 1 15 23
M  V30 23 1 23 24
M  V30 24 2 24 25
M  V30 25 1 25 26
M  V30 26 2 26 27
M  V30 27 1 27 28
M  V30 28 1 28 29
M  V30 29 1 28 30
M  V30 30 1 30 31
M  V30 31 1 31 32
M  V30 32 1 27 33
M  V30 33 2 33 34
M  V30 34 1 23 35
M  V30 35 2 35 36
M  V30 36 2 9 37
M  V30 37 1 37 5
M  V30 38 1 36 10
M  V30 39 1 35 13
M  V30 40 1 21 16
M  V30 41 1 34 24
M  V30 42 1 32 28
M  V30 43 1 1 38
M  V30 44 1 1 39
M  V30 45 1 1 40
M  V30 46 1 4 41
M  V30 47 1 6 42
M  V30 48 1 7 43
M  V30 49 1 8 44
M  V30 50 1 11 45
M  V30 51 1 12 46
M  V30 52 1 17 47
M  V30 53 1 18 48
M  V30 54 1 19 49
M  V30 55 1 22 50
M  V30 56 1 22 51
M  V30 57 1 25 52
M  V30 58 1 26 53
M  V30 59 1 29 54
M  V30 60 1 29 55
M  V30 61 1 30 56
M  V30 62 1 30 57
M  V30 63 1 31 58
M  V30 64 1 31 59
M  V30 65 1 32 60
M  V30 66 1 32 61
M  V30 67 1 33 62
M  V30 68 1 34 63
M  V30 69 1 37 64
M  V30 END BOND
M  V30 END CTAB
M  END
>  <Dataset>  (159) 
ChEMBL_Kinases

>  <Ligand_Instance>  (159) 
nan

>  <PDB_ID>  (159) 
nan

>  <Standardized_SMILES>  (159) 
CC(=O)Nc1cccc(-c2ccc3nc(-c4cccnc4N)n(-c4ccc(C5(N)CCC5)cc4)c3n2)c1

>  <Name>  (159) 
nan

>  <Pocket>  (159) 
nan

>  <ATP_Site>  (159) 
nan

>  <Peripheral>  (159) 
nan

>  <Num_H_Atoms_ProtBoundConf>  (159) 
nan

>  <Num_Resolved_Atoms>  (159) 
nan

>  <Num_Not_Resolved_Atoms>  (159) 
nan

$$$$
CHEMBL2332097
     RDKit          3D

  0  0  0  0  0  0  0  0  0  0999 V3000
M  V30 BEGIN CTAB
M  V30 COUNTS 45 47 0 0 0
M  V30 BEGIN ATOM
M  V30 1 C 2.301777 -5.623327 0.425785 0
M  V30 2 O 1.624557 -4.490086 -0.043217 0
M  V30 3 C 2.062554 -3.629364 -1.025577 0
M  V30 4 C 3.260660 -3.725542 -1.735914 0
M  V30 5 C 3.586245 -2.789822 -2.704982 0
M  V30 6 C 2.721563 -1.727924 -2.993026 0
M  V30 7 C 1.524453 -1.614744 -2.297036 0
M  V30 8 C 0.642702 -0.479529 -2.633025 0
M  V30 9 N 0.902105 0.693999 -1.855782 0
M  V30 10 C 1.816795 1.733229 -2.201775 0
M  V30 11 C 0.189147 0.843331 -0.630596 0
M  V30 12 O -0.660672 0.039228 -0.149669 0
M  V30 13 N 0.357178 1.975264 0.244791 0
M  V30 14 C -0.517445 1.787729 1.379066 0
M  V30 15 C -1.825704 2.203365 1.521628 0
M  V30 16 C -2.480190 1.913975 2.700780 0
M  V30 17 C -1.827035 1.218231 3.717180 0
M  V30 18 C -2.555865 0.928481 4.957415 0
M  V30 19 C -2.351918 -0.188435 5.762585 0
M  V30 20 N -3.188654 -0.133313 6.813526 0
M  V30 21 N -3.929562 0.980588 6.719654 0
M  V30 22 C -3.551391 1.626938 5.599040 0
M  V30 23 C -0.514493 0.801755 3.573001 0
M  V30 24 C 0.137779 1.097036 2.382564 0
M  V30 25 C 1.256768 -2.566276 -1.353342 0
M  V30 26 H 1.529039 -6.411732 0.594060 0
M  V30 27 H 2.976066 -5.992069 -0.364478 0
M  V30 28 H 2.820739 -5.451688 1.390579 0
M  V30 29 H 3.895490 -4.557543 -1.481955 0
M  V30 30 H 4.531542 -2.916257 -3.224529 0
M  V30 31 H 2.973675 -1.008024 -3.739696 0
M  V30 32 H 0.764811 -0.265660 -3.719319 0
M  V30 33 H -0.410154 -0.847967 -2.504623 0
M  V30 34 H 2.687953 1.793553 -1.507614 0
M  V30 35 H 1.342786 2.742130 -2.237473 0
M  V30 36 H 2.221595 1.552416 -3.216324 0
M  V30 37 H 1.046572 2.734448 -0.039468 0
M  V30 38 H -2.210940 2.731263 0.660650 0
M  V30 39 H -3.492344 2.250230 2.778218 0
M  V30 40 H -1.639429 -1.008700 5.611616 0
M  V30 41 H -4.657779 1.293230 7.379703 0
M  V30 42 H -3.959024 2.563962 5.235301 0
M  V30 43 H -0.039407 0.255083 4.402392 0
M  V30 44 H 1.153053 0.730755 2.369004 0
M  V30 45 H 0.313237 -2.435223 -0.838975 0
M  V30 END ATOM
M  V30 BEGIN BOND
M  V30 1 1 1 2
M  V30 2 1 2 3
M  V30 3 2 3 4
M  V30 4 1 4 5
M  V30 5 2 5 6
M  V30 6 1 6 7
M  V30 7 1 7 8
M  V30 8 1 8 9
M  V30 9 1 9 10
M  V30 10 1 9 11
M  V30 11 2 11 12
M  V30 12 1 11 13
M  V30 13 1 13 14
M  V30 14 2 14 15
M  V30 15 1 15 16
M  V30 16 2 16 17
M  V30 17 1 17 18
M  V30 18 1 18 19
M  V30 19 2 19 20
M  V30 20 1 20 21
M  V30 21 1 21 22
M  V30 22 1 17 23
M  V30 23 2 23 24
M  V30 24 2 7 25
M  V30 25 1 25 3
M  V30 26 1 24 14
M  V30 27 2 22 18
M  V30 28 1 1 26
M  V30 29 1 1 27
M  V30 30 1 1 28
M  V30 31 1 4 29
M  V30 32 1 5 30
M  V30 33 1 6 31
M  V30 34 1 8 32
M  V30 35 1 8 33
M  V30 36 1 10 34
M  V30 37 1 10 35
M  V30 38 1 10 36
M  V30 39 1 13 37
M  V30 40 1 15 38
M  V30 41 1 16 39
M  V30 42 1 19 40
M  V30 43 1 21 41
M  V30 44 1 22 42
M  V30 45 1 23 43
M  V30 46 1 24 44
M  V30 47 1 25 45
M  V30 END BOND
M  V30 END CTAB
M  END
>  <Dataset>  (160) 
ChEMBL_Kinases

>  <Ligand_Instance>  (160) 
nan

>  <PDB_ID>  (160) 
nan

>  <Standardized_SMILES>  (160) 
COc1cccc(CN(C)C(=O)Nc2ccc(-c3cn[nH]c3)cc2)c1

>  <Name>  (160) 
nan

>  <Pocket>  (160) 
nan

>  <ATP_Site>  (160) 
nan

>  <Peripheral>  (160) 
nan

>  <Num_H_Atoms_ProtBoundConf>  (160) 
nan

>  <Num_Resolved_Atoms>  (160) 
nan

>  <Num_Not_Resolved_Atoms>  (160) 
nan

$$$$
CHEMBL4520113
     RDKit          3D

  0  0  0  0  0  0  0  0  0  0999 V3000
M  V30 BEGIN CTAB
M  V30 COUNTS 64 67 0 0 0
M  V30 BEGIN ATOM
M  V30 1 C 3.743580 -2.046977 3.976530 0
M  V30 2 O 3.312433 -1.108196 3.203268 0
M  V30 3 C 2.957728 -0.186229 2.364605 0
M  V30 4 C 3.738484 -0.138720 1.224868 0
M  V30 5 C 3.558839 0.743375 0.189974 0
M  V30 6 C 4.362029 0.775366 -1.085716 0
M  V30 7 C 3.813580 -0.308572 -2.013104 0
M  V30 8 C 2.353649 -0.077986 -2.264860 0
M  V30 9 O 1.333051 0.682502 -2.235919 0
M  V30 10 N 1.674279 -1.240513 -2.799288 0
M  V30 11 C 0.287025 -0.879768 -2.970083 0
M  V30 12 C -0.516416 -1.014692 -1.822376 0
M  V30 13 C -1.884649 -0.751452 -1.679270 0
M  V30 14 C -2.465081 -0.944941 -0.362198 0
M  V30 15 N -2.165053 -0.183187 0.699769 0
M  V30 16 C -2.848617 -0.589280 1.800198 0
M  V30 17 S -2.832931 0.047220 3.487784 0
M  V30 18 C -1.549538 -0.874184 4.377635 0
M  V30 19 N -3.598379 -1.642554 1.395972 0
M  V30 20 C -3.355920 -1.853076 0.069068 0
M  V30 21 C -4.082435 -2.960779 -0.518049 0
M  V30 22 C -4.979378 -2.588747 -1.460451 0
M  V30 23 C -5.689373 -3.608950 -2.005612 0
M  V30 24 C -5.788438 -4.938776 -1.899484 0
M  V30 25 F -6.035706 -6.263387 -1.928069 0
M  V30 26 C -4.790376 -5.226157 -0.872157 0
M  V30 27 C -3.936339 -4.330286 -0.165162 0
M  V30 28 C -2.458315 -0.309973 -2.839928 0
M  V30 29 C -1.708770 -0.164219 -3.980152 0
M  V30 30 N -0.396360 -0.430883 -4.063028 0
M  V30 31 C 2.500561 1.635594 0.365528 0
M  V30 32 C 1.647108 1.684625 1.477025 0
M  V30 33 O 0.735988 2.581373 1.444454 0
M  V30 34 C -0.128961 3.524472 1.282211 0
M  V30 35 C 1.961870 0.721578 2.426793 0
M  V30 36 O 1.142432 0.728186 3.549215 0
M  V30 37 C 1.508201 1.546222 4.649102 0
M  V30 38 H 4.889449 -2.031456 4.063801 0
M  V30 39 H 3.421461 -2.068718 5.057834 0
M  V30 40 H 3.575747 -3.127436 3.658295 0
M  V30 41 H 4.590856 -0.810450 1.035367 0
M  V30 42 H 4.247484 1.740511 -1.588988 0
M  V30 43 H 5.427747 0.570765 -0.928600 0
M  V30 44 H 3.949264 -1.305187 -1.611321 0
M  V30 45 H 4.346380 -0.209687 -2.963663 0
M  V30 46 H 2.060672 -2.212398 -3.046309 0
M  V30 47 H -0.004397 -1.377499 -0.912512 0
M  V30 48 H -1.513277 0.625667 0.767702 0
M  V30 49 H -2.003637 -1.777032 4.839357 0
M  V30 50 H -0.815483 -1.237514 3.634165 0
M  V30 51 H -1.023013 -0.240384 5.116797 0
M  V30 52 H -5.288589 -1.669742 -1.907268 0
M  V30 53 H -6.480783 -3.576061 -2.794275 0
M  V30 54 H -4.376414 -6.117425 -0.325265 0
M  V30 55 H -3.156709 -4.352889 0.609933 0
M  V30 56 H -3.526254 -0.097772 -2.761079 0
M  V30 57 H -2.178614 0.184096 -4.888530 0
M  V30 58 H 2.364062 2.363808 -0.447826 0
M  V30 59 H 0.238640 4.601319 1.405895 0
M  V30 60 H -0.684268 3.553024 0.274027 0
M  V30 61 H -1.030577 3.545064 1.994060 0
M  V30 62 H 1.119172 1.130890 5.599157 0
M  V30 63 H 1.044575 2.570104 4.549860 0
M  V30 64 H 2.597166 1.732993 4.684008 0
M  V30 END ATOM
M  V30 BEGIN BOND
M  V30 1 1 1 2
M  V30 2 1 2 3
M  V30 3 2 3 4
M  V30 4 1 4 5
M  V30 5 1 5 6
M  V30 6 1 6 7
M  V30 7 1 7 8
M  V30 8 2 8 9
M  V30 9 1 8 10
M  V30 10 1 10 11
M  V30 11 2 11 12
M  V30 12 1 12 13
M  V30 13 1 13 14
M  V30 14 1 14 15
M  V30 15 1 15 16
M  V30 16 1 16 17
M  V30 17 1 17 18
M  V30 18 2 16 19
M  V30 19 1 19 20
M  V30 20 1 20 21
M  V30 21 2 21 22
M  V30 22 1 22 23
M  V30 23 2 23 24
M  V30 24 1 24 25
M  V30 25 1 24 26
M  V30 26 2 26 27
M  V30 27 2 13 28
M  V30 28 1 28 29
M  V30 29 2 29 30
M  V30 30 2 5 31
M  V30 31 1 31 32
M  V30 32 1 32 33
M  V30 33 1 33 34
M  V30 34 2 32 35
M  V30 35 1 35 36
M  V30 36 1 36 37
M  V30 37 1 35 3
M  V30 38 1 30 11
M  V30 39 2 20 14
M  V30 40 1 27 21
M  V30 41 1 1 38
M  V30 42 1 1 39
M  V30 43 1 1 40
M  V30 44 1 4 41
M  V30 45 1 6 42
M  V30 46 1 6 43
M  V30 47 1 7 44
M  V30 48 1 7 45
M  V30 49 1 10 46
M  V30 50 1 12 47
M  V30 51 1 15 48
M  V30 52 1 18 49
M  V30 53 1 18 50
M  V30 54 1 18 51
M  V30 55 1 22 52
M  V30 56 1 23 53
M  V30 57 1 26 54
M  V30 58 1 27 55
M  V30 59 1 28 56
M  V30 60 1 29 57
M  V30 61 1 31 58
M  V30 62 1 34 59
M  V30 63 1 34 60
M  V30 64 1 34 61
M  V30 65 1 37 62
M  V30 66 1 37 63
M  V30 67 1 37 64
M  V30 END BOND
M  V30 END CTAB
M  END
>  <Dataset>  (161) 
ChEMBL_Kinases

>  <Ligand_Instance>  (161) 
nan

>  <PDB_ID>  (161) 
nan

>  <Standardized_SMILES>  (161) 
COc1cc(CCC(=O)Nc2cc(-c3[nH]c(SC)nc3-c3ccc(F)cc3)ccn2)cc(OC)c1OC

>  <Name>  (161) 
nan

>  <Pocket>  (161) 
nan

>  <ATP_Site>  (161) 
nan

>  <Peripheral>  (161) 
nan

>  <Num_H_Atoms_ProtBoundConf>  (161) 
nan

>  <Num_Resolved_Atoms>  (161) 
nan

>  <Num_Not_Resolved_Atoms>  (161) 
nan

$$$$
CHEMBL2332068
     RDKit          3D

  0  0  0  0  0  0  0  0  0  0999 V3000
M  V30 BEGIN CTAB
M  V30 COUNTS 56 58 0 0 0
M  V30 BEGIN ATOM
M  V30 1 C 3.126149 -0.653801 6.610879 0
M  V30 2 O 3.187336 -1.978665 6.119933 0
M  V30 3 C 3.070643 -2.226722 4.762193 0
M  V30 4 C 3.132705 -3.555844 4.343627 0
M  V30 5 C 3.021779 -3.861843 3.007821 0
M  V30 6 C 2.845914 -2.849392 2.058087 0
M  V30 7 C 2.778034 -1.501197 2.428825 0
M  V30 8 C 2.599446 -0.412064 1.440487 0
M  V30 9 N 1.187167 -0.084535 1.235183 0
M  V30 10 C 0.630582 0.911962 2.142900 0
M  V30 11 C 0.831704 2.322663 1.676245 0
M  V30 12 N 0.154434 2.542998 0.421457 0
M  V30 13 C 0.652684 3.877089 -0.036050 0
M  V30 14 C -1.284810 2.724366 0.699623 0
M  V30 15 C 0.560896 -0.755383 0.163435 0
M  V30 16 O 1.276424 -1.539444 -0.540662 0
M  V30 17 N -0.755823 -0.714232 -0.289831 0
M  V30 18 C -1.547984 -1.276583 -1.311673 0
M  V30 19 C -2.880092 -0.941040 -1.387162 0
M  V30 20 C -3.632243 -1.487476 -2.402640 0
M  V30 21 C -3.099184 -2.351036 -3.336244 0
M  V30 22 C -4.054609 -2.815520 -4.335001 0
M  V30 23 C -5.409512 -3.009168 -4.100984 0
M  V30 24 N -6.020903 -3.437088 -5.227928 0
M  V30 25 N -5.081652 -3.517837 -6.164267 0
M  V30 26 C -3.863880 -3.149050 -5.669683 0
M  V30 27 C -1.768568 -2.708729 -3.289436 0
M  V30 28 C -1.041827 -2.140656 -2.255064 0
M  V30 29 C 2.896235 -1.253315 3.785340 0
M  V30 30 H 3.765580 0.058028 6.054507 0
M  V30 31 H 2.078626 -0.242076 6.509322 0
M  V30 32 H 3.461415 -0.593259 7.672006 0
M  V30 33 H 3.268419 -4.364814 5.055875 0
M  V30 34 H 3.070495 -4.902358 2.649750 0
M  V30 35 H 2.771855 -3.160103 1.029726 0
M  V30 36 H 3.081851 0.496671 1.854346 0
M  V30 37 H 3.072438 -0.683668 0.461215 0
M  V30 38 H -0.416947 0.714521 2.382462 0
M  V30 39 H 1.174289 0.849178 3.130847 0
M  V30 40 H 1.919969 2.576444 1.583041 0
M  V30 41 H 0.379279 3.001082 2.448759 0
M  V30 42 H -0.110008 4.215962 -0.759134 0
M  V30 43 H 0.734993 4.489944 0.870925 0
M  V30 44 H 1.641847 3.684199 -0.454327 0
M  V30 45 H -1.825786 2.520388 -0.243146 0
M  V30 46 H -1.429508 3.754763 1.095735 0
M  V30 47 H -1.578968 2.037940 1.497387 0
M  V30 48 H -1.260866 -0.059997 0.388441 0
M  V30 49 H -3.336287 -0.260427 -0.666556 0
M  V30 50 H -4.685404 -1.183722 -2.414188 0
M  V30 51 H -5.998894 -2.875851 -3.209426 0
M  V30 52 H -5.241084 -3.824164 -7.162153 0
M  V30 53 H -2.910728 -3.100077 -6.147254 0
M  V30 54 H -1.390633 -3.385182 -4.034145 0
M  V30 55 H -0.001014 -2.444814 -2.248206 0
M  V30 56 H 2.877533 -0.282933 4.227627 0
M  V30 END ATOM
M  V30 BEGIN BOND
M  V30 1 1 1 2
M  V30 2 1 2 3
M  V30 3 2 3 4
M  V30 4 1 4 5
M  V30 5 2 5 6
M  V30 6 1 6 7
M  V30 7 1 7 8
M  V30 8 1 8 9
M  V30 9 1 9 10
M  V30 10 1 10 11
M  V30 11 1 11 12
M  V30 12 1 12 13
M  V30 13 1 12 14
M  V30 14 1 9 15
M  V30 15 2 15 16
M  V30 16 1 15 17
M  V30 17 1 17 18
M  V30 18 2 18 19
M  V30 19 1 19 20
M  V30 20 2 20 21
M  V30 21 1 21 22
M  V30 22 1 22 23
M  V30 23 2 23 24
M  V30 24 1 24 25
M  V30 25 1 25 26
M  V30 26 1 21 27
M  V30 27 2 27 28
M  V30 28 2 7 29
M  V30 29 1 29 3
M  V30 30 1 28 18
M  V30 31 2 26 22
M  V30 32 1 1 30
M  V30 33 1 1 31
M  V30 34 1 1 32
M  V30 35 1 4 33
M  V30 36 1 5 34
M  V30 37 1 6 35
M  V30 38 1 8 36
M  V30 39 1 8 37
M  V30 40 1 10 38
M  V30 41 1 10 39
M  V30 42 1 11 40
M  V30 43 1 11 41
M  V30 44 1 13 42
M  V30 45 1 13 43
M  V30 46 1 13 44
M  V30 47 1 14 45
M  V30 48 1 14 46
M  V30 49 1 14 47
M  V30 50 1 17 48
M  V30 51 1 19 49
M  V30 52 1 20 50
M  V30 53 1 23 51
M  V30 54 1 25 52
M  V30 55 1 26 53
M  V30 56 1 27 54
M  V30 57 1 28 55
M  V30 58 1 29 56
M  V30 END BOND
M  V30 END CTAB
M  END
>  <Dataset>  (162) 
ChEMBL_Kinases

>  <Ligand_Instance>  (162) 
nan

>  <PDB_ID>  (162) 
nan

>  <Standardized_SMILES>  (162) 
COc1cccc(CN(CCN(C)C)C(=O)Nc2ccc(-c3cn[nH]c3)cc2)c1

>  <Name>  (162) 
nan

>  <Pocket>  (162) 
nan

>  <ATP_Site>  (162) 
nan

>  <Peripheral>  (162) 
nan

>  <Num_H_Atoms_ProtBoundConf>  (162) 
nan

>  <Num_Resolved_Atoms>  (162) 
nan

>  <Num_Not_Resolved_Atoms>  (162) 
nan

$$$$
CHEMBL2332065
     RDKit          3D

  0  0  0  0  0  0  0  0  0  0999 V3000
M  V30 BEGIN CTAB
M  V30 COUNTS 49 51 0 0 0
M  V30 BEGIN ATOM
M  V30 1 C 1.893485 1.954835 -3.798092 0
M  V30 2 O 1.263606 3.201948 -3.585627 0
M  V30 3 C -0.040936 3.253124 -3.096439 0
M  V30 4 C -0.619771 4.484976 -2.902570 0
M  V30 5 C -1.909627 4.477176 -2.417697 0
M  V30 6 C -2.614299 3.327484 -2.130949 0
M  V30 7 C -2.001669 2.089016 -2.337462 0
M  V30 8 C -2.831274 0.901156 -2.004110 0
M  V30 9 N -2.678928 0.472821 -0.626183 0
M  V30 10 C -3.524074 1.011661 0.414646 0
M  V30 11 C -4.784963 0.196140 0.610384 0
M  V30 12 O -5.573042 0.130683 -0.528598 0
M  V30 13 C -1.668379 -0.493728 -0.346082 0
M  V30 14 O -0.963031 -0.930717 -1.290810 0
M  V30 15 N -1.358532 -1.035306 0.918246 0
M  V30 16 C -0.272848 -1.970818 0.725160 0
M  V30 17 C 0.960924 -1.359800 0.852239 0
M  V30 18 C 2.130837 -2.115494 0.694052 0
M  V30 19 C 1.991037 -3.470326 0.411257 0
M  V30 20 C 3.207113 -4.270454 0.241864 0
M  V30 21 C 4.352374 -3.667255 -0.294591 0
M  V30 22 N 5.347760 -4.585755 -0.360878 0
M  V30 23 N 4.860279 -5.711180 0.108155 0
M  V30 24 C 3.579113 -5.573298 0.483080 0
M  V30 25 C 0.748110 -4.069756 0.286751 0
M  V30 26 C -0.403894 -3.319270 0.443864 0
M  V30 27 C -0.712394 2.090107 -2.821856 0
M  V30 28 H 2.889221 2.127641 -4.268340 0
M  V30 29 H 1.315450 1.337612 -4.526429 0
M  V30 30 H 1.977164 1.476054 -2.804152 0
M  V30 31 H -0.051815 5.359146 -3.132931 0
M  V30 32 H -2.357049 5.473044 -2.268659 0
M  V30 33 H -3.609407 3.485473 -1.760111 0
M  V30 34 H -3.911804 1.097469 -2.160522 0
M  V30 35 H -2.476876 0.072555 -2.680966 0
M  V30 36 H -3.031841 1.024329 1.420940 0
M  V30 37 H -3.874444 2.039485 0.135285 0
M  V30 38 H -4.578153 -0.811218 1.019671 0
M  V30 39 H -5.380386 0.722698 1.394858 0
M  V30 40 H -6.255512 0.821979 -0.539252 0
M  V30 41 H -1.935590 -0.687437 1.738101 0
M  V30 42 H 1.138319 -0.320953 1.068903 0
M  V30 43 H 3.126332 -1.695945 0.781509 0
M  V30 44 H 4.620721 -2.673511 -0.656540 0
M  V30 45 H 5.358310 -6.643258 0.205462 0
M  V30 46 H 2.855612 -6.247426 0.903694 0
M  V30 47 H 0.628889 -5.126259 0.066284 0
M  V30 48 H -1.412843 -3.684171 0.368137 0
M  V30 49 H -0.263768 1.118453 -2.972664 0
M  V30 END ATOM
M  V30 BEGIN BOND
M  V30 1 1 1 2
M  V30 2 1 2 3
M  V30 3 2 3 4
M  V30 4 1 4 5
M  V30 5 2 5 6
M  V30 6 1 6 7
M  V30 7 1 7 8
M  V30 8 1 8 9
M  V30 9 1 9 10
M  V30 10 1 10 11
M  V30 11 1 11 12
M  V30 12 1 9 13
M  V30 13 2 13 14
M  V30 14 1 13 15
M  V30 15 1 15 16
M  V30 16 2 16 17
M  V30 17 1 17 18
M  V30 18 2 18 19
M  V30 19 1 19 20
M  V30 20 1 20 21
M  V30 21 2 21 22
M  V30 22 1 22 23
M  V30 23 1 23 24
M  V30 24 1 19 25
M  V30 25 2 25 26
M  V30 26 2 7 27
M  V30 27 1 27 3
M  V30 28 1 26 16
M  V30 29 2 24 20
M  V30 30 1 1 28
M  V30 31 1 1 29
M  V30 32 1 1 30
M  V30 33 1 4 31
M  V30 34 1 5 32
M  V30 35 1 6 33
M  V30 36 1 8 34
M  V30 37 1 8 35
M  V30 38 1 10 36
M  V30 39 1 10 37
M  V30 40 1 11 38
M  V30 41 1 11 39
M  V30 42 1 12 40
M  V30 43 1 15 41
M  V30 44 1 17 42
M  V30 45 1 18 43
M  V30 46 1 21 44
M  V30 47 1 23 45
M  V30 48 1 24 46
M  V30 49 1 25 47
M  V30 50 1 26 48
M  V30 51 1 27 49
M  V30 END BOND
M  V30 END CTAB
M  END
>  <Dataset>  (163) 
ChEMBL_Kinases

>  <Ligand_Instance>  (163) 
nan

>  <PDB_ID>  (163) 
nan

>  <Standardized_SMILES>  (163) 
COc1cccc(CN(CCO)C(=O)Nc2ccc(-c3cn[nH]c3)cc2)c1

>  <Name>  (163) 
nan

>  <Pocket>  (163) 
nan

>  <ATP_Site>  (163) 
nan

>  <Peripheral>  (163) 
nan

>  <Num_H_Atoms_ProtBoundConf>  (163) 
nan

>  <Num_Resolved_Atoms>  (163) 
nan

>  <Num_Not_Resolved_Atoms>  (163) 
nan

$$$$
CHEMBL2332060
     RDKit          3D

  0  0  0  0  0  0  0  0  0  0999 V3000
M  V30 BEGIN CTAB
M  V30 COUNTS 64 67 0 0 0
M  V30 BEGIN ATOM
M  V30 1 C 1.811777 -0.225774 4.351928 0
M  V30 2 C 1.324676 0.334510 3.059904 0
M  V30 3 N 1.767252 -0.473784 1.913075 0
M  V30 4 C 3.036933 -0.141836 1.279238 0
M  V30 5 C 2.882652 0.842928 0.176077 0
M  V30 6 C 2.663514 0.421140 -1.111324 0
M  V30 7 C 2.507019 1.247814 -2.197893 0
M  V30 8 C 2.572841 2.610750 -1.995187 0
M  V30 9 C 2.794035 3.094871 -0.704531 0
M  V30 10 O 2.885911 4.448651 -0.339666 0
M  V30 11 C 2.768113 5.517425 -1.224960 0
M  V30 12 C 2.948167 2.223252 0.374467 0
M  V30 13 C 1.013981 -1.581940 1.376383 0
M  V30 14 O 1.329172 -2.313618 0.399382 0
M  V30 15 N -0.245426 -1.910501 2.011467 0
M  V30 16 C -0.831777 -3.022014 1.343136 0
M  V30 17 C -0.523581 -4.322243 1.678430 0
M  V30 18 C -1.126442 -5.355140 0.988936 0
M  V30 19 C -2.022897 -5.065230 -0.019337 0
M  V30 20 C -2.623665 -6.203975 -0.705284 0
M  V30 21 C -2.877756 -7.414955 -0.066331 0
M  V30 22 N -3.432648 -8.293880 -0.917030 0
M  V30 23 N -3.532950 -7.663199 -2.074416 0
M  V30 24 C -3.059559 -6.400328 -2.001670 0
M  V30 25 C -2.316923 -3.731905 -0.337459 0
M  V30 26 C -1.715872 -2.665196 0.350833 0
M  V30 27 O -2.169278 -1.494272 -0.146175 0
M  V30 28 C -1.934604 -0.181325 0.169740 0 CFG=1
M  V30 29 C -1.426520 0.628343 -1.036716 0
M  V30 30 C -1.618724 2.024709 -0.489163 0
M  V30 31 N -2.765847 1.976233 0.393562 0
M  V30 32 C -2.412547 2.356046 1.755173 0
M  V30 33 C -3.224779 0.608357 0.428834 0
M  V30 34 H 2.593895 0.407026 4.769147 0
M  V30 35 H 0.925141 -0.252841 5.042341 0
M  V30 36 H 2.112698 -1.278886 4.182558 0
M  V30 37 H 1.720174 1.375626 2.928715 0
M  V30 38 H 0.232782 0.427248 2.983792 0
M  V30 39 H 3.686013 0.279889 2.101117 0
M  V30 40 H 3.536828 -1.074605 0.923695 0
M  V30 41 H 2.593341 -0.639991 -1.384070 0
M  V30 42 H 2.334456 0.895783 -3.208968 0
M  V30 43 H 2.465959 3.367769 -2.768608 0
M  V30 44 H 2.112071 5.297280 -2.088690 0
M  V30 45 H 3.753567 5.900915 -1.577888 0
M  V30 46 H 2.273530 6.398150 -0.719644 0
M  V30 47 H 3.120392 2.561383 1.384733 0
M  V30 48 H -0.644401 -1.400936 2.830838 0
M  V30 49 H 0.192347 -4.429074 2.485075 0
M  V30 50 H -0.826198 -6.337678 1.318136 0
M  V30 51 H -2.660057 -7.629075 0.979879 0
M  V30 52 H -3.929830 -8.076449 -2.955623 0
M  V30 53 H -2.991465 -5.628344 -2.740632 0
M  V30 54 H -3.045342 -3.676577 -1.157369 0
M  V30 55 H -1.280735 0.056259 1.003513 0
M  V30 56 H -0.394970 0.389889 -1.294058 0
M  V30 57 H -2.138313 0.491398 -1.891075 0
M  V30 58 H -1.745641 2.789843 -1.288003 0
M  V30 59 H -0.709349 2.228503 0.130333 0
M  V30 60 H -3.038321 3.211090 2.078461 0
M  V30 61 H -2.588664 1.527374 2.480109 0
M  V30 62 H -1.334046 2.595388 1.835073 0
M  V30 63 H -3.923482 0.372417 -0.370675 0
M  V30 64 H -3.636162 0.391931 1.438084 0
M  V30 END ATOM
M  V30 BEGIN BOND
M  V30 1 1 1 2
M  V30 2 1 2 3
M  V30 3 1 3 4
M  V30 4 1 4 5
M  V30 5 2 5 6
M  V30 6 1 6 7
M  V30 7 2 7 8
M  V30 8 1 8 9
M  V30 9 1 9 10
M  V30 10 1 10 11
M  V30 11 2 9 12
M  V30 12 1 3 13
M  V30 13 2 13 14
M  V30 14 1 13 15
M  V30 15 1 15 16
M  V30 16 2 16 17
M  V30 17 1 17 18
M  V30 18 2 18 19
M  V30 19 1 19 20
M  V30 20 1 20 21
M  V30 21 2 21 22
M  V30 22 1 22 23
M  V30 23 1 23 24
M  V30 24 1 19 25
M  V30 25 2 25 26
M  V30 26 1 26 27
M  V30 27 1 27 28
M  V30 28 1 28 29
M  V30 29 1 29 30
M  V30 30 1 30 31
M  V30 31 1 31 32
M  V30 32 1 31 33
M  V30 33 1 12 5
M  V30 34 1 26 16
M  V30 35 1 33 28
M  V30 36 2 24 20
M  V30 37 1 1 34
M  V30 38 1 1 35
M  V30 39 1 1 36
M  V30 40 1 2 37
M  V30 41 1 2 38
M  V30 42 1 4 39
M  V30 43 1 4 40
M  V30 44 1 6 41
M  V30 45 1 7 42
M  V30 46 1 8 43
M  V30 47 1 11 44
M  V30 48 1 11 45
M  V30 49 1 11 46
M  V30 50 1 12 47
M  V30 51 1 15 48
M  V30 52 1 17 49
M  V30 53 1 18 50
M  V30 54 1 21 51
M  V30 55 1 23 52
M  V30 56 1 24 53
M  V30 57 1 25 54
M  V30 58 1 28 55 CFG=1
M  V30 59 1 29 56
M  V30 60 1 29 57
M  V30 61 1 30 58
M  V30 62 1 30 59
M  V30 63 1 32 60
M  V30 64 1 32 61
M  V30 65 1 32 62
M  V30 66 1 33 63
M  V30 67 1 33 64
M  V30 END BOND
M  V30 END CTAB
M  END
>  <Dataset>  (164) 
ChEMBL_Kinases

>  <Ligand_Instance>  (164) 
nan

>  <PDB_ID>  (164) 
nan

>  <Standardized_SMILES>  (164) 
CCN(Cc1cccc(OC)c1)C(=O)Nc1ccc(-c2cn[nH]c2)cc1O[C@H]1CCN(C)C1

>  <Name>  (164) 
nan

>  <Pocket>  (164) 
nan

>  <ATP_Site>  (164) 
nan

>  <Peripheral>  (164) 
nan

>  <Num_H_Atoms_ProtBoundConf>  (164) 
nan

>  <Num_Resolved_Atoms>  (164) 
nan

>  <Num_Not_Resolved_Atoms>  (164) 
nan

$$$$
CHEMBL2332056
     RDKit          3D

  0  0  0  0  0  0  0  0  0  0999 V3000
M  V30 BEGIN CTAB
M  V30 COUNTS 45 47 0 0 0
M  V30 BEGIN ATOM
M  V30 1 O -0.346531 0.301842 1.355389 0
M  V30 2 C 0.441653 -0.648367 1.318090 0
M  V30 3 N 1.728628 -0.533456 0.696682 0
M  V30 4 C 1.999347 0.748533 0.143055 0
M  V30 5 C 2.585225 1.854265 0.714239 0
M  V30 6 C 2.732682 2.992790 -0.049745 0
M  V30 7 C 2.321041 3.079805 -1.363095 0
M  V30 8 C 2.502880 4.307256 -2.119359 0
M  V30 9 C 1.604827 4.677532 -3.127727 0
M  V30 10 N 1.993199 5.847833 -3.673141 0
M  V30 11 N 3.096822 6.236428 -3.056396 0
M  V30 12 C 3.414638 5.316368 -2.117405 0
M  V30 13 C 1.731713 1.967095 -1.937478 0
M  V30 14 C 1.568339 0.796225 -1.186361 0
M  V30 15 N 0.115401 -1.921203 1.893639 0
M  V30 16 C -1.177549 -2.112087 2.542329 0
M  V30 17 C -0.959115 -2.340904 3.999008 0
M  V30 18 C -0.128224 -3.527997 4.353398 0
M  V30 19 O -0.044107 -3.556590 5.763794 0
M  V30 20 C -1.976806 -3.155420 1.863847 0
M  V30 21 C -3.337565 -2.973352 1.608987 0
M  V30 22 C -4.061532 -3.966035 0.969431 0
M  V30 23 C -3.462133 -5.133096 0.578964 0
M  V30 24 C -2.117900 -5.309809 0.832165 0
M  V30 25 F -1.522196 -6.463582 0.446519 0
M  V30 26 C -1.350874 -4.339448 1.472066 0
M  V30 27 H 2.389414 -1.345385 0.670310 0
M  V30 28 H 2.871437 1.691692 1.734502 0
M  V30 29 H 3.200735 3.816358 0.469371 0
M  V30 30 H 0.707012 4.200312 -3.510742 0
M  V30 31 H 3.669254 7.111527 -3.233834 0
M  V30 32 H 4.256850 5.302114 -1.417080 0
M  V30 33 H 1.427358 2.073092 -2.953095 0
M  V30 34 H 1.095376 0.012859 -1.763445 0
M  V30 35 H 0.782525 -2.737318 1.866969 0
M  V30 36 H -1.692739 -1.127535 2.440727 0
M  V30 37 H -1.912060 -2.387883 4.579977 0
M  V30 38 H -0.442156 -1.438143 4.396990 0
M  V30 39 H -0.550602 -4.489055 4.006970 0
M  V30 40 H 0.909812 -3.466357 3.973010 0
M  V30 41 H 0.048798 -4.487415 6.100997 0
M  V30 42 H -3.775904 -2.044850 1.929276 0
M  V30 43 H -5.123141 -3.763786 0.798862 0
M  V30 44 H -4.074326 -5.878854 0.081354 0
M  V30 45 H -0.310671 -4.558997 1.628134 0
M  V30 END ATOM
M  V30 BEGIN BOND
M  V30 1 2 1 2
M  V30 2 1 2 3
M  V30 3 1 3 4
M  V30 4 2 4 5
M  V30 5 1 5 6
M  V30 6 2 6 7
M  V30 7 1 7 8
M  V30 8 1 8 9
M  V30 9 2 9 10
M  V30 10 1 10 11
M  V30 11 1 11 12
M  V30 12 1 7 13
M  V30 13 2 13 14
M  V30 14 1 2 15
M  V30 15 1 15 16
M  V30 16 1 16 17
M  V30 17 1 17 18
M  V30 18 1 18 19
M  V30 19 1 16 20
M  V30 20 2 20 21
M  V30 21 1 21 22
M  V30 22 2 22 23
M  V30 23 1 23 24
M  V30 24 1 24 25
M  V30 25 2 24 26
M  V30 26 1 14 4
M  V30 27 1 26 20
M  V30 28 2 12 8
M  V30 29 1 3 27
M  V30 30 1 5 28
M  V30 31 1 6 29
M  V30 32 1 9 30
M  V30 33 1 11 31
M  V30 34 1 12 32
M  V30 35 1 13 33
M  V30 36 1 14 34
M  V30 37 1 15 35
M  V30 38 1 16 36
M  V30 39 1 17 37
M  V30 40 1 17 38
M  V30 41 1 18 39
M  V30 42 1 18 40
M  V30 43 1 19 41
M  V30 44 1 21 42
M  V30 45 1 22 43
M  V30 46 1 23 44
M  V30 47 1 26 45
M  V30 END BOND
M  V30 END CTAB
M  END
>  <Dataset>  (165) 
ChEMBL_Kinases

>  <Ligand_Instance>  (165) 
nan

>  <PDB_ID>  (165) 
nan

>  <Standardized_SMILES>  (165) 
O=C(Nc1ccc(-c2cn[nH]c2)cc1)NC(CCO)c1cccc(F)c1

>  <Name>  (165) 
nan

>  <Pocket>  (165) 
nan

>  <ATP_Site>  (165) 
nan

>  <Peripheral>  (165) 
nan

>  <Num_H_Atoms_ProtBoundConf>  (165) 
nan

>  <Num_Resolved_Atoms>  (165) 
nan

>  <Num_Not_Resolved_Atoms>  (165) 
nan

$$$$
CHEMBL4521282
     RDKit          3D

  0  0  0  0  0  0  0  0  0  0999 V3000
M  V30 BEGIN CTAB
M  V30 COUNTS 31 34 0 0 0
M  V30 BEGIN ATOM
M  V30 1 C -0.675289 -4.324001 4.377554 0
M  V30 2 C -0.443265 -3.784530 3.011467 0
M  V30 3 C -0.376081 -4.515640 1.843268 0
M  V30 4 C -0.154894 -3.902191 0.627375 0
M  V30 5 C -0.002566 -2.511754 0.632868 0
M  V30 6 N 0.214289 -1.871178 -0.525325 0
M  V30 7 C 0.374155 -0.540377 -0.631595 0
M  V30 8 C 0.309587 0.214618 0.536685 0
M  V30 9 N 0.090311 -0.428464 1.711865 0
M  V30 10 C -0.066555 -1.762531 1.791550 0
M  V30 11 C -0.289537 -2.404999 2.996387 0
M  V30 12 C 0.506669 1.632166 0.211121 0
M  V30 13 C 0.536217 2.785322 0.981152 0
M  V30 14 C 0.746927 4.017593 0.386331 0
M  V30 15 C 0.934264 4.133242 -0.995557 0
M  V30 16 C 0.887307 2.932459 -1.669274 0
M  V30 17 C 0.684503 1.684877 -1.150381 0
M  V30 18 C 0.616903 0.366674 -1.762986 0
M  V30 19 N 0.736653 0.028996 -3.004335 0
M  V30 20 O 0.625697 -1.326920 -3.306301 0
M  V30 21 H 0.160716 -3.926114 5.011956 0
M  V30 22 H -0.765921 -5.409493 4.427067 0
M  V30 23 H -1.603352 -3.821319 4.771439 0
M  V30 24 H -0.507309 -5.580618 1.954256 0
M  V30 25 H -0.106499 -4.496905 -0.273323 0
M  V30 26 H -0.329787 -1.770316 3.867523 0
M  V30 27 H 0.396510 2.747870 2.054191 0
M  V30 28 H 0.771817 4.924398 0.978741 0
M  V30 29 H 1.102623 5.066342 -1.515646 0
M  V30 30 H 1.032299 3.000601 -2.757420 0
M  V30 31 H -0.251757 -1.682119 -3.665190 0
M  V30 END ATOM
M  V30 BEGIN BOND
M  V30 1 1 1 2
M  V30 2 2 2 3
M  V30 3 1 3 4
M  V30 4 2 4 5
M  V30 5 1 5 6
M  V30 6 2 6 7
M  V30 7 1 7 8
M  V30 8 2 8 9
M  V30 9 1 9 10
M  V30 10 2 10 11
M  V30 11 1 8 12
M  V30 12 2 12 13
M  V30 13 1 13 14
M  V30 14 2 14 15
M  V30 15 1 15 16
M  V30 16 2 16 17
M  V30 17 1 17 18
M  V30 18 2 18 19
M  V30 19 1 19 20
M  V30 20 1 11 2
M  V30 21 1 17 12
M  V30 22 1 10 5
M  V30 23 1 18 7
M  V30 24 1 1 21
M  V30 25 1 1 22
M  V30 26 1 1 23
M  V30 27 1 3 24
M  V30 28 1 4 25
M  V30 29 1 11 26
M  V30 30 1 13 27
M  V30 31 1 14 28
M  V30 32 1 15 29
M  V30 33 1 16 30
M  V30 34 1 20 31
M  V30 END BOND
M  V30 END CTAB
M  END
>  <Dataset>  (166) 
ChEMBL_Kinases

>  <Ligand_Instance>  (166) 
nan

>  <PDB_ID>  (166) 
nan

>  <Standardized_SMILES>  (166) 
Cc1ccc2nc3c(nc2c1)-c1ccccc1/C3=N/O

>  <Name>  (166) 
nan

>  <Pocket>  (166) 
nan

>  <ATP_Site>  (166) 
nan

>  <Peripheral>  (166) 
nan

>  <Num_H_Atoms_ProtBoundConf>  (166) 
nan

>  <Num_Resolved_Atoms>  (166) 
nan

>  <Num_Not_Resolved_Atoms>  (166) 
nan

$$$$
CHEMBL4521605
     RDKit          3D

  0  0  0  0  0  0  0  0  0  0999 V3000
M  V30 BEGIN CTAB
M  V30 COUNTS 55 60 0 0 0
M  V30 BEGIN ATOM
M  V30 1 C 1.603269 -3.773509 3.951694 0
M  V30 2 N 2.784212 -3.218620 3.279229 0
M  V30 3 C 4.177192 -3.627957 3.395365 0
M  V30 4 C 5.005149 -2.395003 3.726924 0
M  V30 5 O 4.959747 -1.526329 2.588061 0
M  V30 6 C 3.673595 -1.321672 2.066716 0
M  V30 7 C 2.583957 -2.133344 2.385169 0
M  V30 8 C 1.345896 -1.859970 1.824374 0
M  V30 9 N 1.175854 -0.810202 0.966242 0
M  V30 10 N 2.212813 -0.019853 0.649360 0
M  V30 11 C 2.289618 1.054516 -0.158009 0
M  V30 12 C 1.202519 1.665424 -0.936608 0
M  V30 13 C 1.505570 2.772807 -1.705477 0
M  V30 14 C 0.492399 3.356180 -2.441939 0
M  V30 15 C -0.799765 2.850199 -2.416642 0
M  V30 16 C -1.834779 3.408244 -3.139765 0
M  V30 17 C -3.098699 2.857367 -3.071883 0
M  V30 18 C -3.349421 1.735224 -2.276842 0
M  V30 19 C -2.310414 1.157910 -1.537719 0
M  V30 20 N -2.587373 0.016372 -0.735129 0
M  V30 21 C -2.374291 0.043922 0.690358 0
M  V30 22 C -2.324824 -1.380109 1.203289 0
M  V30 23 C -3.580349 -2.161152 0.911609 0
M  V30 24 N -3.251667 -3.571817 0.957729 0
M  V30 25 C -4.166246 -1.833998 -0.420444 0
M  V30 26 C -3.092924 -1.222618 -1.298985 0
M  V30 27 C -1.061258 1.741069 -1.634683 0
M  V30 28 N -0.051692 1.178920 -0.915619 0
M  V30 29 N 3.589260 1.457513 -0.101757 0
M  V30 30 N 4.262126 0.655893 0.706967 0
M  V30 31 C 3.416136 -0.282489 1.192052 0
M  V30 32 H 0.999311 -4.267500 3.162421 0
M  V30 33 H 1.895649 -4.553597 4.674017 0
M  V30 34 H 0.955365 -2.985779 4.375194 0
M  V30 35 H 4.339497 -4.436942 4.124018 0
M  V30 36 H 4.579413 -3.984165 2.408575 0
M  V30 37 H 6.038017 -2.657324 3.999545 0
M  V30 38 H 4.481666 -1.850235 4.544552 0
M  V30 39 H 0.526333 -2.501037 2.087490 0
M  V30 40 H 2.500541 3.213835 -1.764652 0
M  V30 41 H 0.645409 4.239925 -3.080665 0
M  V30 42 H -1.596045 4.277583 -3.743116 0
M  V30 43 H -3.860239 3.352087 -3.668851 0
M  V30 44 H -4.354669 1.364707 -2.275036 0
M  V30 45 H -3.239628 0.532353 1.155785 0
M  V30 46 H -1.406183 0.497624 0.973554 0
M  V30 47 H -1.417690 -1.854168 0.783671 0
M  V30 48 H -2.157055 -1.355236 2.307103 0
M  V30 49 H -4.355802 -1.992849 1.680972 0
M  V30 50 H -3.108271 -4.008163 0.030448 0
M  V30 51 H -2.496097 -3.784388 1.642296 0
M  V30 52 H -4.461943 -2.780980 -0.948000 0
M  V30 53 H -5.048780 -1.167841 -0.399981 0
M  V30 54 H -2.304971 -2.005723 -1.388786 0
M  V30 55 H -3.604356 -1.046044 -2.276944 0
M  V30 END ATOM
M  V30 BEGIN BOND
M  V30 1 1 1 2
M  V30 2 1 2 3
M  V30 3 1 3 4
M  V30 4 1 4 5
M  V30 5 1 5 6
M  V30 6 2 6 7
M  V30 7 1 7 8
M  V30 8 2 8 9
M  V30 9 1 9 10
M  V30 10 1 10 11
M  V30 11 1 11 12
M  V30 12 2 12 13
M  V30 13 1 13 14
M  V30 14 2 14 15
M  V30 15 1 15 16
M  V30 16 2 16 17
M  V30 17 1 17 18
M  V30 18 2 18 19
M  V30 19 1 19 20
M  V30 20 1 20 21
M  V30 21 1 21 22
M  V30 22 1 22 23
M  V30 23 1 23 24
M  V30 24 1 23 25
M  V30 25 1 25 26
M  V30 26 1 19 27
M  V30 27 2 27 28
M  V30 28 2 11 29
M  V30 29 1 29 30
M  V30 30 2 30 31
M  V30 31 1 7 2
M  V30 32 1 31 10
M  V30 33 1 31 6
M  V30 34 1 28 12
M  V30 35 1 27 15
M  V30 36 1 26 20
M  V30 37 1 1 32
M  V30 38 1 1 33
M  V30 39 1 1 34
M  V30 40 1 3 35
M  V30 41 1 3 36
M  V30 42 1 4 37
M  V30 43 1 4 38
M  V30 44 1 8 39
M  V30 45 1 13 40
M  V30 46 1 14 41
M  V30 47 1 16 42
M  V30 48 1 17 43
M  V30 49 1 18 44
M  V30 50 1 21 45
M  V30 51 1 21 46
M  V30 52 1 22 47
M  V30 53 1 22 48
M  V30 54 1 23 49
M  V30 55 1 24 50
M  V30 56 1 24 51
M  V30 57 1 25 52
M  V30 58 1 25 53
M  V30 59 1 26 54
M  V30 60 1 26 55
M  V30 END BOND
M  V30 END CTAB
M  END
>  <Dataset>  (167) 
ChEMBL_Kinases

>  <Ligand_Instance>  (167) 
nan

>  <PDB_ID>  (167) 
nan

>  <Standardized_SMILES>  (167) 
CN1CCOc2c1cnn1c(-c3ccc4cccc(N5CCC(N)CC5)c4n3)nnc21

>  <Name>  (167) 
nan

>  <Pocket>  (167) 
nan

>  <ATP_Site>  (167) 
nan

>  <Peripheral>  (167) 
nan

>  <Num_H_Atoms_ProtBoundConf>  (167) 
nan

>  <Num_Resolved_Atoms>  (167) 
nan

>  <Num_Not_Resolved_Atoms>  (167) 
nan

$$$$
CHEMBL4521827
     RDKit          3D

  0  0  0  0  0  0  0  0  0  0999 V3000
M  V30 BEGIN CTAB
M  V30 COUNTS 56 61 0 0 0
M  V30 BEGIN ATOM
M  V30 1 C 3.888842 -2.606988 5.190801 0
M  V30 2 N 4.511192 -2.816755 3.903844 0
M  V30 3 C 5.612201 -3.739611 3.708290 0
M  V30 4 C 6.495448 -3.380541 2.552417 0
M  V30 5 O 5.881865 -2.664682 1.528207 0
M  V30 6 C 4.691405 -1.992728 1.605719 0
M  V30 7 C 3.993533 -2.069288 2.813132 0
M  V30 8 C 2.798082 -1.388261 2.875520 0
M  V30 9 N 2.261712 -0.665323 1.872673 0
M  V30 10 N 2.944514 -0.601657 0.719099 0
M  V30 11 C 2.677749 0.027640 -0.445882 0
M  V30 12 C 1.469665 0.827065 -0.657462 0
M  V30 13 C 1.641156 2.169302 -0.802514 0
M  V30 14 C 0.495254 2.929285 -1.003412 0
M  V30 15 C -0.743955 2.323840 -1.048999 0
M  V30 16 C -1.846980 3.129314 -1.251252 0
M  V30 17 C -3.052296 2.462185 -1.286163 0
M  V30 18 N -3.194129 1.114710 -1.137648 0
M  V30 19 C -2.136773 0.341308 -0.943620 0
M  V30 20 N -2.307795 -1.073878 -0.789701 0
M  V30 21 C -3.707535 -1.527515 -0.865268 0
M  V30 22 C -4.564636 -0.940063 0.182740 0
M  V30 23 C -5.756402 -0.160313 -0.189828 0
M  V30 24 C -6.285299 -0.282067 -1.570414 0
M  V30 25 C -5.722543 -1.428280 -2.342885 0
M  V30 26 C -4.212496 -1.437190 -2.279127 0
M  V30 27 C -0.918844 0.968125 -0.902652 0
M  V30 28 C 0.218234 0.247489 -0.707328 0
M  V30 29 N 3.694261 -0.227594 -1.298771 0
M  V30 30 N 4.580998 -1.008357 -0.664356 0
M  V30 31 C 4.119450 -1.245022 0.593636 0
M  V30 32 H 4.004741 -1.554480 5.500167 0
M  V30 33 H 4.371607 -3.205307 5.996396 0
M  V30 34 H 2.818038 -2.928402 5.181058 0
M  V30 35 H 5.148511 -4.750104 3.588515 0
M  V30 36 H 6.215415 -3.809219 4.657290 0
M  V30 37 H 7.441454 -2.889519 2.903192 0
M  V30 38 H 6.846946 -4.351594 2.116584 0
M  V30 39 H 2.245429 -1.439107 3.807572 0
M  V30 40 H 2.593063 2.682204 -0.773230 0
M  V30 41 H 0.602227 3.997587 -1.121666 0
M  V30 42 H -1.841016 4.187661 -1.377959 0
M  V30 43 H -3.992782 2.977361 -1.437978 0
M  V30 44 H -1.538992 -1.760814 -0.636178 0
M  V30 45 H -3.646625 -2.641894 -0.667091 0
M  V30 46 H -3.893813 -0.237018 0.779065 0
M  V30 47 H -4.800095 -1.729282 0.965870 0
M  V30 48 H -5.673215 0.931147 0.121685 0
M  V30 49 H -6.593104 -0.512880 0.496148 0
M  V30 50 H -6.171733 0.676018 -2.162944 0
M  V30 51 H -7.405157 -0.429809 -1.577065 0
M  V30 52 H -6.001968 -1.312861 -3.411084 0
M  V30 53 H -6.142112 -2.352829 -1.945461 0
M  V30 54 H -3.805334 -0.521028 -2.752929 0
M  V30 55 H -3.881563 -2.291558 -2.905561 0
M  V30 56 H 0.197703 -0.824284 -0.580349 0
M  V30 END ATOM
M  V30 BEGIN BOND
M  V30 1 1 1 2
M  V30 2 1 2 3
M  V30 3 1 3 4
M  V30 4 1 4 5
M  V30 5 1 5 6
M  V30 6 2 6 7
M  V30 7 1 7 8
M  V30 8 2 8 9
M  V30 9 1 9 10
M  V30 10 1 10 11
M  V30 11 1 11 12
M  V30 12 2 12 13
M  V30 13 1 13 14
M  V30 14 2 14 15
M  V30 15 1 15 16
M  V30 16 2 16 17
M  V30 17 1 17 18
M  V30 18 2 18 19
M  V30 19 1 19 20
M  V30 20 1 20 21
M  V30 21 1 21 22
M  V30 22 1 22 23
M  V30 23 1 23 24
M  V30 24 1 24 25
M  V30 25 1 25 26
M  V30 26 1 19 27
M  V30 27 2 27 28
M  V30 28 2 11 29
M  V30 29 1 29 30
M  V30 30 2 30 31
M  V30 31 1 7 2
M  V30 32 1 31 10
M  V30 33 1 31 6
M  V30 34 1 28 12
M  V30 35 1 27 15
M  V30 36 1 26 21
M  V30 37 1 1 32
M  V30 38 1 1 33
M  V30 39 1 1 34
M  V30 40 1 3 35
M  V30 41 1 3 36
M  V30 42 1 4 37
M  V30 43 1 4 38
M  V30 44 1 8 39
M  V30 45 1 13 40
M  V30 46 1 14 41
M  V30 47 1 16 42
M  V30 48 1 17 43
M  V30 49 1 20 44
M  V30 50 1 21 45
M  V30 51 1 22 46
M  V30 52 1 22 47
M  V30 53 1 23 48
M  V30 54 1 23 49
M  V30 55 1 24 50
M  V30 56 1 24 51
M  V30 57 1 25 52
M  V30 58 1 25 53
M  V30 59 1 26 54
M  V30 60 1 26 55
M  V30 61 1 28 56
M  V30 END BOND
M  V30 END CTAB
M  END
>  <Dataset>  (168) 
ChEMBL_Kinases

>  <Ligand_Instance>  (168) 
nan

>  <PDB_ID>  (168) 
nan

>  <Standardized_SMILES>  (168) 
CN1CCOc2c1cnn1c(-c3ccc4ccnc(NC5CCCCC5)c4c3)nnc21

>  <Name>  (168) 
nan

>  <Pocket>  (168) 
nan

>  <ATP_Site>  (168) 
nan

>  <Peripheral>  (168) 
nan

>  <Num_H_Atoms_ProtBoundConf>  (168) 
nan

>  <Num_Resolved_Atoms>  (168) 
nan

>  <Num_Not_Resolved_Atoms>  (168) 
nan

$$$$
CHEMBL4523032
     RDKit          3D

  0  0  0  0  0  0  0  0  0  0999 V3000
M  V30 BEGIN CTAB
M  V30 COUNTS 57 62 0 0 0
M  V30 BEGIN ATOM
M  V30 1 N 5.253840 -0.939537 2.388786 0
M  V30 2 C 4.649309 -2.041748 1.742251 0
M  V30 3 N 5.471807 -3.123209 1.640574 0
M  V30 4 C 5.075175 -4.262452 1.058258 0
M  V30 5 C 3.807597 -4.314535 0.561546 0
M  V30 6 C 2.990355 -3.219504 0.670357 0
M  V30 7 C 3.342686 -2.042515 1.250360 0
M  V30 8 C 2.562782 -0.844119 1.412464 0
M  V30 9 N 3.033006 0.258668 2.008542 0
M  V30 10 C 2.105455 1.225153 2.027151 0
M  V30 11 C 2.118858 2.507895 2.519808 0
M  V30 12 C 0.952383 3.252550 2.364150 0
M  V30 13 C -0.175405 2.752374 1.749843 0
M  V30 14 C -1.391979 3.539012 1.591123 0
M  V30 15 C -1.548609 4.837374 2.025775 0
M  V30 16 C -2.712875 5.556782 1.861086 0
M  V30 17 C -3.747983 4.904860 1.223671 0
M  V30 18 C -3.688626 3.608762 0.753275 0
M  V30 19 C -2.482651 2.973499 0.965647 0
M  V30 20 N -0.112726 1.488563 1.293001 0
M  V30 21 C 0.978751 0.722396 1.412272 0
M  V30 22 N 1.309244 -0.531888 1.059708 0
M  V30 23 C 0.387206 -1.364171 0.396148 0
M  V30 24 C -0.511535 -2.205184 1.060612 0
M  V30 25 C -1.358567 -2.952394 0.300187 0
M  V30 26 C -1.370410 -2.917493 -1.095542 0
M  V30 27 C -2.355820 -3.795086 -1.730507 0
M  V30 28 N -2.456031 -5.063358 -1.021633 0
M  V30 29 C -3.684822 -3.107091 -1.945407 0
M  V30 30 C -3.813876 -3.944023 -3.213911 0
M  V30 31 C -2.279841 -4.001653 -3.205433 0
M  V30 32 C -0.465697 -2.072894 -1.703214 0
M  V30 33 C 0.420918 -1.287654 -1.001850 0
M  V30 34 H 5.127907 -0.238369 3.141635 0
M  V30 35 H 5.103263 -0.246794 3.150090 0
M  V30 36 H 5.715657 -5.137383 0.966629 0
M  V30 37 H 3.448356 -5.223471 0.080842 0
M  V30 38 H 2.010162 -3.307923 0.267974 0
M  V30 39 H 3.001523 2.907709 3.003783 0
M  V30 40 H 0.981709 4.247851 2.753499 0
M  V30 41 H -0.726420 5.321412 2.519227 0
M  V30 42 H -2.820706 6.569219 2.205383 0
M  V30 43 H -4.684571 5.443956 1.076112 0
M  V30 44 H -4.479787 3.096802 0.260875 0
M  V30 45 H -2.385787 1.946806 0.611797 0
M  V30 46 H -0.495485 -2.225735 2.134654 0
M  V30 47 H -2.031513 -3.584525 0.871176 0
M  V30 48 H -2.906780 -5.771865 -1.674779 0
M  V30 49 H -1.454258 -5.405171 -0.966092 0
M  V30 50 H -3.521875 -2.050168 -2.222419 0
M  V30 51 H -4.456274 -3.252765 -1.186236 0
M  V30 52 H -4.280410 -4.928012 -3.054042 0
M  V30 53 H -4.218780 -3.371649 -4.063041 0
M  V30 54 H -1.842119 -3.183005 -3.805400 0
M  V30 55 H -1.945996 -5.017382 -3.511775 0
M  V30 56 H -0.492448 -2.062387 -2.769630 0
M  V30 57 H 1.114725 -0.638283 -1.518269 0
M  V30 END ATOM
M  V30 BEGIN BOND
M  V30 1 1 1 2
M  V30 2 2 2 3
M  V30 3 1 3 4
M  V30 4 2 4 5
M  V30 5 1 5 6
M  V30 6 2 6 7
M  V30 7 1 7 8
M  V30 8 2 8 9
M  V30 9 1 9 10
M  V30 10 2 10 11
M  V30 11 1 11 12
M  V30 12 2 12 13
M  V30 13 1 13 14
M  V30 14 2 14 15
M  V30 15 1 15 16
M  V30 16 2 16 17
M  V30 17 1 17 18
M  V30 18 2 18 19
M  V30 19 1 13 20
M  V30 20 2 20 21
M  V30 21 1 21 22
M  V30 22 1 22 23
M  V30 23 2 23 24
M  V30 24 1 24 25
M  V30 25 2 25 26
M  V30 26 1 26 27
M  V30 27 1 27 28
M  V30 28 1 27 29
M  V30 29 1 29 30
M  V30 30 1 30 31
M  V30 31 1 26 32
M  V30 32 2 32 33
M  V30 33 1 7 2
M  V30 34 1 22 8
M  V30 35 1 33 23
M  V30 36 1 21 10
M  V30 37 1 31 27
M  V30 38 1 19 14
M  V30 39 1 1 34
M  V30 40 1 1 35
M  V30 41 1 4 36
M  V30 42 1 5 37
M  V30 43 1 6 38
M  V30 44 1 11 39
M  V30 45 1 12 40
M  V30 46 1 15 41
M  V30 47 1 16 42
M  V30 48 1 17 43
M  V30 49 1 18 44
M  V30 50 1 19 45
M  V30 51 1 24 46
M  V30 52 1 25 47
M  V30 53 1 28 48
M  V30 54 1 28 49
M  V30 55 1 29 50
M  V30 56 1 29 51
M  V30 57 1 30 52
M  V30 58 1 30 53
M  V30 59 1 31 54
M  V30 60 1 31 55
M  V30 61 1 32 56
M  V30 62 1 33 57
M  V30 END BOND
M  V30 END CTAB
M  END
>  <Dataset>  (169) 
ChEMBL_Kinases

>  <Ligand_Instance>  (169) 
nan

>  <PDB_ID>  (169) 
nan

>  <Standardized_SMILES>  (169) 
Nc1ncccc1-c1nc2ccc(-c3ccccc3)nc2n1-c1ccc(C2(N)CCC2)cc1

>  <Name>  (169) 
nan

>  <Pocket>  (169) 
nan

>  <ATP_Site>  (169) 
nan

>  <Peripheral>  (169) 
nan

>  <Num_H_Atoms_ProtBoundConf>  (169) 
nan

>  <Num_Resolved_Atoms>  (169) 
nan

>  <Num_Not_Resolved_Atoms>  (169) 
nan

$$$$
CHEMBL452307
     RDKit          3D

  0  0  0  0  0  0  0  0  0  0999 V3000
M  V30 BEGIN CTAB
M  V30 COUNTS 59 61 0 0 0
M  V30 BEGIN ATOM
M  V30 1 C 1.554916 -1.866163 6.812171 0
M  V30 2 N 1.781168 -2.411521 5.512128 0
M  V30 3 C 1.799919 -3.870504 5.413175 0
M  V30 4 C 1.980468 -1.642018 4.358236 0
M  V30 5 C 1.974234 -0.262964 4.393798 0
M  V30 6 C 2.167812 0.522241 3.268530 0
M  V30 7 C 2.378411 -0.070460 2.044969 0
M  V30 8 C 2.597374 0.550117 0.742375 0
M  V30 9 C 1.911826 1.634520 0.474423 0
M  V30 10 C 0.906482 2.455106 1.185915 0
M  V30 11 C 0.151208 3.136419 0.092499 0
M  V30 12 C -0.032582 4.640011 0.438799 0
M  V30 13 O -0.643852 5.224623 -0.668170 0
M  V30 14 C -1.175909 2.516847 -0.136733 0
M  V30 15 O -1.319346 1.267186 -0.598482 0
M  V30 16 C -1.098606 -0.003390 -0.338405 0
M  V30 17 O -0.556733 -0.365138 0.705611 0
M  V30 18 C -1.506630 -1.034015 -1.316147 0
M  V30 19 C -2.125653 -0.757917 -2.530027 0
M  V30 20 C -2.483632 -1.765566 -3.399425 0
M  V30 21 C -2.244007 -3.084695 -3.102812 0
M  V30 22 N -2.618123 -4.114064 -4.003535 0
M  V30 23 C -3.267142 -3.945608 -5.285660 0
M  V30 24 C -2.425759 -5.530651 -3.818084 0
M  V30 25 C -1.633585 -3.396834 -1.911387 0
M  V30 26 C -1.283599 -2.370154 -1.056017 0
M  V30 27 O 0.969331 3.167535 -1.057856 0
M  V30 28 C 2.047973 2.343221 -0.790627 0
M  V30 29 O 2.974332 2.331499 -1.673872 0
M  V30 30 C 2.387783 -1.471095 1.992033 0
M  V30 31 C 2.191774 -2.235548 3.131884 0
M  V30 32 H 0.862916 -2.524360 7.415992 0
M  V30 33 H 2.479916 -1.815485 7.421622 0
M  V30 34 H 1.013789 -0.889038 6.769563 0
M  V30 35 H 2.762882 -4.216881 4.968819 0
M  V30 36 H 1.505721 -4.372793 6.334085 0
M  V30 37 H 1.030953 -4.118148 4.623234 0
M  V30 38 H 1.815713 0.289193 5.312548 0
M  V30 39 H 2.174419 1.591998 3.238023 0
M  V30 40 H 3.296173 0.130611 0.033434 0
M  V30 41 H 1.416261 3.297280 1.748676 0
M  V30 42 H 0.221460 1.910984 1.830490 0
M  V30 43 H -0.578026 4.773368 1.374152 0
M  V30 44 H 0.963681 5.114858 0.551134 0
M  V30 45 H 0.027228 5.341145 -1.386855 0
M  V30 46 H -1.826315 2.640958 0.792956 0
M  V30 47 H -1.724966 3.205192 -0.863286 0
M  V30 48 H -2.303838 0.295793 -2.741327 0
M  V30 49 H -2.948254 -1.420306 -4.289811 0
M  V30 50 H -3.451386 -2.893127 -5.568436 0
M  V30 51 H -4.229261 -4.505718 -5.323131 0
M  V30 52 H -2.629035 -4.340914 -6.130411 0
M  V30 53 H -3.444123 -6.000029 -3.794925 0
M  V30 54 H -1.829059 -5.812140 -2.943938 0
M  V30 55 H -1.844877 -5.948243 -4.693775 0
M  V30 56 H -1.399337 -4.396089 -1.579491 0
M  V30 57 H -0.802268 -2.593291 -0.112784 0
M  V30 58 H 2.547750 -2.041198 1.064763 0
M  V30 59 H 2.200897 -3.309578 3.078918 0
M  V30 END ATOM
M  V30 BEGIN BOND
M  V30 1 1 1 2
M  V30 2 1 2 3
M  V30 3 1 2 4
M  V30 4 2 4 5
M  V30 5 1 5 6
M  V30 6 2 6 7
M  V30 7 1 7 8
M  V30 8 2 8 9
M  V30 9 1 9 10
M  V30 10 1 10 11
M  V30 11 1 11 12
M  V30 12 1 12 13
M  V30 13 1 11 14
M  V30 14 1 14 15
M  V30 15 1 15 16
M  V30 16 2 16 17
M  V30 17 1 16 18
M  V30 18 2 18 19
M  V30 19 1 19 20
M  V30 20 2 20 21
M  V30 21 1 21 22
M  V30 22 1 22 23
M  V30 23 1 22 24
M  V30 24 1 21 25
M  V30 25 2 25 26
M  V30 26 1 11 27
M  V30 27 1 27 28
M  V30 28 2 28 29
M  V30 29 1 7 30
M  V30 30 2 30 31
M  V30 31 1 31 4
M  V30 32 1 28 9
M  V30 33 1 26 18
M  V30 34 1 1 32
M  V30 35 1 1 33
M  V30 36 1 1 34
M  V30 37 1 3 35
M  V30 38 1 3 36
M  V30 39 1 3 37
M  V30 40 1 5 38
M  V30 41 1 6 39
M  V30 42 1 8 40
M  V30 43 1 10 41
M  V30 44 1 10 42
M  V30 45 1 12 43
M  V30 46 1 12 44
M  V30 47 1 13 45
M  V30 48 1 14 46
M  V30 49 1 14 47
M  V30 50 1 19 48
M  V30 51 1 20 49
M  V30 52 1 23 50
M  V30 53 1 23 51
M  V30 54 1 23 52
M  V30 55 1 24 53
M  V30 56 1 24 54
M  V30 57 1 24 55
M  V30 58 1 25 56
M  V30 59 1 26 57
M  V30 60 1 30 58
M  V30 61 1 31 59
M  V30 END BOND
M  V30 END CTAB
M  END
>  <Dataset>  (170) 
ChEMBL_Kinases

>  <Ligand_Instance>  (170) 
nan

>  <PDB_ID>  (170) 
nan

>  <Standardized_SMILES>  (170) 
CN(C)c1ccc(/C=C2\CC(CO)(COC(=O)c3ccc(N(C)C)cc3)OC2=O)cc1

>  <Name>  (170) 
nan

>  <Pocket>  (170) 
nan

>  <ATP_Site>  (170) 
nan

>  <Peripheral>  (170) 
nan

>  <Num_H_Atoms_ProtBoundConf>  (170) 
nan

>  <Num_Resolved_Atoms>  (170) 
nan

>  <Num_Not_Resolved_Atoms>  (170) 
nan

$$$$
CHEMBL2062563
     RDKit          3D

  0  0  0  0  0  0  0  0  0  0999 V3000
M  V30 BEGIN CTAB
M  V30 COUNTS 45 49 0 0 0
M  V30 BEGIN ATOM
M  V30 1 C -0.038841 -4.967629 4.170792 0
M  V30 2 C 0.852243 -4.019887 3.458443 0
M  V30 3 O 1.468687 -3.095444 4.067752 0
M  V30 4 N 1.028713 -4.141166 2.050604 0
M  V30 5 C 1.842922 -3.321162 1.211296 0
M  V30 6 C 3.166424 -3.624957 0.959407 0
M  V30 7 C 3.903793 -2.789476 0.136187 0
M  V30 8 C 3.312290 -1.671115 -0.419070 0
M  V30 9 C 3.838877 -0.690946 -1.267631 0
M  V30 10 C 2.798792 0.205811 -1.516910 0
M  V30 11 N 1.690245 -0.197319 -0.858993 0
M  V30 12 C 0.385503 0.365718 -0.789789 0
M  V30 13 C -0.111593 1.062829 0.291041 0
M  V30 14 C -1.354787 1.623958 0.411740 0
M  V30 15 N -1.811693 2.320726 1.558953 0
M  V30 16 C -1.345327 2.668362 2.846076 0
M  V30 17 C 0.004835 3.436758 2.811601 0
M  V30 18 C -0.184208 2.145060 3.560097 0
M  V30 19 N -2.161563 1.454067 -0.677859 0
M  V30 20 N -3.400852 1.854237 -0.905987 0
M  V30 21 C -3.793321 1.457106 -2.123083 0
M  V30 22 C -2.739324 0.773908 -2.678352 0
M  V30 23 C -2.680038 0.157482 -3.972683 0
M  V30 24 N -2.615602 -0.355331 -5.020819 0
M  V30 25 C -1.723349 0.783480 -1.753479 0
M  V30 26 N -0.492658 0.246348 -1.831972 0
M  V30 27 C 1.994840 -1.338619 -0.188782 0
M  V30 28 C 1.284316 -2.194492 0.639000 0
M  V30 29 H -1.036485 -4.449384 4.257596 0
M  V30 30 H 0.314550 -5.233357 5.172536 0
M  V30 31 H -0.225172 -5.846595 3.528693 0
M  V30 32 H 0.538725 -4.894046 1.492183 0
M  V30 33 H 3.545142 -4.523294 1.438818 0
M  V30 34 H 4.948145 -3.059288 -0.042120 0
M  V30 35 H 4.838750 -0.625477 -1.658414 0
M  V30 36 H 2.824598 1.095431 -2.130480 0
M  V30 37 H 0.612489 1.130617 1.061995 0
M  V30 38 H -2.800842 2.700940 1.408873 0
M  V30 39 H -2.130904 3.146886 3.500945 0
M  V30 40 H -0.022711 4.410583 3.333686 0
M  V30 41 H 0.618717 3.363878 1.908663 0
M  V30 42 H -0.179376 2.332261 4.682597 0
M  V30 43 H 0.390383 1.253581 3.327888 0
M  V30 44 H -4.764421 1.644108 -2.578457 0
M  V30 45 H 0.237919 -1.968153 0.847565 0
M  V30 END ATOM
M  V30 BEGIN BOND
M  V30 1 1 1 2
M  V30 2 2 2 3
M  V30 3 1 2 4
M  V30 4 1 4 5
M  V30 5 2 5 6
M  V30 6 1 6 7
M  V30 7 2 7 8
M  V30 8 1 8 9
M  V30 9 2 9 10
M  V30 10 1 10 11
M  V30 11 1 11 12
M  V30 12 1 12 13
M  V30 13 2 13 14
M  V30 14 1 14 15
M  V30 15 1 15 16
M  V30 16 1 16 17
M  V30 17 1 17 18
M  V30 18 1 14 19
M  V30 19 1 19 20
M  V30 20 2 20 21
M  V30 21 1 21 22
M  V30 22 1 22 23
M  V30 23 3 23 24
M  V30 24 2 22 25
M  V30 25 1 25 26
M  V30 26 1 11 27
M  V30 27 2 27 28
M  V30 28 1 28 5
M  V30 29 1 27 8
M  V30 30 2 26 12
M  V30 31 1 18 16
M  V30 32 1 25 19
M  V30 33 1 1 29
M  V30 34 1 1 30
M  V30 35 1 1 31
M  V30 36 1 4 32
M  V30 37 1 6 33
M  V30 38 1 7 34
M  V30 39 1 9 35
M  V30 40 1 10 36
M  V30 41 1 13 37
M  V30 42 1 15 38
M  V30 43 1 16 39
M  V30 44 1 17 40
M  V30 45 1 17 41
M  V30 46 1 18 42
M  V30 47 1 18 43
M  V30 48 1 21 44
M  V30 49 1 28 45
M  V30 END BOND
M  V30 END CTAB
M  END
>  <Dataset>  (171) 
ChEMBL_Kinases

>  <Ligand_Instance>  (171) 
nan

>  <PDB_ID>  (171) 
nan

>  <Standardized_SMILES>  (171) 
CC(=O)Nc1ccc2ccn(-c3cc(NC4CC4)n4ncc(C#N)c4n3)c2c1

>  <Name>  (171) 
nan

>  <Pocket>  (171) 
nan

>  <ATP_Site>  (171) 
nan

>  <Peripheral>  (171) 
nan

>  <Num_H_Atoms_ProtBoundConf>  (171) 
nan

>  <Num_Resolved_Atoms>  (171) 
nan

>  <Num_Not_Resolved_Atoms>  (171) 
nan

$$$$
CHEMBL4647499
     RDKit          3D

  0  0  0  0  0  0  0  0  0  0999 V3000
M  V30 BEGIN CTAB
M  V30 COUNTS 42 45 0 0 0
M  V30 BEGIN ATOM
M  V30 1 N 3.074556 -3.433121 2.701015 0
M  V30 2 C 2.909141 -2.060886 2.403476 0
M  V30 3 N 3.042037 -1.101163 3.343703 0
M  V30 4 C 2.863444 0.193302 2.958975 0
M  V30 5 N 2.562040 0.578933 1.697996 0
M  V30 6 C 2.419363 -0.324070 0.731993 0
M  V30 7 C 2.599558 -1.651763 1.112768 0
M  V30 8 N 2.419480 -2.414224 0.022383 0
M  V30 9 C 2.135322 -1.616903 -1.018642 0
M  V30 10 N 2.132335 -0.346942 -0.600818 0
M  V30 11 C 1.896855 0.947561 -1.248115 0 CFG=2
M  V30 12 O 0.980862 1.721231 -0.583539 0
M  V30 13 C -0.274412 1.516833 -1.121781 0 CFG=2
M  V30 14 C -1.295499 1.299251 -0.032839 0
M  V30 15 O -1.016061 0.193883 0.769653 0
M  V30 16 C -1.920134 -0.082960 1.813788 0
M  V30 17 O -2.813159 0.809006 1.744356 0
M  V30 18 C -1.732917 -1.210238 2.716555 0
M  V30 19 C -0.827133 -2.230897 2.895812 0
M  V30 20 C -1.264506 -2.966307 3.970203 0
M  V30 21 N -2.398764 -2.428430 4.445373 0
M  V30 22 C -2.708961 -1.340126 3.685684 0
M  V30 23 C -0.155599 0.300950 -2.028733 0 CFG=1
M  V30 24 O -1.109964 0.245350 -3.010637 0
M  V30 25 C 1.237389 0.647099 -2.579798 0 CFG=1
M  V30 26 O 1.142925 1.852006 -3.269848 0
M  V30 27 H 3.817643 -3.988528 2.190886 0
M  V30 28 H 2.617498 -4.110152 3.350233 0
M  V30 29 H 2.981529 0.926601 3.754104 0
M  V30 30 H 1.928510 -1.847875 -2.052214 0
M  V30 31 H 2.856251 1.485582 -1.384358 0
M  V30 32 H -0.592330 2.366988 -1.759157 0
M  V30 33 H -2.303979 1.236863 -0.513952 0
M  V30 34 H -1.319399 2.201580 0.606036 0
M  V30 35 H -0.000997 -2.281974 2.227566 0
M  V30 36 H -0.672437 -3.824248 4.267752 0
M  V30 37 H -2.863955 -2.873848 5.269806 0
M  V30 38 H -3.623620 -0.822396 3.989438 0
M  V30 39 H -0.089030 -0.569900 -1.367664 0
M  V30 40 H -1.847723 -0.347158 -2.676550 0
M  V30 41 H 1.688181 -0.149037 -3.155843 0
M  V30 42 H 1.390551 1.707585 -4.233352 0
M  V30 END ATOM
M  V30 BEGIN BOND
M  V30 1 1 1 2
M  V30 2 2 2 3
M  V30 3 1 3 4
M  V30 4 2 4 5
M  V30 5 1 5 6
M  V30 6 2 6 7
M  V30 7 1 7 8
M  V30 8 2 8 9
M  V30 9 1 9 10
M  V30 10 1 10 11
M  V30 11 1 11 12
M  V30 12 1 12 13
M  V30 13 1 13 14
M  V30 14 1 14 15
M  V30 15 1 15 16
M  V30 16 2 16 17
M  V30 17 1 16 18
M  V30 18 1 18 19
M  V30 19 2 19 20
M  V30 20 1 20 21
M  V30 21 1 21 22
M  V30 22 1 13 23
M  V30 23 1 23 24
M  V30 24 1 23 25
M  V30 25 1 25 26
M  V30 26 1 7 2
M  V30 27 1 25 11
M  V30 28 1 10 6
M  V30 29 2 22 18
M  V30 30 1 1 27
M  V30 31 1 1 28
M  V30 32 1 4 29
M  V30 33 1 9 30
M  V30 34 1 11 31 CFG=3
M  V30 35 1 13 32 CFG=3
M  V30 36 1 14 33
M  V30 37 1 14 34
M  V30 38 1 19 35
M  V30 39 1 20 36
M  V30 40 1 21 37
M  V30 41 1 22 38
M  V30 42 1 23 39 CFG=1
M  V30 43 1 24 40
M  V30 44 1 25 41 CFG=3
M  V30 45 1 26 42
M  V30 END BOND
M  V30 END CTAB
M  END
>  <Dataset>  (172) 
ChEMBL_Kinases

>  <Ligand_Instance>  (172) 
nan

>  <PDB_ID>  (172) 
nan

>  <Standardized_SMILES>  (172) 
Nc1ncnc2c1ncn2[C@@H]1O[C@H](COC(=O)c2cc[nH]c2)[C@@H](O)[C@H]1O

>  <Name>  (172) 
nan

>  <Pocket>  (172) 
nan

>  <ATP_Site>  (172) 
nan

>  <Peripheral>  (172) 
nan

>  <Num_H_Atoms_ProtBoundConf>  (172) 
nan

>  <Num_Resolved_Atoms>  (172) 
nan

>  <Num_Not_Resolved_Atoms>  (172) 
nan

$$$$
CHEMBL4777533
     RDKit          3D

  0  0  0  0  0  0  0  0  0  0999 V3000
M  V30 BEGIN CTAB
M  V30 COUNTS 41 44 0 0 0
M  V30 BEGIN ATOM
M  V30 1 C 1.382930 -5.165458 1.373927 0
M  V30 2 C 0.256161 -4.332660 0.853290 0
M  V30 3 C -0.928786 -4.311079 1.809893 0
M  V30 4 C -0.263791 -4.955550 -0.428359 0
M  V30 5 C 0.733475 -2.922832 0.629221 0
M  V30 6 C 0.661587 -1.962108 1.620469 0
M  V30 7 C 1.114434 -0.670454 1.370414 0
M  V30 8 C 1.646913 -0.314597 0.127158 0
M  V30 9 C 2.118795 1.055479 -0.113758 0
M  V30 10 C 3.233745 1.619393 -0.698209 0
M  V30 11 O 3.110565 2.940287 -0.625763 0
M  V30 12 C 1.995109 3.257688 -0.036028 0
M  V30 13 C 1.502468 4.532108 0.230883 0
M  V30 14 C 0.276196 4.650486 0.877892 0
M  V30 15 C -0.382147 3.475512 1.218199 0
M  V30 16 C -1.673238 3.562087 1.899180 0
M  V30 17 N -2.181059 4.597533 2.570723 0
M  V30 18 N -3.386976 4.285668 3.048457 0
M  V30 19 N -3.639148 3.037451 2.671449 0
M  V30 20 N -2.602914 2.566900 1.963210 0
M  V30 21 N 0.133321 2.265470 0.939622 0
M  V30 22 C 1.312512 2.091183 0.317111 0
M  V30 23 C 1.723328 -1.278622 -0.879811 0
M  V30 24 C 1.260760 -2.562594 -0.595489 0
M  V30 25 H 0.984825 -5.842835 2.151148 0
M  V30 26 H 1.795130 -5.845349 0.571976 0
M  V30 27 H 2.202849 -4.500907 1.775615 0
M  V30 28 H -0.611818 -4.152303 2.851942 0
M  V30 29 H -1.628545 -3.539595 1.422377 0
M  V30 30 H -1.453240 -5.292087 1.674697 0
M  V30 31 H -1.241211 -5.463691 -0.296706 0
M  V30 32 H -0.495833 -4.107537 -1.137568 0
M  V30 33 H 0.430935 -5.682935 -0.861271 0
M  V30 34 H 0.248987 -2.235513 2.585724 0
M  V30 35 H 1.058437 0.092113 2.154166 0
M  V30 36 H 3.985167 0.953101 -1.098061 0
M  V30 37 H 2.008589 5.428703 -0.030781 0
M  V30 38 H -0.211888 5.596356 1.140537 0
M  V30 39 H -4.402392 2.307265 2.759022 0
M  V30 40 H 2.130727 -1.011484 -1.835221 0
M  V30 41 H 1.347877 -3.260643 -1.416196 0
M  V30 END ATOM
M  V30 BEGIN BOND
M  V30 1 1 1 2
M  V30 2 1 2 3
M  V30 3 1 2 4
M  V30 4 1 2 5
M  V30 5 2 5 6
M  V30 6 1 6 7
M  V30 7 2 7 8
M  V30 8 1 8 9
M  V30 9 2 9 10
M  V30 10 1 10 11
M  V30 11 1 11 12
M  V30 12 2 12 13
M  V30 13 1 13 14
M  V30 14 2 14 15
M  V30 15 1 15 16
M  V30 16 1 16 17
M  V30 17 2 17 18
M  V30 18 1 18 19
M  V30 19 1 19 20
M  V30 20 1 15 21
M  V30 21 2 21 22
M  V30 22 1 8 23
M  V30 23 2 23 24
M  V30 24 1 24 5
M  V30 25 1 22 9
M  V30 26 1 22 12
M  V30 27 2 20 16
M  V30 28 1 1 25
M  V30 29 1 1 26
M  V30 30 1 1 27
M  V30 31 1 3 28
M  V30 32 1 3 29
M  V30 33 1 3 30
M  V30 34 1 4 31
M  V30 35 1 4 32
M  V30 36 1 4 33
M  V30 37 1 6 34
M  V30 38 1 7 35
M  V30 39 1 10 36
M  V30 40 1 13 37
M  V30 41 1 14 38
M  V30 42 1 19 39
M  V30 43 1 23 40
M  V30 44 1 24 41
M  V30 END BOND
M  V30 END CTAB
M  END
>  <Dataset>  (173) 
ChEMBL_Kinases

>  <Ligand_Instance>  (173) 
nan

>  <PDB_ID>  (173) 
nan

>  <Standardized_SMILES>  (173) 
CC(C)(C)c1ccc(-c2coc3ccc(-c4nn[nH]n4)nc23)cc1

>  <Name>  (173) 
nan

>  <Pocket>  (173) 
nan

>  <ATP_Site>  (173) 
nan

>  <Peripheral>  (173) 
nan

>  <Num_H_Atoms_ProtBoundConf>  (173) 
nan

>  <Num_Resolved_Atoms>  (173) 
nan

>  <Num_Not_Resolved_Atoms>  (173) 
nan

$$$$
CHEMBL4777508
     RDKit          3D

  0  0  0  0  0  0  0  0  0  0999 V3000
M  V30 BEGIN CTAB
M  V30 COUNTS 50 54 0 0 0
M  V30 BEGIN ATOM
M  V30 1 C 0.357259 -5.817597 -6.488155 0
M  V30 2 N 1.237016 -5.281545 -5.468468 0
M  V30 3 C 1.147049 -4.088756 -4.883973 0
M  V30 4 C 2.194211 -4.018582 -3.984388 0
M  V30 5 C 2.535805 -2.915263 -3.093838 0
M  V30 6 C 3.849546 -2.677376 -2.748266 0
M  V30 7 C 4.265204 -1.652721 -1.908446 0
M  V30 8 C 3.274719 -0.833207 -1.400521 0
M  V30 9 C 3.704407 0.196183 -0.554709 0
M  V30 10 N 2.736811 1.016090 -0.042951 0
M  V30 11 C 1.435876 0.828132 -0.348516 0
M  V30 12 N 0.528325 1.771256 0.266237 0
M  V30 13 C 0.106667 1.269893 1.513660 0
M  V30 14 O 0.580269 0.133006 1.853574 0
M  V30 15 C -0.816643 1.981146 2.392296 0
M  V30 16 C -1.388088 3.229407 2.115747 0
M  V30 17 C -2.232699 3.763830 3.036012 0
M  V30 18 N -2.561980 3.180371 4.197858 0
M  V30 19 C -2.035162 1.963206 4.520174 0
M  V30 20 O -2.294034 1.255064 5.686461 0
M  V30 21 C -3.173980 1.810634 6.644676 0
M  V30 22 C -2.718272 1.719395 8.064093 0
M  V30 23 N -4.002193 1.142806 8.415396 0
M  V30 24 C -4.270490 0.839707 7.025268 0
M  V30 25 C -1.173027 1.407289 3.591384 0
M  V30 26 C 0.996150 -0.182917 -1.181474 0
M  V30 27 C 1.939167 -1.034416 -1.720608 0
M  V30 28 C 1.558478 -2.066715 -2.561947 0
M  V30 29 C 2.911512 -5.197847 -4.045765 0
M  V30 30 N 2.279300 -5.939225 -4.974709 0
M  V30 31 H -0.227122 -4.993589 -6.986379 0
M  V30 32 H 0.905386 -6.421774 -7.248163 0
M  V30 33 H -0.392311 -6.512778 -6.056897 0
M  V30 34 H 0.406820 -3.320779 -5.068694 0
M  V30 35 H 4.590987 -3.341666 -3.167737 0
M  V30 36 H 5.326910 -1.574373 -1.716775 0
M  V30 37 H 4.752383 0.335633 -0.317396 0
M  V30 38 H 0.178042 2.693318 -0.068355 0
M  V30 39 H -1.111872 3.689064 1.171603 0
M  V30 40 H -2.650723 4.734355 2.775083 0
M  V30 41 H -3.613571 2.787528 6.408837 0
M  V30 42 H -1.850236 1.046664 8.222729 0
M  V30 43 H -2.589091 2.692400 8.613434 0
M  V30 44 H -3.916410 0.308657 9.033230 0
M  V30 45 H -4.084196 -0.213385 6.714488 0
M  V30 46 H -5.308761 1.207575 6.788884 0
M  V30 47 H -0.734751 0.424830 3.828980 0
M  V30 48 H -0.056186 -0.281756 -1.387448 0
M  V30 49 H 0.509578 -2.220056 -2.809778 0
M  V30 50 H 3.795443 -5.482552 -3.476486 0
M  V30 END ATOM
M  V30 BEGIN BOND
M  V30 1 1 1 2
M  V30 2 1 2 3
M  V30 3 2 3 4
M  V30 4 1 4 5
M  V30 5 2 5 6
M  V30 6 1 6 7
M  V30 7 2 7 8
M  V30 8 1 8 9
M  V30 9 2 9 10
M  V30 10 1 10 11
M  V30 11 1 11 12
M  V30 12 1 12 13
M  V30 13 2 13 14
M  V30 14 1 13 15
M  V30 15 2 15 16
M  V30 16 1 16 17
M  V30 17 2 17 18
M  V30 18 1 18 19
M  V30 19 1 19 20
M  V30 20 1 20 21
M  V30 21 1 21 22
M  V30 22 1 22 23
M  V30 23 1 23 24
M  V30 24 2 19 25
M  V30 25 2 11 26
M  V30 26 1 26 27
M  V30 27 2 27 28
M  V30 28 1 4 29
M  V30 29 2 29 30
M  V30 30 1 30 2
M  V30 31 1 28 5
M  V30 32 1 27 8
M  V30 33 1 25 15
M  V30 34 1 24 21
M  V30 35 1 1 31
M  V30 36 1 1 32
M  V30 37 1 1 33
M  V30 38 1 3 34
M  V30 39 1 6 35
M  V30 40 1 7 36
M  V30 41 1 9 37
M  V30 42 1 12 38
M  V30 43 1 16 39
M  V30 44 1 17 40
M  V30 45 1 21 41
M  V30 46 1 22 42
M  V30 47 1 22 43
M  V30 48 1 23 44
M  V30 49 1 24 45
M  V30 50 1 24 46
M  V30 51 1 25 47
M  V30 52 1 26 48
M  V30 53 1 28 49
M  V30 54 1 29 50
M  V30 END BOND
M  V30 END CTAB
M  END
>  <Dataset>  (174) 
ChEMBL_Kinases

>  <Ligand_Instance>  (174) 
nan

>  <PDB_ID>  (174) 
nan

>  <Standardized_SMILES>  (174) 
Cn1cc(-c2ccc3cnc(NC(=O)c4ccnc(OC5CNC5)c4)cc3c2)cn1

>  <Name>  (174) 
nan

>  <Pocket>  (174) 
nan

>  <ATP_Site>  (174) 
nan

>  <Peripheral>  (174) 
nan

>  <Num_H_Atoms_ProtBoundConf>  (174) 
nan

>  <Num_Resolved_Atoms>  (174) 
nan

>  <Num_Not_Resolved_Atoms>  (174) 
nan

$$$$
CHEMBL4777426
     RDKit          3D

  0  0  0  0  0  0  0  0  0  0999 V3000
M  V30 BEGIN CTAB
M  V30 COUNTS 49 52 0 0 0
M  V30 BEGIN ATOM
M  V30 1 O 0.081392 -1.778944 0.834926 0
M  V30 2 C 0.499996 -2.878249 1.244387 0
M  V30 3 N 1.656183 -2.279875 1.872199 0
M  V30 4 C 1.796670 -0.846718 1.760235 0
M  V30 5 C 2.474811 -0.257535 0.713541 0
M  V30 6 C 2.545258 1.135280 0.711358 0
M  V30 7 C 1.985693 1.960094 1.679937 0
M  V30 8 N 2.102950 3.378369 1.603497 0
M  V30 9 C 2.831670 3.840175 0.442309 0
M  V30 10 C 2.666044 5.341635 0.360117 0
M  V30 11 N 2.614854 5.973917 1.668933 0
M  V30 12 C 1.392547 5.561060 2.354792 0
M  V30 13 C 1.461984 4.095401 2.718593 0
M  V30 14 N 1.347344 1.295314 2.656428 0
M  V30 15 C 1.237068 -0.042688 2.727222 0
M  V30 16 C 0.450165 -4.311020 1.412054 0
M  V30 17 N 1.331889 -5.101723 2.065796 0
M  V30 18 N 0.936668 -6.348430 1.994557 0
M  V30 19 C -0.198131 -6.410674 1.302755 0
M  V30 20 C -0.541784 -5.111789 0.910712 0
M  V30 21 C -1.746483 -4.940841 0.142867 0
M  V30 22 C -2.399811 -3.963918 -0.397439 0
M  V30 23 C -3.637346 -3.910469 -1.169085 0
M  V30 24 C -4.104850 -2.699765 -1.627969 0
M  V30 25 C -5.276520 -2.679158 -2.354173 0
M  V30 26 C -6.010252 -3.808961 -2.648238 0
M  V30 27 N -5.517071 -4.980887 -2.178962 0
M  V30 28 C -4.376917 -5.033557 -1.467704 0
M  V30 29 H 2.453394 -2.731633 2.424684 0
M  V30 30 H 2.918968 -0.851311 -0.050418 0
M  V30 31 H 3.086620 1.542602 -0.128839 0
M  V30 32 H 3.896233 3.624459 0.453842 0
M  V30 33 H 2.347858 3.408523 -0.481298 0
M  V30 34 H 3.494098 5.833127 -0.180654 0
M  V30 35 H 1.718572 5.618300 -0.159502 0
M  V30 36 H 3.461941 5.645347 2.189901 0
M  V30 37 H 1.330586 6.192279 3.263083 0
M  V30 38 H 0.556830 5.777136 1.668348 0
M  V30 39 H 0.439389 3.662501 2.830781 0
M  V30 40 H 2.013177 3.943179 3.658076 0
M  V30 41 H 0.699886 -0.501402 3.557014 0
M  V30 42 H 1.585821 -6.991058 2.484223 0
M  V30 43 H -0.606395 -7.418015 1.190276 0
M  V30 44 H -2.367274 -5.815197 -0.117924 0
M  V30 45 H -1.904057 -3.020742 -0.223582 0
M  V30 46 H -3.545045 -1.777328 -1.412169 0
M  V30 47 H -5.581275 -1.685830 -2.682016 0
M  V30 48 H -6.925063 -3.747411 -3.221651 0
M  V30 49 H -4.085385 -6.011021 -1.150223 0
M  V30 END ATOM
M  V30 BEGIN BOND
M  V30 1 2 1 2
M  V30 2 1 2 3
M  V30 3 1 3 4
M  V30 4 2 4 5
M  V30 5 1 5 6
M  V30 6 2 6 7
M  V30 7 1 7 8
M  V30 8 1 8 9
M  V30 9 1 9 10
M  V30 10 1 10 11
M  V30 11 1 11 12
M  V30 12 1 12 13
M  V30 13 1 7 14
M  V30 14 2 14 15
M  V30 15 1 2 16
M  V30 16 2 16 17
M  V30 17 1 17 18
M  V30 18 1 18 19
M  V30 19 2 19 20
M  V30 20 1 20 21
M  V30 21 2 21 22
M  V30 22 1 22 23
M  V30 23 2 23 24
M  V30 24 1 24 25
M  V30 25 2 25 26
M  V30 26 1 26 27
M  V30 27 2 27 28
M  V30 28 1 15 4
M  V30 29 1 20 16
M  V30 30 1 28 23
M  V30 31 1 13 8
M  V30 32 1 3 29
M  V30 33 1 5 30
M  V30 34 1 6 31
M  V30 35 1 9 32
M  V30 36 1 9 33
M  V30 37 1 10 34
M  V30 38 1 10 35
M  V30 39 1 11 36
M  V30 40 1 12 37
M  V30 41 1 12 38
M  V30 42 1 13 39
M  V30 43 1 13 40
M  V30 44 1 15 41
M  V30 45 1 18 42
M  V30 46 1 19 43
M  V30 47 1 21 44
M  V30 48 1 22 45
M  V30 49 1 24 46
M  V30 50 1 25 47
M  V30 51 1 26 48
M  V30 52 1 28 49
M  V30 END BOND
M  V30 END CTAB
M  END
>  <Dataset>  (175) 
ChEMBL_Kinases

>  <Ligand_Instance>  (175) 
nan

>  <PDB_ID>  (175) 
nan

>  <Standardized_SMILES>  (175) 
O=C(Nc1ccc(N2CCNCC2)nc1)c1n[nH]cc1/C=C/c1cccnc1

>  <Name>  (175) 
nan

>  <Pocket>  (175) 
nan

>  <ATP_Site>  (175) 
nan

>  <Peripheral>  (175) 
nan

>  <Num_H_Atoms_ProtBoundConf>  (175) 
nan

>  <Num_Resolved_Atoms>  (175) 
nan

>  <Num_Not_Resolved_Atoms>  (175) 
nan

$$$$
CHEMBL4777349
     RDKit          3D

  0  0  0  0  0  0  0  0  0  0999 V3000
M  V30 BEGIN CTAB
M  V30 COUNTS 47 51 0 0 0
M  V30 BEGIN ATOM
M  V30 1 O 1.189802 -3.401128 -1.186800 0
M  V30 2 C -0.010133 -2.998318 -1.370884 0
M  V30 3 N -1.020522 -3.988920 -1.525234 0
M  V30 4 C -2.128013 -3.391395 -2.250235 0
M  V30 5 C -1.628864 -2.015781 -2.643471 0
M  V30 6 C -0.695437 -1.654751 -1.476577 0
M  V30 7 C 0.326518 -0.684928 -1.879995 0
M  V30 8 C 0.713340 0.388857 -0.934827 0
M  V30 9 N -0.415601 0.647923 -0.024851 0
M  V30 10 C -0.347491 1.855921 0.686365 0
M  V30 11 C -0.934014 2.916207 0.034859 0
M  V30 12 Cl -1.694894 2.764612 -1.536323 0
M  V30 13 C -0.953145 4.169089 0.592753 0
M  V30 14 N -0.376414 4.302401 1.792357 0
M  V30 15 C 0.186125 3.261285 2.405843 0
M  V30 16 C 0.246131 1.979911 1.915067 0
M  V30 17 C 0.871956 0.895636 2.640650 0
M  V30 18 C 1.076077 -0.441124 2.430401 0
M  V30 19 C 1.752098 -1.022063 3.482991 0
M  V30 20 C 2.202677 -2.282435 3.787471 0
M  V30 21 C 2.853704 -2.402406 5.001070 0
M  V30 22 C 3.053415 -1.356843 5.865591 0
M  V30 23 C 2.600148 -0.095471 5.556310 0
M  V30 24 C 1.941079 0.045027 4.336389 0
M  V30 25 O 1.417409 1.108720 3.800075 0
M  V30 26 C -1.642645 -0.100506 0.298416 0
M  V30 27 C -1.477965 -1.466050 -0.253739 0
M  V30 28 H -1.067593 -4.993786 -1.215862 0
M  V30 29 H -2.269352 -4.033638 -3.150048 0
M  V30 30 H -3.073491 -3.374943 -1.676998 0
M  V30 31 H -1.027330 -2.117655 -3.555870 0
M  V30 32 H -2.450844 -1.286783 -2.734669 0
M  V30 33 H 1.289131 -1.161240 -2.220879 0
M  V30 34 H -0.043818 -0.189900 -2.825322 0
M  V30 35 H 0.869201 1.358733 -1.482748 0
M  V30 36 H 1.617866 0.170536 -0.359675 0
M  V30 37 H -1.406444 5.026610 0.107323 0
M  V30 38 H 0.622029 3.510058 3.382887 0
M  V30 39 H 0.752250 -0.958648 1.565988 0
M  V30 40 H 2.021731 -3.058044 3.082279 0
M  V30 41 H 3.222092 -3.388535 5.270225 0
M  V30 42 H 3.571272 -1.503206 6.807807 0
M  V30 43 H 2.738669 0.741857 6.206968 0
M  V30 44 H -2.489116 0.400267 -0.207514 0
M  V30 45 H -1.763011 -0.133387 1.402011 0
M  V30 46 H -1.101465 -2.123175 0.585456 0
M  V30 47 H -2.527030 -1.862863 -0.403436 0
M  V30 END ATOM
M  V30 BEGIN BOND
M  V30 1 2 1 2
M  V30 2 1 2 3
M  V30 3 1 3 4
M  V30 4 1 4 5
M  V30 5 1 5 6
M  V30 6 1 6 7
M  V30 7 1 7 8
M  V30 8 1 8 9
M  V30 9 1 9 10
M  V30 10 2 10 11
M  V30 11 1 11 12
M  V30 12 1 11 13
M  V30 13 2 13 14
M  V30 14 1 14 15
M  V30 15 2 15 16
M  V30 16 1 16 17
M  V30 17 2 17 18
M  V30 18 1 18 19
M  V30 19 2 19 20
M  V30 20 1 20 21
M  V30 21 2 21 22
M  V30 22 1 22 23
M  V30 23 2 23 24
M  V30 24 1 24 25
M  V30 25 1 9 26
M  V30 26 1 26 27
M  V30 27 1 6 2
M  V30 28 1 16 10
M  V30 29 1 25 17
M  V30 30 1 27 6
M  V30 31 1 24 19
M  V30 32 1 3 28
M  V30 33 1 4 29
M  V30 34 1 4 30
M  V30 35 1 5 31
M  V30 36 1 5 32
M  V30 37 1 7 33
M  V30 38 1 7 34
M  V30 39 1 8 35
M  V30 40 1 8 36
M  V30 41 1 13 37
M  V30 42 1 15 38
M  V30 43 1 18 39
M  V30 44 1 20 40
M  V30 45 1 21 41
M  V30 46 1 22 42
M  V30 47 1 23 43
M  V30 48 1 26 44
M  V30 49 1 26 45
M  V30 50 1 27 46
M  V30 51 1 27 47
M  V30 END BOND
M  V30 END CTAB
M  END
>  <Dataset>  (176) 
ChEMBL_Kinases

>  <Ligand_Instance>  (176) 
nan

>  <PDB_ID>  (176) 
nan

>  <Standardized_SMILES>  (176) 
O=C1NCCC12CCN(c1c(Cl)cncc1-c1cc3ccccc3o1)CC2

>  <Name>  (176) 
nan

>  <Pocket>  (176) 
nan

>  <ATP_Site>  (176) 
nan

>  <Peripheral>  (176) 
nan

>  <Num_H_Atoms_ProtBoundConf>  (176) 
nan

>  <Num_Resolved_Atoms>  (176) 
nan

>  <Num_Not_Resolved_Atoms>  (176) 
nan

$$$$
CHEMBL4777273
     RDKit          3D

  0  0  0  0  0  0  0  0  0  0999 V3000
M  V30 BEGIN CTAB
M  V30 COUNTS 61 66 0 0 0
M  V30 BEGIN ATOM
M  V30 1 C 4.019697 0.524441 7.653526 0
M  V30 2 C 4.254534 0.120760 6.221389 0
M  V30 3 C 3.260645 -0.465977 5.456083 0
M  V30 4 N 3.861626 -0.666687 4.270692 0
M  V30 5 C 3.253284 -1.255296 3.122457 0
M  V30 6 N 3.740714 -2.401977 2.563158 0
M  V30 7 C 3.150790 -2.950153 1.470559 0
M  V30 8 C 2.053948 -2.279798 0.982416 0
M  V30 9 C 1.502641 -1.132882 1.477137 0
M  V30 10 N 0.467724 -0.332954 1.170121 0
M  V30 11 C 0.430494 0.674575 2.055062 0
M  V30 12 C -0.499155 1.808250 2.159454 0
M  V30 13 N -0.500630 2.810832 3.077734 0
M  V30 14 N -1.490630 3.640504 2.836282 0
M  V30 15 C -2.145665 3.172198 1.743091 0
M  V30 16 C -3.242105 3.597687 1.020471 0
M  V30 17 C -3.667427 2.874663 -0.076704 0
M  V30 18 C -3.068813 1.732489 -0.517817 0
M  V30 19 C -3.553103 1.000131 -1.679413 0
M  V30 20 C -4.647340 1.454464 -2.382875 0
M  V30 21 N -5.066244 0.753141 -3.447840 0
M  V30 22 C -4.462785 -0.372898 -3.855568 0
M  V30 23 C -3.353723 -0.884469 -3.188470 0
M  V30 24 N -2.785156 -2.075080 -3.691284 0
M  V30 25 C -1.691026 -2.837295 -3.221278 0
M  V30 26 O -1.101683 -2.427842 -2.193787 0
M  V30 27 C -1.258974 -4.066790 -3.913159 0
M  V30 28 C -0.100704 -4.736836 -3.250056 0
M  V30 29 C 1.129509 -3.882077 -3.163244 0
M  V30 30 C -0.441698 -5.304582 -1.891979 0
M  V30 31 C -2.949086 -0.145197 -2.103948 0
M  V30 32 N -2.002669 1.340960 0.205667 0
M  V30 33 C -1.554839 2.002267 1.268424 0
M  V30 34 N 1.462115 0.509558 2.939555 0
M  V30 35 C 2.142084 -0.623490 2.584910 0
M  V30 36 C 5.135722 -0.253854 4.244654 0
M  V30 37 N 5.386394 0.242858 5.472469 0
M  V30 38 H 4.042492 -0.369823 8.292889 0
M  V30 39 H 4.701354 1.313192 7.975766 0
M  V30 40 H 2.975675 0.945435 7.744292 0
M  V30 41 H 2.269209 -0.690708 5.763247 0
M  V30 42 H 3.527674 -3.857295 1.019486 0
M  V30 43 H 1.591506 -2.728323 0.109903 0
M  V30 44 H -0.191626 -0.461480 0.390206 0
M  V30 45 H -1.804109 4.509957 3.317729 0
M  V30 46 H -3.727290 4.511921 1.365847 0
M  V30 47 H -4.525832 3.312824 -0.544772 0
M  V30 48 H -5.203936 2.332879 -2.151966 0
M  V30 49 H -4.891971 -0.860514 -4.736489 0
M  V30 50 H -3.220368 -2.500249 -4.561931 0
M  V30 51 H -2.111390 -4.760175 -3.973791 0
M  V30 52 H -0.922718 -3.798976 -4.951827 0
M  V30 53 H 0.157297 -5.619710 -3.903546 0
M  V30 54 H 2.028054 -4.475831 -3.437063 0
M  V30 55 H 1.313290 -3.510929 -2.135177 0
M  V30 56 H 1.068617 -3.049311 -3.898832 0
M  V30 57 H -0.012360 -6.312660 -1.716098 0
M  V30 58 H -0.023117 -4.660785 -1.093679 0
M  V30 59 H -1.552725 -5.372561 -1.828411 0
M  V30 60 H -2.109262 -0.486655 -1.557522 0
M  V30 61 H 5.925255 -0.234487 3.529282 0
M  V30 END ATOM
M  V30 BEGIN BOND
M  V30 1 1 1 2
M  V30 2 2 2 3
M  V30 3 1 3 4
M  V30 4 1 4 5
M  V30 5 2 5 6
M  V30 6 1 6 7
M  V30 7 2 7 8
M  V30 8 1 8 9
M  V30 9 1 9 10
M  V30 10 1 10 11
M  V30 11 1 11 12
M  V30 12 2 12 13
M  V30 13 1 13 14
M  V30 14 1 14 15
M  V30 15 2 15 16
M  V30 16 1 16 17
M  V30 17 2 17 18
M  V30 18 1 18 19
M  V30 19 2 19 20
M  V30 20 1 20 21
M  V30 21 2 21 22
M  V30 22 1 22 23
M  V30 23 1 23 24
M  V30 24 1 24 25
M  V30 25 2 25 26
M  V30 26 1 25 27
M  V30 27 1 27 28
M  V30 28 1 28 29
M  V30 29 1 28 30
M  V30 30 2 23 31
M  V30 31 1 18 32
M  V30 32 2 32 33
M  V30 33 2 11 34
M  V30 34 1 34 35
M  V30 35 1 4 36
M  V30 36 2 36 37
M  V30 37 1 37 2
M  V30 38 1 35 5
M  V30 39 2 35 9
M  V30 40 1 33 12
M  V30 41 1 33 15
M  V30 42 1 31 19
M  V30 43 1 1 38
M  V30 44 1 1 39
M  V30 45 1 1 40
M  V30 46 1 3 41
M  V30 47 1 7 42
M  V30 48 1 8 43
M  V30 49 1 10 44
M  V30 50 1 14 45
M  V30 51 1 16 46
M  V30 52 1 17 47
M  V30 53 1 20 48
M  V30 54 1 22 49
M  V30 55 1 24 50
M  V30 56 1 27 51
M  V30 57 1 27 52
M  V30 58 1 28 53
M  V30 59 1 29 54
M  V30 60 1 29 55
M  V30 61 1 29 56
M  V30 62 1 30 57
M  V30 63 1 30 58
M  V30 64 1 30 59
M  V30 65 1 31 60
M  V30 66 1 36 61
M  V30 END BOND
M  V30 END CTAB
M  END
>  <Dataset>  (177) 
ChEMBL_Kinases

>  <Ligand_Instance>  (177) 
nan

>  <PDB_ID>  (177) 
nan

>  <Standardized_SMILES>  (177) 
Cc1cn(-c2nccc3[nH]c(-c4n[nH]c5ccc(-c6cncc(NC(=O)CC(C)C)c6)nc45)nc23)cn1

>  <Name>  (177) 
nan

>  <Pocket>  (177) 
nan

>  <ATP_Site>  (177) 
nan

>  <Peripheral>  (177) 
nan

>  <Num_H_Atoms_ProtBoundConf>  (177) 
nan

>  <Num_Resolved_Atoms>  (177) 
nan

>  <Num_Not_Resolved_Atoms>  (177) 
nan

$$$$
CHEMBL4777070
     RDKit          3D

  0  0  0  0  0  0  0  0  0  0999 V3000
M  V30 BEGIN CTAB
M  V30 COUNTS 50 54 0 0 0
M  V30 BEGIN ATOM
M  V30 1 O -1.550723 -4.412441 -0.553334 0
M  V30 2 C -1.234215 -5.097492 0.478741 0
M  V30 3 N -1.591223 -4.539949 1.731064 0
M  V30 4 C -2.244195 -3.297924 1.517883 0
M  V30 5 C -1.405783 -2.206414 1.484317 0
M  V30 6 C -1.937045 -0.931107 1.281106 0
M  V30 7 C -1.139491 0.192181 1.239085 0
M  V30 8 C -1.611384 1.469885 1.041821 0
M  V30 9 C -0.749868 2.639536 1.000063 0
M  V30 10 C -1.293277 3.888242 0.809537 0
M  V30 11 N -0.539687 4.984797 0.772545 0
M  V30 12 C 0.785764 4.903096 0.921570 0
M  V30 13 C 1.397085 3.659019 1.118513 0
M  V30 14 N 2.801696 3.606798 1.287412 0
M  V30 15 C 3.707107 2.491668 1.441209 0
M  V30 16 C 3.730057 1.699704 0.173230 0
M  V30 17 F 4.129794 2.372791 -0.946707 0
M  V30 18 C 2.584288 0.757728 -0.080616 0
M  V30 19 N 3.577502 -0.145313 -0.694808 0
M  V30 20 C 4.506914 0.378822 0.287576 0
M  V30 21 N 0.583457 2.582905 1.146845 0
M  V30 22 C -2.964539 1.545738 0.886529 0
M  V30 23 C -3.804371 0.453058 0.920440 0
M  V30 24 C -3.295300 -0.810322 1.119981 0
M  V30 25 C -4.107803 -1.917616 1.158269 0
M  V30 26 N -3.575583 -3.148769 1.356420 0
M  V30 27 C -0.536916 -6.377052 0.181233 0
M  V30 28 C -1.042660 -7.111597 -1.074284 0
M  V30 29 C 0.299671 -6.467926 -1.040312 0
M  V30 30 H -1.302755 -5.153142 2.550750 0
M  V30 31 H -0.334166 -2.282775 1.609657 0
M  V30 32 H -0.101265 0.002080 1.374709 0
M  V30 33 H -2.341555 4.101147 0.676145 0
M  V30 34 H 1.397973 5.818596 0.888975 0
M  V30 35 H 3.308498 4.527928 1.309240 0
M  V30 36 H 4.727700 2.779267 1.679575 0
M  V30 37 H 3.343825 1.872445 2.304641 0
M  V30 38 H 1.839226 1.095082 -0.829224 0
M  V30 39 H 2.192928 0.258068 0.825364 0
M  V30 40 H 3.803225 0.274153 -1.641607 0
M  V30 41 H 4.366393 -0.143464 1.239686 0
M  V30 42 H 5.528711 0.422577 -0.113044 0
M  V30 43 H -3.488586 2.466412 0.724365 0
M  V30 44 H -4.877177 0.509055 0.798677 0
M  V30 45 H -5.183194 -1.809813 1.028951 0
M  V30 46 H -0.245984 -7.002282 1.058420 0
M  V30 47 H -1.115799 -8.205883 -0.993836 0
M  V30 48 H -1.778437 -6.591983 -1.699918 0
M  V30 49 H 1.152870 -7.187593 -0.989962 0
M  V30 50 H 0.529817 -5.553359 -1.597630 0
M  V30 END ATOM
M  V30 BEGIN BOND
M  V30 1 2 1 2
M  V30 2 1 2 3
M  V30 3 1 3 4
M  V30 4 2 4 5
M  V30 5 1 5 6
M  V30 6 2 6 7
M  V30 7 1 7 8
M  V30 8 1 8 9
M  V30 9 2 9 10
M  V30 10 1 10 11
M  V30 11 2 11 12
M  V30 12 1 12 13
M  V30 13 1 13 14
M  V30 14 1 14 15
M  V30 15 1 15 16
M  V30 16 1 16 17
M  V30 17 1 16 18
M  V30 18 1 18 19
M  V30 19 1 19 20
M  V30 20 2 13 21
M  V30 21 2 8 22
M  V30 22 1 22 23
M  V30 23 2 23 24
M  V30 24 1 24 25
M  V30 25 2 25 26
M  V30 26 1 2 27
M  V30 27 1 27 28
M  V30 28 1 28 29
M  V30 29 1 26 4
M  V30 30 1 29 27
M  V30 31 1 24 6
M  V30 32 1 21 9
M  V30 33 1 20 16
M  V30 34 1 3 30
M  V30 35 1 5 31
M  V30 36 1 7 32
M  V30 37 1 10 33
M  V30 38 1 12 34
M  V30 39 1 14 35
M  V30 40 1 15 36
M  V30 41 1 15 37
M  V30 42 1 18 38
M  V30 43 1 18 39
M  V30 44 1 19 40
M  V30 45 1 20 41
M  V30 46 1 20 42
M  V30 47 1 22 43
M  V30 48 1 23 44
M  V30 49 1 25 45
M  V30 50 1 27 46
M  V30 51 1 28 47
M  V30 52 1 28 48
M  V30 53 1 29 49
M  V30 54 1 29 50
M  V30 END BOND
M  V30 END CTAB
M  END
>  <Dataset>  (178) 
ChEMBL_Kinases

>  <Ligand_Instance>  (178) 
nan

>  <PDB_ID>  (178) 
nan

>  <Standardized_SMILES>  (178) 
O=C(Nc1cc2cc(-c3cncc(NCC4(F)CNC4)n3)ccc2cn1)C1CC1

>  <Name>  (178) 
nan

>  <Pocket>  (178) 
nan

>  <ATP_Site>  (178) 
nan

>  <Peripheral>  (178) 
nan

>  <Num_H_Atoms_ProtBoundConf>  (178) 
nan

>  <Num_Resolved_Atoms>  (178) 
nan

>  <Num_Not_Resolved_Atoms>  (178) 
nan

$$$$
CHEMBL4777044
     RDKit          3D

  0  0  0  0  0  0  0  0  0  0999 V3000
M  V30 BEGIN CTAB
M  V30 COUNTS 57 62 0 0 0
M  V30 BEGIN ATOM
M  V30 1 C 5.927074 -2.008781 1.087078 0
M  V30 2 C 4.833036 -1.002165 0.706760 0
M  V30 3 C 4.359242 -0.290596 1.944722 0
M  V30 4 N 5.401785 -0.027864 -0.201990 0
M  V30 5 C 4.670034 1.036095 -0.769294 0
M  V30 6 C 5.238246 1.965643 -1.637035 0
M  V30 7 N 4.554412 2.984426 -2.187424 0
M  V30 8 C 3.253813 3.157848 -1.917943 0
M  V30 9 C 2.588432 2.296493 -1.071364 0
M  V30 10 C 1.161402 2.444062 -0.744007 0
M  V30 11 C 0.629735 3.719303 -0.705344 0
M  V30 12 C -0.686250 3.903950 -0.407565 0
M  V30 13 C -1.469031 2.804371 -0.148167 0
M  V30 14 N -2.761771 2.633337 0.168028 0
M  V30 15 N -3.035430 1.357299 0.319120 0
M  V30 16 C -1.952307 0.577114 0.117005 0
M  V30 17 C -1.921433 -0.866026 0.207783 0
M  V30 18 C -3.041423 -1.609743 0.522079 0
M  V30 19 C -2.773242 -2.957450 0.550761 0
M  V30 20 C -3.533044 -4.079695 0.803822 0
M  V30 21 C -4.948371 -3.973691 1.141124 0
M  V30 22 C -5.513112 -3.121484 2.069591 0
M  V30 23 C -6.873270 -3.107137 2.299666 0
M  V30 24 C -7.676524 -3.967499 1.580590 0
M  V30 25 N -7.157310 -4.809874 0.669325 0
M  V30 26 C -5.810501 -4.826000 0.439566 0
M  V30 27 C -2.973698 -5.347604 0.755407 0
M  V30 28 C -1.632093 -5.401322 0.442953 0
M  V30 29 N -0.895569 -4.282310 0.195907 0
M  V30 30 C -1.443463 -3.062197 0.244607 0
M  V30 31 N -0.996732 -1.812888 0.054510 0
M  V30 32 C -0.990757 1.512784 -0.173100 0
M  V30 33 C 0.343052 1.378028 -0.478455 0
M  V30 34 C 3.339746 1.254612 -0.524472 0
M  V30 35 H 6.597172 -1.588876 1.866306 0
M  V30 36 H 6.480940 -2.218142 0.146881 0
M  V30 37 H 5.413872 -2.931144 1.440116 0
M  V30 38 H 4.031315 -1.609488 0.231090 0
M  V30 39 H 4.462045 0.809313 1.829588 0
M  V30 40 H 3.313573 -0.587870 2.142018 0
M  V30 41 H 4.992183 -0.606452 2.802154 0
M  V30 42 H 6.427025 -0.089994 -0.477278 0
M  V30 43 H 6.285226 1.881585 -1.895552 0
M  V30 44 H 2.720932 3.976738 -2.365469 0
M  V30 45 H 1.197772 4.625271 -0.900867 0
M  V30 46 H -1.176665 4.860005 -0.357003 0
M  V30 47 H -3.499369 3.360572 0.292492 0
M  V30 48 H -4.049369 -1.243885 0.731736 0
M  V30 49 H -4.838178 -2.475739 2.603815 0
M  V30 50 H -7.225529 -2.393712 3.057476 0
M  V30 51 H -8.749723 -3.940716 1.777210 0
M  V30 52 H -5.517179 -5.557867 -0.327061 0
M  V30 53 H -3.508167 -6.266579 0.941557 0
M  V30 54 H -1.091958 -6.350924 0.378141 0
M  V30 55 H -0.009201 -1.655708 -0.188909 0
M  V30 56 H 0.804481 0.416093 -0.521847 0
M  V30 57 H 2.786139 0.602729 0.130254 0
M  V30 END ATOM
M  V30 BEGIN BOND
M  V30 1 1 1 2
M  V30 2 1 2 3
M  V30 3 1 2 4
M  V30 4 1 4 5
M  V30 5 2 5 6
M  V30 6 1 6 7
M  V30 7 2 7 8
M  V30 8 1 8 9
M  V30 9 1 9 10
M  V30 10 2 10 11
M  V30 11 1 11 12
M  V30 12 2 12 13
M  V30 13 1 13 14
M  V30 14 1 14 15
M  V30 15 2 15 16
M  V30 16 1 16 17
M  V30 17 2 17 18
M  V30 18 1 18 19
M  V30 19 2 19 20
M  V30 20 1 20 21
M  V30 21 2 21 22
M  V30 22 1 22 23
M  V30 23 2 23 24
M  V30 24 1 24 25
M  V30 25 2 25 26
M  V30 26 1 20 27
M  V30 27 2 27 28
M  V30 28 1 28 29
M  V30 29 2 29 30
M  V30 30 1 30 31
M  V30 31 1 16 32
M  V30 32 2 32 33
M  V30 33 2 9 34
M  V30 34 1 34 5
M  V30 35 1 33 10
M  V30 36 1 32 13
M  V30 37 1 31 17
M  V30 38 1 30 19
M  V30 39 1 26 21
M  V30 40 1 1 35
M  V30 41 1 1 36
M  V30 42 1 1 37
M  V30 43 1 2 38
M  V30 44 1 3 39
M  V30 45 1 3 40
M  V30 46 1 3 41
M  V30 47 1 4 42
M  V30 48 1 6 43
M  V30 49 1 8 44
M  V30 50 1 11 45
M  V30 51 1 12 46
M  V30 52 1 14 47
M  V30 53 1 18 48
M  V30 54 1 22 49
M  V30 55 1 23 50
M  V30 56 1 24 51
M  V30 57 1 26 52
M  V30 58 1 27 53
M  V30 59 1 28 54
M  V30 60 1 31 55
M  V30 61 1 33 56
M  V30 62 1 34 57
M  V30 END BOND
M  V30 END CTAB
M  END
>  <Dataset>  (179) 
ChEMBL_Kinases

>  <Ligand_Instance>  (179) 
nan

>  <PDB_ID>  (179) 
nan

>  <Standardized_SMILES>  (179) 
CC(C)Nc1cncc(-c2ccc3[nH]nc(-c4cc5c(-c6cccnc6)ccnc5[nH]4)c3c2)c1

>  <Name>  (179) 
nan

>  <Pocket>  (179) 
nan

>  <ATP_Site>  (179) 
nan

>  <Peripheral>  (179) 
nan

>  <Num_H_Atoms_ProtBoundConf>  (179) 
nan

>  <Num_Resolved_Atoms>  (179) 
nan

>  <Num_Not_Resolved_Atoms>  (179) 
nan

$$$$
CHEMBL4776900
     RDKit          3D

  0  0  0  0  0  0  0  0  0  0999 V3000
M  V30 BEGIN CTAB
M  V30 COUNTS 45 49 0 0 0
M  V30 BEGIN ATOM
M  V30 1 O 2.356156 1.518725 2.220758 0
M  V30 2 C 1.290092 0.832489 2.047795 0
M  V30 3 N 1.665862 -0.323083 1.379840 0
M  V30 4 C 2.986687 -0.671231 0.969389 0 CFG=1
M  V30 5 C 3.440822 -2.075818 0.864477 0
M  V30 6 C 3.020118 -1.420127 -0.380805 0 CFG=2
M  V30 7 C 3.937540 -0.800486 -1.352277 0
M  V30 8 C 3.507603 -0.688083 -2.679359 0
M  V30 9 C 4.313395 -0.114467 -3.660563 0
M  V30 10 C 5.559506 0.348109 -3.300891 0
M  V30 11 C 6.029934 0.258701 -1.997451 0
M  V30 12 C 5.195275 -0.323038 -1.035812 0
M  V30 13 C 0.052775 1.376909 2.546652 0
M  V30 14 N 0.127340 2.576910 3.168729 0
M  V30 15 N -1.099246 2.931820 3.564799 0
M  V30 16 C -2.020593 2.013948 3.235634 0
M  V30 17 C -3.381547 1.844044 3.376409 0
M  V30 18 C -4.021315 0.703002 2.881056 0
M  V30 19 C -3.209965 -0.242089 2.243354 0
M  V30 20 C -3.861581 -1.438470 1.720257 0
M  V30 21 C -3.195218 -2.638063 1.669582 0
M  V30 22 C -3.749118 -3.809654 1.187328 0
M  V30 23 C -5.042472 -3.763578 0.733851 0
M  V30 24 N -5.730959 -2.595372 0.769006 0
M  V30 25 C -5.156588 -1.473021 1.246714 0
M  V30 26 C -1.859471 -0.072223 2.104311 0
M  V30 27 C -1.276631 1.046456 2.597568 0
M  V30 28 H 0.883614 -0.973864 1.176160 0
M  V30 29 H 3.817051 0.043189 1.179613 0
M  V30 30 H 2.797163 -2.900373 1.253414 0
M  V30 31 H 4.499547 -2.319559 0.938809 0
M  V30 32 H 2.071733 -1.738539 -0.820221 0
M  V30 33 H 2.527070 -1.045485 -2.993044 0
M  V30 34 H 3.927048 -0.054187 -4.673332 0
M  V30 35 H 6.176777 0.791885 -4.072156 0
M  V30 36 H 7.021456 0.631514 -1.732085 0
M  V30 37 H 5.528650 -0.409556 -0.009335 0
M  V30 38 H -1.304547 3.820731 4.070012 0
M  V30 39 H -3.915640 2.642259 3.889521 0
M  V30 40 H -5.093633 0.603514 3.009952 0
M  V30 41 H -2.173286 -2.716881 2.017725 0
M  V30 42 H -3.232067 -4.753825 1.144804 0
M  V30 43 H -5.548201 -4.632734 0.342056 0
M  V30 44 H -5.727162 -0.533270 1.268875 0
M  V30 45 H -1.305139 -0.830132 1.609025 0
M  V30 END ATOM
M  V30 BEGIN BOND
M  V30 1 2 1 2
M  V30 2 1 2 3
M  V30 3 1 3 4
M  V30 4 1 4 5
M  V30 5 1 5 6
M  V30 6 1 6 7
M  V30 7 2 7 8
M  V30 8 1 8 9
M  V30 9 2 9 10
M  V30 10 1 10 11
M  V30 11 2 11 12
M  V30 12 1 2 13
M  V30 13 2 13 14
M  V30 14 1 14 15
M  V30 15 1 15 16
M  V30 16 2 16 17
M  V30 17 1 17 18
M  V30 18 2 18 19
M  V30 19 1 19 20
M  V30 20 2 20 21
M  V30 21 1 21 22
M  V30 22 2 22 23
M  V30 23 1 23 24
M  V30 24 2 24 25
M  V30 25 1 19 26
M  V30 26 2 26 27
M  V30 27 1 6 4
M  V30 28 1 12 7
M  V30 29 1 27 13
M  V30 30 1 27 16
M  V30 31 1 25 20
M  V30 32 1 3 28
M  V30 33 1 4 29 CFG=3
M  V30 34 1 5 30
M  V30 35 1 5 31
M  V30 36 1 6 32 CFG=3
M  V30 37 1 8 33
M  V30 38 1 9 34
M  V30 39 1 10 35
M  V30 40 1 11 36
M  V30 41 1 12 37
M  V30 42 1 15 38
M  V30 43 1 17 39
M  V30 44 1 18 40
M  V30 45 1 21 41
M  V30 46 1 22 42
M  V30 47 1 23 43
M  V30 48 1 25 44
M  V30 49 1 26 45
M  V30 END BOND
M  V30 END CTAB
M  END
>  <Dataset>  (180) 
ChEMBL_Kinases

>  <Ligand_Instance>  (180) 
nan

>  <PDB_ID>  (180) 
nan

>  <Standardized_SMILES>  (180) 
O=C(N[C@H]1C[C@@H]1c1ccccc1)c1n[nH]c2ccc(-c3cccnc3)cc12

>  <Name>  (180) 
nan

>  <Pocket>  (180) 
nan

>  <ATP_Site>  (180) 
nan

>  <Peripheral>  (180) 
nan

>  <Num_H_Atoms_ProtBoundConf>  (180) 
nan

>  <Num_Resolved_Atoms>  (180) 
nan

>  <Num_Not_Resolved_Atoms>  (180) 
nan

$$$$
CHEMBL4776789
     RDKit          3D

  0  0  0  0  0  0  0  0  0  0999 V3000
M  V30 BEGIN CTAB
M  V30 COUNTS 54 59 0 0 0
M  V30 BEGIN ATOM
M  V30 1 O -0.861949 -2.941550 -3.291929 0
M  V30 2 C -0.951358 -3.741607 -2.327904 0
M  V30 3 N 0.226879 -3.765472 -1.518820 0
M  V30 4 C 1.283649 -2.879572 -1.952201 0
M  V30 5 C 2.309056 -3.176598 -2.838713 0
M  V30 6 N 3.202779 -2.208409 -3.117185 0
M  V30 7 C 3.116767 -0.982227 -2.559033 0
M  V30 8 C 2.099517 -0.649315 -1.664249 0
M  V30 9 C 2.095522 0.706919 -1.117224 0
M  V30 10 C 2.552511 1.787599 -1.833304 0
M  V30 11 C 2.553198 3.070802 -1.327118 0
M  V30 12 C 2.066929 3.227990 -0.046784 0
M  V30 13 N 1.923999 4.307573 0.739747 0
M  V30 14 N 1.412011 3.967474 1.888114 0
M  V30 15 C 1.169416 2.631264 1.966403 0
M  V30 16 C 0.608481 1.926366 3.098637 0
M  V30 17 C 0.256590 2.601549 4.267831 0
M  V30 18 C -0.252731 1.750111 5.218777 0
M  V30 19 C -0.727107 1.924845 6.499019 0
M  V30 20 C -1.176027 0.824430 7.197388 0
M  V30 21 C -1.129332 -0.399830 6.581728 0
M  V30 22 N -0.657720 -0.564568 5.312640 0
M  V30 23 C -0.218376 0.506709 4.627037 0
M  V30 24 N 0.286141 0.674539 3.411080 0
M  V30 25 C 1.592518 2.198067 0.733503 0
M  V30 26 C 1.626386 0.955852 0.156322 0
M  V30 27 C 1.191835 -1.627310 -1.379289 0
M  V30 28 C -2.010538 -4.679453 -1.828913 0
M  V30 29 C -2.364258 -4.221930 -0.413128 0
M  V30 30 C -3.115866 -2.942198 -0.706687 0
M  V30 31 C -3.900408 -3.241493 -1.977159 0
M  V30 32 C -3.310604 -4.523495 -2.541882 0
M  V30 33 H 0.460750 -4.314144 -0.663595 0
M  V30 34 H 2.283596 -4.180216 -3.223640 0
M  V30 35 H 3.899666 -0.288340 -2.865026 0
M  V30 36 H 2.926121 1.630456 -2.831192 0
M  V30 37 H 2.915325 3.944250 -1.888527 0
M  V30 38 H 2.163393 5.291802 0.530047 0
M  V30 39 H 0.341217 3.673456 4.486044 0
M  V30 40 H -0.738104 2.918007 6.928931 0
M  V30 41 H -1.560212 0.906807 8.210984 0
M  V30 42 H -1.480638 -1.294054 7.113912 0
M  V30 43 H 0.407615 -0.116773 2.779678 0
M  V30 44 H 1.272982 0.102269 0.702856 0
M  V30 45 H 0.408676 -1.321986 -0.671160 0
M  V30 46 H -1.621801 -5.699896 -1.747993 0
M  V30 47 H -3.046602 -4.939660 0.050370 0
M  V30 48 H -1.496604 -4.086086 0.231976 0
M  V30 49 H -2.433595 -2.071740 -0.876007 0
M  V30 50 H -3.778045 -2.618521 0.128230 0
M  V30 51 H -4.974137 -3.343423 -1.717559 0
M  V30 52 H -3.798157 -2.392660 -2.682296 0
M  V30 53 H -3.972025 -5.343081 -2.202958 0
M  V30 54 H -3.186369 -4.496979 -3.641080 0
M  V30 END ATOM
M  V30 BEGIN BOND
M  V30 1 2 1 2
M  V30 2 1 2 3
M  V30 3 1 3 4
M  V30 4 2 4 5
M  V30 5 1 5 6
M  V30 6 2 6 7
M  V30 7 1 7 8
M  V30 8 1 8 9
M  V30 9 2 9 10
M  V30 10 1 10 11
M  V30 11 2 11 12
M  V30 12 1 12 13
M  V30 13 1 13 14
M  V30 14 2 14 15
M  V30 15 1 15 16
M  V30 16 2 16 17
M  V30 17 1 17 18
M  V30 18 2 18 19
M  V30 19 1 19 20
M  V30 20 2 20 21
M  V30 21 1 21 22
M  V30 22 2 22 23
M  V30 23 1 23 24
M  V30 24 1 15 25
M  V30 25 2 25 26
M  V30 26 2 8 27
M  V30 27 1 2 28
M  V30 28 1 28 29
M  V30 29 1 29 30
M  V30 30 1 30 31
M  V30 31 1 31 32
M  V30 32 1 27 4
M  V30 33 1 32 28
M  V30 34 1 26 9
M  V30 35 1 25 12
M  V30 36 1 24 16
M  V30 37 1 23 18
M  V30 38 1 3 33
M  V30 39 1 5 34
M  V30 40 1 7 35
M  V30 41 1 10 36
M  V30 42 1 11 37
M  V30 43 1 13 38
M  V30 44 1 17 39
M  V30 45 1 19 40
M  V30 46 1 20 41
M  V30 47 1 21 42
M  V30 48 1 24 43
M  V30 49 1 26 44
M  V30 50 1 27 45
M  V30 51 1 28 46
M  V30 52 1 29 47
M  V30 53 1 29 48
M  V30 54 1 30 49
M  V30 55 1 30 50
M  V30 56 1 31 51
M  V30 57 1 31 52
M  V30 58 1 32 53
M  V30 59 1 32 54
M  V30 END BOND
M  V30 END CTAB
M  END
>  <Dataset>  (181) 
ChEMBL_Kinases

>  <Ligand_Instance>  (181) 
nan

>  <PDB_ID>  (181) 
nan

>  <Standardized_SMILES>  (181) 
O=C(Nc1cncc(-c2ccc3[nH]nc(-c4cc5cccnc5[nH]4)c3c2)c1)C1CCCC1

>  <Name>  (181) 
nan

>  <Pocket>  (181) 
nan

>  <ATP_Site>  (181) 
nan

>  <Peripheral>  (181) 
nan

>  <Num_H_Atoms_ProtBoundConf>  (181) 
nan

>  <Num_Resolved_Atoms>  (181) 
nan

>  <Num_Not_Resolved_Atoms>  (181) 
nan

$$$$
CHEMBL4776672
     RDKit          3D

  0  0  0  0  0  0  0  0  0  0999 V3000
M  V30 BEGIN CTAB
M  V30 COUNTS 52 57 0 0 0
M  V30 BEGIN ATOM
M  V30 1 O 5.047996 -2.628793 1.774824 0
M  V30 2 C 4.541216 -2.416658 2.917347 0
M  V30 3 N 4.342054 -1.017300 3.180911 0
M  V30 4 C 4.658140 0.062120 2.297546 0
M  V30 5 C 5.890117 0.724694 2.264753 0
M  V30 6 N 6.058025 1.726875 1.382969 0
M  V30 7 C 5.094891 2.120612 0.531444 0
M  V30 8 C 3.874426 1.512321 0.517664 0
M  V30 9 C 2.769544 1.867144 -0.366015 0
M  V30 10 C 2.838638 2.869938 -1.296948 0
M  V30 11 C 1.819031 3.236733 -2.150319 0
M  V30 12 C 0.630854 2.541590 -2.064675 0
M  V30 13 N -0.557952 2.589611 -2.694385 0
M  V30 14 N -1.365964 1.651934 -2.188791 0
M  V30 15 C -0.702200 0.972974 -1.209725 0
M  V30 16 C -1.185684 -0.132120 -0.383769 0
M  V30 17 N -2.416461 -0.674841 -0.465721 0
M  V30 18 C -2.520185 -1.677032 0.447626 0
M  V30 19 C -3.489837 -2.598273 0.858035 0
M  V30 20 C -4.761865 -2.538437 0.176094 0
M  V30 21 C -5.736422 -1.697100 0.723858 0
M  V30 22 C -6.991255 -1.591530 0.113788 0
M  V30 23 C -7.232304 -2.337514 -1.034281 0
M  V30 24 C -6.259571 -3.163483 -1.562464 0
M  V30 25 C -5.020425 -3.270809 -0.964159 0
M  V30 26 F -4.007407 -4.046874 -1.401059 0
M  V30 27 C -3.213037 -3.502432 1.863833 0
M  V30 28 C -1.980021 -3.527699 2.493375 0
M  V30 29 N -1.036664 -2.630496 2.093187 0
M  V30 30 C -1.307253 -1.743839 1.107276 0
M  V30 31 N -0.517466 -0.793238 0.580323 0
M  V30 32 C 0.558967 1.538774 -1.135091 0
M  V30 33 N 1.585931 1.221263 -0.325529 0
M  V30 34 C 3.679466 0.481622 1.413605 0
M  V30 35 C 4.077047 -3.190611 4.100249 0
M  V30 36 F 4.283797 -4.533119 3.811166 0
M  V30 37 F 2.746457 -2.941116 4.391323 0
M  V30 38 F 4.827115 -2.852989 5.213124 0
M  V30 39 H 3.952541 -0.475148 4.005630 0
M  V30 40 H 6.615160 0.360385 2.971105 0
M  V30 41 H 5.274949 2.929039 -0.157960 0
M  V30 42 H 3.745291 3.444805 -1.405051 0
M  V30 43 H 1.924393 4.037395 -2.868967 0
M  V30 44 H -0.721351 3.290939 -3.449375 0
M  V30 45 H -5.563552 -1.112338 1.614170 0
M  V30 46 H -7.757492 -0.935511 0.537098 0
M  V30 47 H -8.202877 -2.278933 -1.537203 0
M  V30 48 H -6.406124 -3.760219 -2.453112 0
M  V30 49 H -3.969946 -4.204330 2.167623 0
M  V30 50 H -1.717047 -4.219405 3.287980 0
M  V30 51 H 0.453076 -0.559147 0.831483 0
M  V30 52 H 2.715581 -0.025980 1.428883 0
M  V30 END ATOM
M  V30 BEGIN BOND
M  V30 1 2 1 2
M  V30 2 1 2 3
M  V30 3 1 3 4
M  V30 4 2 4 5
M  V30 5 1 5 6
M  V30 6 2 6 7
M  V30 7 1 7 8
M  V30 8 1 8 9
M  V30 9 2 9 10
M  V30 10 1 10 11
M  V30 11 2 11 12
M  V30 12 1 12 13
M  V30 13 1 13 14
M  V30 14 2 14 15
M  V30 15 1 15 16
M  V30 16 2 16 17
M  V30 17 1 17 18
M  V30 18 2 18 19
M  V30 19 1 19 20
M  V30 20 2 20 21
M  V30 21 1 21 22
M  V30 22 2 22 23
M  V30 23 1 23 24
M  V30 24 2 24 25
M  V30 25 1 25 26
M  V30 26 1 19 27
M  V30 27 2 27 28
M  V30 28 1 28 29
M  V30 29 2 29 30
M  V30 30 1 30 31
M  V30 31 1 15 32
M  V30 32 2 32 33
M  V30 33 2 8 34
M  V30 34 1 2 35
M  V30 35 1 35 36
M  V30 36 1 35 37
M  V30 37 1 35 38
M  V30 38 1 34 4
M  V30 39 1 33 9
M  V30 40 1 32 12
M  V30 41 1 31 16
M  V30 42 1 30 18
M  V30 43 1 25 20
M  V30 44 1 3 39
M  V30 45 1 5 40
M  V30 46 1 7 41
M  V30 47 1 10 42
M  V30 48 1 11 43
M  V30 49 1 13 44
M  V30 50 1 21 45
M  V30 51 1 22 46
M  V30 52 1 23 47
M  V30 53 1 24 48
M  V30 54 1 27 49
M  V30 55 1 28 50
M  V30 56 1 31 51
M  V30 57 1 34 52
M  V30 END BOND
M  V30 END CTAB
M  END
>  <Dataset>  (182) 
ChEMBL_Kinases

>  <Ligand_Instance>  (182) 
nan

>  <PDB_ID>  (182) 
nan

>  <Standardized_SMILES>  (182) 
O=C(Nc1cncc(-c2ccc3[nH]nc(-c4nc5c(-c6ccccc6F)ccnc5[nH]4)c3n2)c1)C(F)(F)F

>  <Name>  (182) 
nan

>  <Pocket>  (182) 
nan

>  <ATP_Site>  (182) 
nan

>  <Peripheral>  (182) 
nan

>  <Num_H_Atoms_ProtBoundConf>  (182) 
nan

>  <Num_Resolved_Atoms>  (182) 
nan

>  <Num_Not_Resolved_Atoms>  (182) 
nan

$$$$
CHEMBL4776636
     RDKit          3D

  0  0  0  0  0  0  0  0  0  0999 V3000
M  V30 BEGIN CTAB
M  V30 COUNTS 59 64 0 0 0
M  V30 BEGIN ATOM
M  V30 1 C 4.942392 -2.741103 5.674980 0
M  V30 2 C 6.106452 -2.697404 4.706371 0
M  V30 3 C 7.244835 -2.025549 5.419838 0
M  V30 4 C 6.407220 -4.086717 4.266656 0
M  V30 5 C 5.705190 -1.805253 3.585946 0
M  V30 6 O 6.082450 -0.740891 3.045091 0
M  V30 7 N 4.532383 -2.396313 2.990402 0
M  V30 8 C 3.737265 -1.948852 1.876346 0
M  V30 9 C 4.067351 -2.378671 0.585002 0
M  V30 10 N 3.340121 -1.978847 -0.499894 0
M  V30 11 C 2.287761 -1.154269 -0.303286 0
M  V30 12 C 1.905270 -0.691049 0.942462 0
M  V30 13 C 0.751056 0.204214 1.095126 0
M  V30 14 C 0.763508 1.129241 2.120182 0
M  V30 15 C -0.332865 1.957937 2.240579 0
M  V30 16 C -1.391940 1.856242 1.365854 0
M  V30 17 N -2.559776 2.500013 1.231248 0
M  V30 18 N -3.242098 2.025057 0.217784 0
M  V30 19 C -2.581759 1.019632 -0.410519 0
M  V30 20 C -3.052414 0.278547 -1.562650 0
M  V30 21 N -4.245060 0.555643 -2.115375 0
M  V30 22 C -4.494494 -0.234520 -3.161139 0
M  V30 23 C -5.553311 -0.354153 -4.052501 0
M  V30 24 C -6.691574 0.556179 -3.871296 0
M  V30 25 C -7.820430 0.609957 -4.621270 0
M  V30 26 C -8.787869 1.523365 -4.313842 0
M  V30 27 C -8.499528 2.378350 -3.170570 0
M  V30 28 F -9.355217 3.363663 -2.704456 0
M  V30 29 S -6.794984 1.732402 -2.656782 0
M  V30 30 C -5.485240 -1.294290 -5.034435 0
M  V30 31 C -4.386896 -2.121270 -5.152590 0
M  V30 32 N -3.343917 -2.008500 -4.280106 0
M  V30 33 C -3.416395 -1.079693 -3.313780 0
M  V30 34 N -2.594123 -0.715172 -2.323390 0
M  V30 35 C -1.428808 0.942537 0.335653 0
M  V30 36 C -0.325057 0.128609 0.236813 0
M  V30 37 C 2.656273 -1.105772 2.049964 0
M  V30 38 H 3.985040 -2.782219 5.131937 0
M  V30 39 H 4.899663 -1.826149 6.295563 0
M  V30 40 H 5.033410 -3.599107 6.372443 0
M  V30 41 H 8.195102 -2.323699 4.946173 0
M  V30 42 H 7.082718 -0.923571 5.367142 0
M  V30 43 H 7.193380 -2.332653 6.489847 0
M  V30 44 H 7.482258 -4.308512 4.122377 0
M  V30 45 H 5.839493 -4.281723 3.318564 0
M  V30 46 H 6.033229 -4.796857 5.026989 0
M  V30 47 H 3.933081 -3.251964 3.149234 0
M  V30 48 H 4.927769 -3.041095 0.508497 0
M  V30 49 H 1.697514 -0.825840 -1.155970 0
M  V30 50 H 1.567512 1.248271 2.830334 0
M  V30 51 H -0.451009 2.730729 3.004403 0
M  V30 52 H -2.933619 3.280583 1.819014 0
M  V30 53 H -7.967243 -0.057452 -5.457662 0
M  V30 54 H -9.728935 1.677219 -4.819639 0
M  V30 55 H -6.325905 -1.383020 -5.735341 0
M  V30 56 H -4.378081 -2.857857 -5.953848 0
M  V30 57 H -1.684471 -1.185218 -2.185471 0
M  V30 58 H -0.263681 -0.613685 -0.534524 0
M  V30 59 H 2.385872 -0.764420 3.031068 0
M  V30 END ATOM
M  V30 BEGIN BOND
M  V30 1 1 1 2
M  V30 2 1 2 3
M  V30 3 1 2 4
M  V30 4 1 2 5
M  V30 5 2 5 6
M  V30 6 1 5 7
M  V30 7 1 7 8
M  V30 8 2 8 9
M  V30 9 1 9 10
M  V30 10 2 10 11
M  V30 11 1 11 12
M  V30 12 1 12 13
M  V30 13 2 13 14
M  V30 14 1 14 15
M  V30 15 2 15 16
M  V30 16 1 16 17
M  V30 17 1 17 18
M  V30 18 2 18 19
M  V30 19 1 19 20
M  V30 20 2 20 21
M  V30 21 1 21 22
M  V30 22 2 22 23
M  V30 23 1 23 24
M  V30 24 2 24 25
M  V30 25 1 25 26
M  V30 26 2 26 27
M  V30 27 1 27 28
M  V30 28 1 27 29
M  V30 29 1 23 30
M  V30 30 2 30 31
M  V30 31 1 31 32
M  V30 32 2 32 33
M  V30 33 1 33 34
M  V30 34 1 19 35
M  V30 35 2 35 36
M  V30 36 2 12 37
M  V30 37 1 37 8
M  V30 38 1 36 13
M  V30 39 1 35 16
M  V30 40 1 34 20
M  V30 41 1 33 22
M  V30 42 1 29 24
M  V30 43 1 1 38
M  V30 44 1 1 39
M  V30 45 1 1 40
M  V30 46 1 3 41
M  V30 47 1 3 42
M  V30 48 1 3 43
M  V30 49 1 4 44
M  V30 50 1 4 45
M  V30 51 1 4 46
M  V30 52 1 7 47
M  V30 53 1 9 48
M  V30 54 1 11 49
M  V30 55 1 14 50
M  V30 56 1 15 51
M  V30 57 1 17 52
M  V30 58 1 25 53
M  V30 59 1 26 54
M  V30 60 1 30 55
M  V30 61 1 31 56
M  V30 62 1 34 57
M  V30 63 1 36 58
M  V30 64 1 37 59
M  V30 END BOND
M  V30 END CTAB
M  END
>  <Dataset>  (183) 
ChEMBL_Kinases

>  <Ligand_Instance>  (183) 
nan

>  <PDB_ID>  (183) 
nan

>  <Standardized_SMILES>  (183) 
CC(C)(C)C(=O)Nc1cncc(-c2ccc3[nH]nc(-c4nc5c(-c6ccc(F)s6)ccnc5[nH]4)c3c2)c1

>  <Name>  (183) 
nan

>  <Pocket>  (183) 
nan

>  <ATP_Site>  (183) 
nan

>  <Peripheral>  (183) 
nan

>  <Num_H_Atoms_ProtBoundConf>  (183) 
nan

>  <Num_Resolved_Atoms>  (183) 
nan

>  <Num_Not_Resolved_Atoms>  (183) 
nan

$$$$
CHEMBL4776499
     RDKit          3D

  0  0  0  0  0  0  0  0  0  0999 V3000
M  V30 BEGIN CTAB
M  V30 COUNTS 58 62 0 0 0
M  V30 BEGIN ATOM
M  V30 1 C 3.731271 -2.005244 6.479238 0
M  V30 2 C 4.419925 -1.163441 5.481372 0
M  V30 3 C 5.747473 -0.886649 5.690205 0
M  V30 4 N 6.370532 -0.119599 4.778327 0
M  V30 5 C 5.724619 0.360770 3.701794 0
M  V30 6 C 4.399718 0.128686 3.423303 0
M  V30 7 N 3.649608 0.589559 2.325832 0
M  V30 8 C 3.975732 1.376147 1.235152 0
M  V30 9 O 5.206678 1.723042 1.283526 0
M  V30 10 C 3.279908 1.886563 0.085243 0
M  V30 11 N 3.990124 2.651698 -0.793632 0
M  V30 12 N 3.178897 3.030558 -1.788940 0
M  V30 13 C 1.938799 2.566003 -1.644927 0
M  V30 14 C 0.752920 2.643369 -2.339427 0
M  V30 15 C -0.375474 2.004633 -1.863427 0
M  V30 16 C -0.255700 1.299098 -0.679828 0
M  V30 17 C -1.486456 0.649710 -0.235301 0
M  V30 18 C -1.684665 0.507175 1.125580 0
M  V30 19 N -2.816811 -0.090818 1.567046 0
M  V30 20 C -3.713025 -0.528100 0.691453 0
M  V30 21 C -3.590596 -0.423988 -0.695593 0
M  V30 22 C -4.657918 -0.949398 -1.552323 0
M  V30 23 N -4.393114 -2.330734 -1.872188 0
M  V30 24 C -4.319957 -3.168925 -0.711288 0
M  V30 25 C -4.074167 -4.593742 -1.176297 0
M  V30 26 C -4.017623 -4.663232 -2.703495 0
M  V30 27 C -2.879305 -3.777017 -3.149220 0
M  V30 28 C -3.156768 -2.384501 -2.625610 0
M  V30 29 C -2.429877 0.188412 -1.124664 0
M  V30 30 C 0.918364 1.211343 0.025502 0
M  V30 31 C 2.021488 1.855819 -0.471807 0
M  V30 32 C 3.786310 -0.660130 4.374513 0
M  V30 33 H 2.642159 -1.792028 6.422875 0
M  V30 34 H 3.978406 -3.059869 6.295383 0
M  V30 35 H 4.065506 -1.777486 7.516153 0
M  V30 36 H 6.310490 -1.241997 6.528127 0
M  V30 37 H 6.322613 0.958090 3.046801 0
M  V30 38 H 2.655193 0.294851 2.309237 0
M  V30 39 H 3.524938 3.630923 -2.580366 0
M  V30 40 H 0.747164 3.210843 -3.247884 0
M  V30 41 H -1.300399 2.079437 -2.428313 0
M  V30 42 H -0.983081 0.847264 1.888446 0
M  V30 43 H -4.590695 -0.993430 1.091209 0
M  V30 44 H -4.778752 -0.319277 -2.445629 0
M  V30 45 H -5.611851 -0.839603 -0.983016 0
M  V30 46 H -3.454561 -2.893963 -0.068464 0
M  V30 47 H -5.266453 -3.074710 -0.143487 0
M  V30 48 H -4.913783 -5.284465 -0.894358 0
M  V30 49 H -3.115535 -5.008535 -0.802858 0
M  V30 50 H -3.828908 -5.707272 -2.969912 0
M  V30 51 H -4.980626 -4.276357 -3.120970 0
M  V30 52 H -1.938226 -4.205512 -2.786363 0
M  V30 53 H -2.869855 -3.768472 -4.257331 0
M  V30 54 H -3.225790 -1.620019 -3.404852 0
M  V30 55 H -2.275925 -2.125864 -1.975788 0
M  V30 56 H -2.290211 0.291686 -2.180950 0
M  V30 57 H 0.958150 0.651649 0.938130 0
M  V30 58 H 2.723731 -0.940800 4.301322 0
M  V30 END ATOM
M  V30 BEGIN BOND
M  V30 1 1 1 2
M  V30 2 2 2 3
M  V30 3 1 3 4
M  V30 4 2 4 5
M  V30 5 1 5 6
M  V30 6 1 6 7
M  V30 7 1 7 8
M  V30 8 2 8 9
M  V30 9 1 8 10
M  V30 10 2 10 11
M  V30 11 1 11 12
M  V30 12 1 12 13
M  V30 13 2 13 14
M  V30 14 1 14 15
M  V30 15 2 15 16
M  V30 16 1 16 17
M  V30 17 2 17 18
M  V30 18 1 18 19
M  V30 19 2 19 20
M  V30 20 1 20 21
M  V30 21 1 21 22
M  V30 22 1 22 23
M  V30 23 1 23 24
M  V30 24 1 24 25
M  V30 25 1 25 26
M  V30 26 1 26 27
M  V30 27 1 27 28
M  V30 28 2 21 29
M  V30 29 1 16 30
M  V30 30 2 30 31
M  V30 31 2 6 32
M  V30 32 1 32 2
M  V30 33 1 31 10
M  V30 34 1 31 13
M  V30 35 1 29 17
M  V30 36 1 28 23
M  V30 37 1 1 33
M  V30 38 1 1 34
M  V30 39 1 1 35
M  V30 40 1 3 36
M  V30 41 1 5 37
M  V30 42 1 7 38
M  V30 43 1 12 39
M  V30 44 1 14 40
M  V30 45 1 15 41
M  V30 46 1 18 42
M  V30 47 1 20 43
M  V30 48 1 22 44
M  V30 49 1 22 45
M  V30 50 1 24 46
M  V30 51 1 24 47
M  V30 52 1 25 48
M  V30 53 1 25 49
M  V30 54 1 26 50
M  V30 55 1 26 51
M  V30 56 1 27 52
M  V30 57 1 27 53
M  V30 58 1 28 54
M  V30 59 1 28 55
M  V30 60 1 29 56
M  V30 61 1 30 57
M  V30 62 1 32 58
M  V30 END BOND
M  V30 END CTAB
M  END
>  <Dataset>  (184) 
ChEMBL_Kinases

>  <Ligand_Instance>  (184) 
nan

>  <PDB_ID>  (184) 
nan

>  <Standardized_SMILES>  (184) 
Cc1cncc(NC(=O)c2n[nH]c3ccc(-c4cncc(CN5CCCCC5)c4)cc23)c1

>  <Name>  (184) 
nan

>  <Pocket>  (184) 
nan

>  <ATP_Site>  (184) 
nan

>  <Peripheral>  (184) 
nan

>  <Num_H_Atoms_ProtBoundConf>  (184) 
nan

>  <Num_Resolved_Atoms>  (184) 
nan

>  <Num_Not_Resolved_Atoms>  (184) 
nan

$$$$
CHEMBL4776491
     RDKit          3D

  0  0  0  0  0  0  0  0  0  0999 V3000
M  V30 BEGIN CTAB
M  V30 COUNTS 53 58 0 0 0
M  V30 BEGIN ATOM
M  V30 1 C 6.709749 -0.551866 2.623556 0
M  V30 2 C 5.610135 -1.581354 2.703962 0
M  V30 3 C 5.454754 -2.090363 4.121083 0
M  V30 4 N 4.365879 -1.041331 2.194077 0
M  V30 5 C 4.197348 -0.585886 0.861880 0
M  V30 6 C 5.195453 -0.603754 -0.073907 0
M  V30 7 N 5.068451 -0.176354 -1.345353 0
M  V30 8 C 3.875524 0.320983 -1.784443 0
M  V30 9 C 2.849011 0.347498 -0.849793 0
M  V30 10 C 1.592222 0.896089 -1.393335 0
M  V30 11 C 1.595591 1.880604 -2.369397 0
M  V30 12 N 0.400601 2.336523 -2.832897 0
M  V30 13 C -0.765387 1.856355 -2.368191 0
M  V30 14 N -2.059704 2.106753 -2.633490 0
M  V30 15 N -2.837377 1.347441 -1.891027 0
M  V30 16 C -2.131426 0.538803 -1.079932 0
M  V30 17 C -2.676657 -0.423026 -0.144139 0
M  V30 18 N -4.006063 -0.593768 -0.027479 0
M  V30 19 C -4.332370 -1.523670 0.870489 0
M  V30 20 C -5.574768 -2.009159 1.294308 0
M  V30 21 C -6.764482 -1.439796 0.678306 0
M  V30 22 C -7.262354 -0.195412 0.360754 0
M  V30 23 C -8.500645 -0.422588 -0.247083 0
M  V30 24 O -8.735956 -1.720699 -0.293836 0
M  V30 25 C -7.704031 -2.356340 0.257959 0
M  V30 26 N -5.538059 -2.977077 2.240157 0
M  V30 27 C -4.376306 -3.436440 2.735038 0
M  V30 28 C -3.141070 -2.982278 2.341192 0
M  V30 29 C -3.145704 -1.997035 1.379553 0
M  V30 30 N -2.202709 -1.303784 0.736737 0
M  V30 31 C -0.839171 0.877978 -1.398824 0
M  V30 32 C 0.378643 0.427139 -0.939941 0
M  V30 33 C 2.979470 -0.090478 0.453474 0
M  V30 34 H 6.381687 0.386632 2.129386 0
M  V30 35 H 7.029114 -0.318782 3.660021 0
M  V30 36 H 7.575038 -0.995382 2.118154 0
M  V30 37 H 5.913375 -2.463192 2.095059 0
M  V30 38 H 5.259408 -3.173978 4.172309 0
M  V30 39 H 6.405347 -1.844814 4.667047 0
M  V30 40 H 4.579570 -1.560808 4.564117 0
M  V30 41 H 3.565206 -0.994360 2.858918 0
M  V30 42 H 6.175451 -0.979045 0.173277 0
M  V30 43 H 3.778862 0.661345 -2.800984 0
M  V30 44 H 2.517440 2.275707 -2.752328 0
M  V30 45 H -2.449132 2.789941 -3.315714 0
M  V30 46 H -6.651137 0.655700 0.620130 0
M  V30 47 H -9.014490 0.491754 -0.554593 0
M  V30 48 H -7.922369 -3.433227 0.207096 0
M  V30 49 H -4.401036 -4.212466 3.491464 0
M  V30 50 H -2.181903 -3.316770 2.705929 0
M  V30 51 H -1.196325 -1.453614 0.922846 0
M  V30 52 H 0.420458 -0.329949 -0.188728 0
M  V30 53 H 2.122908 -0.032382 1.114737 0
M  V30 END ATOM
M  V30 BEGIN BOND
M  V30 1 1 1 2
M  V30 2 1 2 3
M  V30 3 1 2 4
M  V30 4 1 4 5
M  V30 5 2 5 6
M  V30 6 1 6 7
M  V30 7 2 7 8
M  V30 8 1 8 9
M  V30 9 1 9 10
M  V30 10 2 10 11
M  V30 11 1 11 12
M  V30 12 2 12 13
M  V30 13 1 13 14
M  V30 14 1 14 15
M  V30 15 2 15 16
M  V30 16 1 16 17
M  V30 17 2 17 18
M  V30 18 1 18 19
M  V30 19 2 19 20
M  V30 20 1 20 21
M  V30 21 1 21 22
M  V30 22 2 22 23
M  V30 23 1 23 24
M  V30 24 1 24 25
M  V30 25 1 20 26
M  V30 26 2 26 27
M  V30 27 1 27 28
M  V30 28 2 28 29
M  V30 29 1 29 30
M  V30 30 1 16 31
M  V30 31 2 31 32
M  V30 32 2 9 33
M  V30 33 1 33 5
M  V30 34 1 32 10
M  V30 35 1 31 13
M  V30 36 1 30 17
M  V30 37 1 29 19
M  V30 38 2 25 21
M  V30 39 1 1 34
M  V30 40 1 1 35
M  V30 41 1 1 36
M  V30 42 1 2 37
M  V30 43 1 3 38
M  V30 44 1 3 39
M  V30 45 1 3 40
M  V30 46 1 4 41
M  V30 47 1 6 42
M  V30 48 1 8 43
M  V30 49 1 11 44
M  V30 50 1 14 45
M  V30 51 1 22 46
M  V30 52 1 23 47
M  V30 53 1 25 48
M  V30 54 1 27 49
M  V30 55 1 28 50
M  V30 56 1 30 51
M  V30 57 1 32 52
M  V30 58 1 33 53
M  V30 END BOND
M  V30 END CTAB
M  END
>  <Dataset>  (185) 
ChEMBL_Kinases

>  <Ligand_Instance>  (185) 
nan

>  <PDB_ID>  (185) 
nan

>  <Standardized_SMILES>  (185) 
CC(C)Nc1cncc(-c2cnc3[nH]nc(-c4nc5c(-c6ccoc6)nccc5[nH]4)c3c2)c1

>  <Name>  (185) 
nan

>  <Pocket>  (185) 
nan

>  <ATP_Site>  (185) 
nan

>  <Peripheral>  (185) 
nan

>  <Num_H_Atoms_ProtBoundConf>  (185) 
nan

>  <Num_Resolved_Atoms>  (185) 
nan

>  <Num_Not_Resolved_Atoms>  (185) 
nan

$$$$
CHEMBL4224859
     RDKit          3D

  0  0  0  0  0  0  0  0  0  0999 V3000
M  V30 BEGIN CTAB
M  V30 COUNTS 47 50 0 0 0
M  V30 BEGIN ATOM
M  V30 1 C 0.043106 -0.821114 4.045746 0
M  V30 2 C 0.488518 -2.182600 3.555993 0
M  V30 3 C -0.113633 -2.433887 2.170202 0
M  V30 4 N 1.939305 -2.219782 3.520221 0
M  V30 5 C 2.723126 -1.348265 2.730262 0
M  V30 6 C 4.103103 -1.389736 2.704143 0
M  V30 7 C 4.881156 -0.547349 1.938697 0
M  V30 8 C 4.286556 0.406208 1.138610 0
M  V30 9 C 4.797783 1.362419 0.286468 0
M  V30 10 N 3.723201 1.993178 -0.212151 0
M  V30 11 N 2.606116 1.486640 0.277317 0
M  V30 12 C 1.292122 1.931862 -0.049703 0
M  V30 13 C 1.027284 3.285549 -0.099130 0
M  V30 14 N -0.230492 3.645009 -0.413016 0
M  V30 15 C -1.180638 2.727984 -0.665638 0
M  V30 16 C -0.924581 1.373393 -0.618451 0
M  V30 17 C -1.946813 0.373286 -0.890420 0
M  V30 18 C -3.259868 0.635843 -1.219560 0
M  V30 19 C -4.171342 -0.374230 -1.463605 0
M  V30 20 C -3.782203 -1.701288 -1.382373 0
M  V30 21 C -4.787404 -2.724825 -1.650302 0
M  V30 22 O -5.997046 -2.513940 -1.954131 0
M  V30 23 O -4.373082 -4.057656 -1.562473 0
M  V30 24 C -2.468563 -2.006765 -1.053648 0
M  V30 25 F -2.084390 -3.292863 -0.973151 0
M  V30 26 C -1.600949 -0.960151 -0.820232 0
M  V30 27 N 0.345134 1.009891 -0.301591 0
M  V30 28 C 2.912583 0.489358 1.128304 0
M  V30 29 C 2.188505 -0.376938 1.912044 0
M  V30 30 H -0.504561 -0.947710 5.022992 0
M  V30 31 H -0.718470 -0.350153 3.379490 0
M  V30 32 H 0.912772 -0.134762 4.232204 0
M  V30 33 H 0.125406 -2.973635 4.269714 0
M  V30 34 H 0.637091 -2.551504 1.389278 0
M  V30 35 H -0.754928 -3.362458 2.228488 0
M  V30 36 H -0.836439 -1.630573 1.919059 0
M  V30 37 H 2.462760 -2.922755 4.103296 0
M  V30 38 H 4.610565 -2.135910 3.328303 0
M  V30 39 H 5.970171 -0.623729 1.955922 0
M  V30 40 H 5.833369 1.556591 0.071521 0
M  V30 41 H 1.841376 3.963208 0.115927 0
M  V30 42 H -2.166212 3.098778 -0.910443 0
M  V30 43 H -3.561004 1.665085 -1.282382 0
M  V30 44 H -5.187723 -0.064563 -1.716985 0
M  V30 45 H -5.037044 -4.793598 -1.340399 0
M  V30 46 H -0.595404 -1.258922 -0.569480 0
M  V30 47 H 1.121761 -0.246891 1.846660 0
M  V30 END ATOM
M  V30 BEGIN BOND
M  V30 1 1 1 2
M  V30 2 1 2 3
M  V30 3 1 2 4
M  V30 4 1 4 5
M  V30 5 2 5 6
M  V30 6 1 6 7
M  V30 7 2 7 8
M  V30 8 1 8 9
M  V30 9 2 9 10
M  V30 10 1 10 11
M  V30 11 1 11 12
M  V30 12 2 12 13
M  V30 13 1 13 14
M  V30 14 2 14 15
M  V30 15 1 15 16
M  V30 16 1 16 17
M  V30 17 2 17 18
M  V30 18 1 18 19
M  V30 19 2 19 20
M  V30 20 1 20 21
M  V30 21 2 21 22
M  V30 22 1 21 23
M  V30 23 1 20 24
M  V30 24 1 24 25
M  V30 25 2 24 26
M  V30 26 2 16 27
M  V30 27 1 11 28
M  V30 28 2 28 29
M  V30 29 1 29 5
M  V30 30 1 28 8
M  V30 31 1 27 12
M  V30 32 1 26 17
M  V30 33 1 1 30
M  V30 34 1 1 31
M  V30 35 1 1 32
M  V30 36 1 2 33
M  V30 37 1 3 34
M  V30 38 1 3 35
M  V30 39 1 3 36
M  V30 40 1 4 37
M  V30 41 1 6 38
M  V30 42 1 7 39
M  V30 43 1 9 40
M  V30 44 1 13 41
M  V30 45 1 15 42
M  V30 46 1 18 43
M  V30 47 1 19 44
M  V30 48 1 23 45
M  V30 49 1 26 46
M  V30 50 1 29 47
M  V30 END BOND
M  V30 END CTAB
M  END
>  <Dataset>  (186) 
ChEMBL_Kinases

>  <Ligand_Instance>  (186) 
nan

>  <PDB_ID>  (186) 
nan

>  <Standardized_SMILES>  (186) 
CC(C)Nc1ccc2cnn(-c3cncc(-c4ccc(C(=O)O)c(F)c4)n3)c2c1

>  <Name>  (186) 
nan

>  <Pocket>  (186) 
nan

>  <ATP_Site>  (186) 
nan

>  <Peripheral>  (186) 
nan

>  <Num_H_Atoms_ProtBoundConf>  (186) 
nan

>  <Num_Resolved_Atoms>  (186) 
nan

>  <Num_Not_Resolved_Atoms>  (186) 
nan

$$$$
CHEMBL4446938
     RDKit          3D

  0  0  0  0  0  0  0  0  0  0999 V3000
M  V30 BEGIN CTAB
M  V30 COUNTS 61 66 0 0 0
M  V30 BEGIN ATOM
M  V30 1 C 5.456362 -1.410434 0.625157 0
M  V30 2 C 4.495456 -1.236158 -0.550415 0
M  V30 3 N 4.298762 0.168067 -0.846368 0
M  V30 4 C 5.440885 0.855640 -1.378196 0
M  V30 5 C 5.430553 2.333894 -1.243711 0
M  V30 6 O 4.277474 2.901468 -0.697977 0
M  V30 7 C 3.087837 2.220934 -0.559099 0
M  V30 8 C 3.074685 0.827415 -0.630969 0
M  V30 9 C 1.900357 0.110936 -0.496461 0
M  V30 10 N 0.746089 0.776555 -0.291513 0
M  V30 11 N 0.690823 2.108893 -0.212670 0
M  V30 12 C -0.340452 2.948879 -0.017390 0
M  V30 13 C -1.720854 2.507010 0.166703 0
M  V30 14 C -2.755712 3.395883 0.370446 0
M  V30 15 C -4.051939 2.899532 0.544053 0
M  V30 16 C -4.358390 1.554277 0.522647 0
M  V30 17 C -5.635255 1.068189 0.697782 0
M  V30 18 C -5.786242 -0.293104 0.656059 0
M  V30 19 C -4.716240 -1.129487 0.449094 0
M  V30 20 C -3.414463 -0.655824 0.269290 0
M  V30 21 N -2.356536 -1.564373 0.034587 0
M  V30 22 C -2.260344 -2.984195 -0.038377 0
M  V30 23 C -2.513737 -3.713774 1.242306 0
M  V30 24 C -2.371232 -5.223474 0.991313 0
M  V30 25 C -1.859081 -5.913695 2.222986 0
M  V30 26 N -0.529612 -5.517740 2.566573 0
M  V30 27 C -0.259241 -4.141616 2.261325 0
M  V30 28 C -1.520911 -3.351530 2.331610 0
M  V30 29 C -3.290260 0.717896 0.316085 0
M  V30 30 N -2.051001 1.206383 0.150898 0
M  V30 31 N 0.197054 4.181550 -0.032076 0
M  V30 32 N 1.522330 4.079675 -0.231820 0
M  V30 33 C 1.843107 2.770461 -0.347108 0
M  V30 34 H 4.863687 -1.927787 1.435244 0
M  V30 35 H 5.873530 -0.477848 1.000099 0
M  V30 36 H 6.280877 -2.096556 0.385122 0
M  V30 37 H 5.043960 -1.695150 -1.432202 0
M  V30 38 H 3.602933 -1.836478 -0.443689 0
M  V30 39 H 6.349982 0.452438 -0.837337 0
M  V30 40 H 5.512416 0.547388 -2.457541 0
M  V30 41 H 5.528722 2.781394 -2.275921 0
M  V30 42 H 6.284239 2.679155 -0.620028 0
M  V30 43 H 1.881422 -0.952707 -0.552324 0
M  V30 44 H -2.573646 4.461982 0.396480 0
M  V30 45 H -4.868688 3.610422 0.704282 0
M  V30 46 H -6.373423 1.841738 0.850060 0
M  V30 47 H -6.813774 -0.640683 0.798567 0
M  V30 48 H -4.996180 -2.157540 0.435527 0
M  V30 49 H -1.439940 -1.043360 -0.116022 0
M  V30 50 H -1.296178 -3.272836 -0.492410 0
M  V30 51 H -3.039240 -3.361620 -0.773373 0
M  V30 52 H -3.550822 -3.590628 1.600550 0
M  V30 53 H -1.719460 -5.379434 0.118187 0
M  V30 54 H -3.359099 -5.685840 0.742298 0
M  V30 55 H -1.926744 -7.019925 2.008658 0
M  V30 56 H -2.583546 -5.739874 3.051519 0
M  V30 57 H 0.222955 -6.181814 2.273176 0
M  V30 58 H 0.213791 -4.010986 1.257142 0
M  V30 59 H 0.452249 -3.728874 2.988564 0
M  V30 60 H -1.992135 -3.468635 3.333619 0
M  V30 61 H -1.275980 -2.264693 2.212418 0
M  V30 END ATOM
M  V30 BEGIN BOND
M  V30 1 1 1 2
M  V30 2 1 2 3
M  V30 3 1 3 4
M  V30 4 1 4 5
M  V30 5 1 5 6
M  V30 6 1 6 7
M  V30 7 2 7 8
M  V30 8 1 8 9
M  V30 9 2 9 10
M  V30 10 1 10 11
M  V30 11 1 11 12
M  V30 12 1 12 13
M  V30 13 2 13 14
M  V30 14 1 14 15
M  V30 15 2 15 16
M  V30 16 1 16 17
M  V30 17 2 17 18
M  V30 18 1 18 19
M  V30 19 2 19 20
M  V30 20 1 20 21
M  V30 21 1 21 22
M  V30 22 1 22 23
M  V30 23 1 23 24
M  V30 24 1 24 25
M  V30 25 1 25 26
M  V30 26 1 26 27
M  V30 27 1 27 28
M  V30 28 1 20 29
M  V30 29 2 29 30
M  V30 30 2 12 31
M  V30 31 1 31 32
M  V30 32 2 32 33
M  V30 33 1 8 3
M  V30 34 1 33 11
M  V30 35 1 33 7
M  V30 36 1 30 13
M  V30 37 1 29 16
M  V30 38 1 28 23
M  V30 39 1 1 34
M  V30 40 1 1 35
M  V30 41 1 1 36
M  V30 42 1 2 37
M  V30 43 1 2 38
M  V30 44 1 4 39
M  V30 45 1 4 40
M  V30 46 1 5 41
M  V30 47 1 5 42
M  V30 48 1 9 43
M  V30 49 1 14 44
M  V30 50 1 15 45
M  V30 51 1 17 46
M  V30 52 1 18 47
M  V30 53 1 19 48
M  V30 54 1 21 49
M  V30 55 1 22 50
M  V30 56 1 22 51
M  V30 57 1 23 52
M  V30 58 1 24 53
M  V30 59 1 24 54
M  V30 60 1 25 55
M  V30 61 1 25 56
M  V30 62 1 26 57
M  V30 63 1 27 58
M  V30 64 1 27 59
M  V30 65 1 28 60
M  V30 66 1 28 61
M  V30 END BOND
M  V30 END CTAB
M  END
>  <Dataset>  (187) 
ChEMBL_Kinases

>  <Ligand_Instance>  (187) 
nan

>  <PDB_ID>  (187) 
nan

>  <Standardized_SMILES>  (187) 
CCN1CCOc2c1cnn1c(-c3ccc4cccc(NCC5CCNCC5)c4n3)nnc21

>  <Name>  (187) 
nan

>  <Pocket>  (187) 
nan

>  <ATP_Site>  (187) 
nan

>  <Peripheral>  (187) 
nan

>  <Num_H_Atoms_ProtBoundConf>  (187) 
nan

>  <Num_Resolved_Atoms>  (187) 
nan

>  <Num_Not_Resolved_Atoms>  (187) 
nan

$$$$
CHEMBL4225923
     RDKit          3D

  0  0  0  0  0  0  0  0  0  0999 V3000
M  V30 BEGIN CTAB
M  V30 COUNTS 58 62 0 0 0
M  V30 BEGIN ATOM
M  V30 1 C -0.584412 0.040525 4.457725 0
M  V30 2 C 0.391259 0.611099 3.495808 0
M  V30 3 C 1.753287 0.594180 3.698523 0
M  V30 4 N 2.614496 1.112848 2.823379 0
M  V30 5 C 3.940387 1.162175 2.919354 0
M  V30 6 C 4.959522 0.752931 3.853393 0
M  V30 7 C 6.307666 0.935582 3.748028 0
M  V30 8 N 6.944187 0.408929 4.816088 0
M  V30 9 N 6.061947 -0.128960 5.646840 0
M  V30 10 C 4.890843 0.091298 5.047569 0
M  V30 11 C 4.333345 1.812909 1.752066 0
M  V30 12 N 3.210508 2.113026 1.026204 0
M  V30 13 C 2.140323 1.671641 1.705013 0
M  V30 14 C 0.796746 1.716996 1.451307 0
M  V30 15 N 0.207935 2.279125 0.293227 0
M  V30 16 C -0.489560 1.389419 -0.637626 0
M  V30 17 C -0.546974 0.050773 -0.479453 0
M  V30 18 C -1.283348 -0.605268 -1.442468 0
M  V30 19 C -1.563613 -2.049196 -1.625168 0
M  V30 20 N -2.943388 -2.363255 -1.745176 0
M  V30 21 C -3.770480 -2.083266 -0.618102 0
M  V30 22 C -3.259762 -2.716390 0.658431 0
M  V30 23 C -4.139896 -0.632521 -0.457908 0
M  V30 24 C -5.113604 -2.797755 -0.883856 0
M  V30 25 C -0.913963 -2.472461 -2.916370 0
M  V30 26 C -1.435977 -2.151096 -4.159300 0
M  V30 27 C -0.861912 -2.538047 -5.350748 0
M  V30 28 C 0.287522 -3.281151 -5.337342 0
M  V30 29 C 0.800189 -3.595815 -4.096407 0
M  V30 30 N 0.225748 -3.209453 -2.944578 0
M  V30 31 N -1.896277 0.102507 -2.472784 0
M  V30 32 S -1.365008 1.842314 -2.009302 0
M  V30 33 N -0.071133 1.180681 2.358860 0
M  V30 34 H -1.158651 -0.768986 3.958998 0
M  V30 35 H -1.274111 0.802823 4.864146 0
M  V30 36 H -0.029198 -0.435919 5.311250 0
M  V30 37 H 2.072194 0.137419 4.605777 0
M  V30 38 H 6.873545 1.422702 2.956296 0
M  V30 39 H 6.418337 -0.569017 6.496889 0
M  V30 40 H 4.039691 -0.285934 5.585501 0
M  V30 41 H 5.290934 2.096270 1.357859 0
M  V30 42 H 0.231623 3.300415 0.039024 0
M  V30 43 H -0.101755 -0.565134 0.285982 0
M  V30 44 H -1.042484 -2.621219 -0.827683 0
M  V30 45 H -3.384825 -1.969378 -2.576462 0
M  V30 46 H -2.509058 -3.504409 0.506801 0
M  V30 47 H -4.061225 -3.162704 1.278911 0
M  V30 48 H -2.854562 -1.876264 1.292461 0
M  V30 49 H -4.464929 -0.286065 -1.464102 0
M  V30 50 H -3.362870 0.002865 -0.043996 0
M  V30 51 H -5.086038 -0.569281 0.166785 0
M  V30 52 H -4.937469 -3.857285 -0.661777 0
M  V30 53 H -5.782285 -2.430756 -0.055284 0
M  V30 54 H -5.522555 -2.570221 -1.864607 0
M  V30 55 H -2.337086 -1.565677 -4.236703 0
M  V30 56 H -1.312612 -2.259615 -6.314576 0
M  V30 57 H 0.699956 -3.560368 -6.288094 0
M  V30 58 H 1.713436 -4.186432 -4.061358 0
M  V30 END ATOM
M  V30 BEGIN BOND
M  V30 1 1 1 2
M  V30 2 2 2 3
M  V30 3 1 3 4
M  V30 4 1 4 5
M  V30 5 1 5 6
M  V30 6 1 6 7
M  V30 7 2 7 8
M  V30 8 1 8 9
M  V30 9 1 9 10
M  V30 10 2 5 11
M  V30 11 1 11 12
M  V30 12 2 12 13
M  V30 13 1 13 14
M  V30 14 1 14 15
M  V30 15 1 15 16
M  V30 16 2 16 17
M  V30 17 1 17 18
M  V30 18 1 18 19
M  V30 19 1 19 20
M  V30 20 1 20 21
M  V30 21 1 21 22
M  V30 22 1 21 23
M  V30 23 1 21 24
M  V30 24 1 19 25
M  V30 25 2 25 26
M  V30 26 1 26 27
M  V30 27 2 27 28
M  V30 28 1 28 29
M  V30 29 2 29 30
M  V30 30 2 18 31
M  V30 31 1 31 32
M  V30 32 2 14 33
M  V30 33 1 33 2
M  V30 34 1 13 4
M  V30 35 1 32 16
M  V30 36 2 10 6
M  V30 37 1 30 25
M  V30 38 1 1 34
M  V30 39 1 1 35
M  V30 40 1 1 36
M  V30 41 1 3 37
M  V30 42 1 7 38
M  V30 43 1 9 39
M  V30 44 1 10 40
M  V30 45 1 11 41
M  V30 46 1 15 42
M  V30 47 1 17 43
M  V30 48 1 19 44
M  V30 49 1 20 45
M  V30 50 1 22 46
M  V30 51 1 22 47
M  V30 52 1 22 48
M  V30 53 1 23 49
M  V30 54 1 23 50
M  V30 55 1 23 51
M  V30 56 1 24 52
M  V30 57 1 24 53
M  V30 58 1 24 54
M  V30 59 1 26 55
M  V30 60 1 27 56
M  V30 61 1 28 57
M  V30 62 1 29 58
M  V30 END BOND
M  V30 END CTAB
M  END
>  <Dataset>  (188) 
ChEMBL_Kinases

>  <Ligand_Instance>  (188) 
nan

>  <PDB_ID>  (188) 
nan

>  <Standardized_SMILES>  (188) 
Cc1cn2c(-c3cn[nH]c3)cnc2c(Nc2cc(C(NC(C)(C)C)c3ccccn3)ns2)n1

>  <Name>  (188) 
nan

>  <Pocket>  (188) 
nan

>  <ATP_Site>  (188) 
nan

>  <Peripheral>  (188) 
nan

>  <Num_H_Atoms_ProtBoundConf>  (188) 
nan

>  <Num_Resolved_Atoms>  (188) 
nan

>  <Num_Not_Resolved_Atoms>  (188) 
nan

$$$$
CHEMBL4776271
     RDKit          3D

  0  0  0  0  0  0  0  0  0  0999 V3000
M  V30 BEGIN CTAB
M  V30 COUNTS 72 75 0 0 0
M  V30 BEGIN ATOM
M  V30 1 C 3.326063 -1.669012 4.530716 0
M  V30 2 C 2.802185 -0.869432 3.645552 0
M  V30 3 C 3.393522 -0.867862 2.334405 0
M  V30 4 O 4.359263 -1.676562 2.265050 0
M  V30 5 N 2.939273 -0.058539 1.272065 0
M  V30 6 C 3.585602 -0.111842 -0.019200 0
M  V30 7 C 4.235061 1.240216 -0.252838 0
M  V30 8 C 3.229690 2.360730 -0.231862 0
M  V30 9 N 2.011024 1.919741 -0.865422 0
M  V30 10 C 0.912721 2.666629 -0.405282 0
M  V30 11 O 1.412521 3.467136 0.418023 0
M  V30 12 N -0.473908 2.855030 -0.507326 0
M  V30 13 C -0.966528 3.923772 0.374032 0
M  V30 14 C -2.433537 3.585285 0.598053 0
M  V30 15 C -3.057665 3.442845 -0.757430 0
M  V30 16 C -2.579958 2.274998 -1.553101 0
M  V30 17 N -3.361690 1.098831 -1.150087 0
M  V30 18 C -2.902742 0.005958 -1.956551 0
M  V30 19 N -2.157437 -0.271443 -2.791578 0
M  V30 20 C -1.997752 -1.465818 -3.330127 0
M  V30 21 C -2.752664 -2.507805 -2.903506 0
M  V30 22 S -2.728526 -4.167288 -3.455764 0
M  V30 23 C -1.536608 -5.122430 -2.481154 0
M  V30 24 C -1.942510 -5.255739 -1.052141 0
M  V30 25 N -2.683897 -6.195332 -0.456370 0
M  V30 26 C -2.765289 -5.874545 0.837046 0
M  V30 27 C -2.049966 -4.711055 1.006426 0
M  V30 28 C -1.771162 -3.863024 2.215819 0
M  V30 29 C -2.402203 -4.417712 3.445318 0
M  V30 30 C -2.168221 -2.457712 1.884678 0
M  V30 31 C -0.251267 -3.865486 2.350792 0
M  V30 32 O -1.567882 -4.370159 -0.163487 0
M  V30 33 S -3.752491 -1.664150 -1.633732 0
M  V30 34 C -1.124633 1.979281 -1.439447 0
M  V30 35 C 2.138168 0.832497 -1.817233 0
M  V30 36 C 2.612311 -0.439698 -1.142686 0
M  V30 37 H 4.179989 -2.331412 4.335911 0
M  V30 38 H 3.078728 -1.856251 5.555527 0
M  V30 39 H 1.964902 -0.311212 4.069689 0
M  V30 40 H 2.134884 0.577259 1.427023 0
M  V30 41 H 4.414739 -0.843188 -0.017398 0
M  V30 42 H 4.759244 1.230864 -1.247725 0
M  V30 43 H 4.969856 1.414717 0.533819 0
M  V30 44 H 3.698936 3.211980 -0.769970 0
M  V30 45 H 3.119973 2.671045 0.817201 0
M  V30 46 H -0.871124 4.909960 -0.088873 0
M  V30 47 H -0.454721 3.858373 1.350749 0
M  V30 48 H -2.488939 2.670231 1.191014 0
M  V30 49 H -2.947059 4.379268 1.149759 0
M  V30 50 H -4.157960 3.353095 -0.623271 0
M  V30 51 H -2.923390 4.379605 -1.349568 0
M  V30 52 H -2.818148 2.502392 -2.626969 0
M  V30 53 H -4.116424 1.033883 -0.419052 0
M  V30 54 H -1.242194 -1.582063 -4.124372 0
M  V30 55 H -1.465265 -6.144045 -2.952561 0
M  V30 56 H -0.530281 -4.639957 -2.566243 0
M  V30 57 H -3.262907 -6.356335 1.667734 0
M  V30 58 H -3.282102 -3.794580 3.689752 0
M  V30 59 H -1.682726 -4.268533 4.298256 0
M  V30 60 H -2.630661 -5.500270 3.415610 0
M  V30 61 H -1.532222 -2.163949 1.000356 0
M  V30 62 H -1.845927 -1.799844 2.726043 0
M  V30 63 H -3.207984 -2.321710 1.576486 0
M  V30 64 H 0.014573 -4.935801 2.532077 0
M  V30 65 H 0.066948 -3.207609 3.158567 0
M  V30 66 H 0.204576 -3.570134 1.385000 0
M  V30 67 H -0.979653 0.920849 -1.116267 0
M  V30 68 H -0.626839 2.160629 -2.425323 0
M  V30 69 H 1.174330 0.589284 -2.293114 0
M  V30 70 H 2.847047 1.126607 -2.604945 0
M  V30 71 H 1.731967 -0.943305 -0.685867 0
M  V30 72 H 3.059235 -1.088276 -1.910069 0
M  V30 END ATOM
M  V30 BEGIN BOND
M  V30 1 2 1 2
M  V30 2 1 2 3
M  V30 3 2 3 4
M  V30 4 1 3 5
M  V30 5 1 5 6
M  V30 6 1 6 7
M  V30 7 1 7 8
M  V30 8 1 8 9
M  V30 9 1 9 10
M  V30 10 2 10 11
M  V30 11 1 10 12
M  V30 12 1 12 13
M  V30 13 1 13 14
M  V30 14 1 14 15
M  V30 15 1 15 16
M  V30 16 1 16 17
M  V30 17 1 17 18
M  V30 18 2 18 19
M  V30 19 1 19 20
M  V30 20 2 20 21
M  V30 21 1 21 22
M  V30 22 1 22 23
M  V30 23 1 23 24
M  V30 24 2 24 25
M  V30 25 1 25 26
M  V30 26 2 26 27
M  V30 27 1 27 28
M  V30 28 1 28 29
M  V30 29 1 28 30
M  V30 30 1 28 31
M  V30 31 1 27 32
M  V30 32 1 21 33
M  V30 33 1 16 34
M  V30 34 1 9 35
M  V30 35 1 35 36
M  V30 36 1 36 6
M  V30 37 1 34 12
M  V30 38 1 33 18
M  V30 39 1 32 24
M  V30 40 1 1 37
M  V30 41 1 1 38
M  V30 42 1 2 39
M  V30 43 1 5 40
M  V30 44 1 6 41
M  V30 45 1 7 42
M  V30 46 1 7 43
M  V30 47 1 8 44
M  V30 48 1 8 45
M  V30 49 1 13 46
M  V30 50 1 13 47
M  V30 51 1 14 48
M  V30 52 1 14 49
M  V30 53 1 15 50
M  V30 54 1 15 51
M  V30 55 1 16 52
M  V30 56 1 17 53
M  V30 57 1 20 54
M  V30 58 1 23 55
M  V30 59 1 23 56
M  V30 60 1 26 57
M  V30 61 1 29 58
M  V30 62 1 29 59
M  V30 63 1 29 60
M  V30 64 1 30 61
M  V30 65 1 30 62
M  V30 66 1 30 63
M  V30 67 1 31 64
M  V30 68 1 31 65
M  V30 69 1 31 66
M  V30 70 1 34 67
M  V30 71 1 34 68
M  V30 72 1 35 69
M  V30 73 1 35 70
M  V30 74 1 36 71
M  V30 75 1 36 72
M  V30 END BOND
M  V30 END CTAB
M  END
>  <Dataset>  (189) 
ChEMBL_Kinases

>  <Ligand_Instance>  (189) 
nan

>  <PDB_ID>  (189) 
nan

>  <Standardized_SMILES>  (189) 
C=CC(=O)NC1CCN(C(=O)N2CCCC(Nc3ncc(SCc4ncc(C(C)(C)C)o4)s3)C2)CC1

>  <Name>  (189) 
nan

>  <Pocket>  (189) 
nan

>  <ATP_Site>  (189) 
nan

>  <Peripheral>  (189) 
nan

>  <Num_H_Atoms_ProtBoundConf>  (189) 
nan

>  <Num_Resolved_Atoms>  (189) 
nan

>  <Num_Not_Resolved_Atoms>  (189) 
nan

$$$$
CHEMBL4776216
     RDKit          3D

  0  0  0  0  0  0  0  0  0  0999 V3000
M  V30 BEGIN CTAB
M  V30 COUNTS 76 82 0 0 0
M  V30 BEGIN ATOM
M  V30 1 C 5.588761 3.382065 4.886008 0
M  V30 2 N 6.918330 3.037319 4.469626 0
M  V30 3 C 7.218542 1.647755 4.586889 0
M  V30 4 C 6.784584 0.809979 3.418099 0
M  V30 5 N 7.189962 1.428261 2.155304 0
M  V30 6 C 6.752830 0.683869 1.026797 0
M  V30 7 C 7.722076 0.026457 0.299003 0
M  V30 8 N 7.294614 -0.698981 -0.751141 0
M  V30 9 C 5.994087 -0.796885 -1.097807 0
M  V30 10 C 5.025950 -0.139686 -0.371565 0
M  V30 11 N 3.695392 -0.022954 -0.445890 0
M  V30 12 C 3.146763 0.745735 0.490686 0
M  V30 13 C 1.810270 1.174418 0.835179 0
M  V30 14 N 1.478945 1.988806 1.866336 0
M  V30 15 N 0.188911 2.204140 1.933190 0
M  V30 16 C -0.442265 1.546964 0.947758 0
M  V30 17 C -1.770255 1.450315 0.595838 0
M  V30 18 C -2.095551 0.672537 -0.493151 0
M  V30 19 C -1.096963 0.020849 -1.191030 0
M  V30 20 C -1.570411 -0.784149 -2.333656 0
M  V30 21 C -0.800630 -0.978427 -3.478336 0
M  V30 22 N -1.322642 -1.736006 -4.475188 0
M  V30 23 C -2.537991 -2.294618 -4.393819 0
M  V30 24 C -3.360266 -2.149906 -3.297011 0
M  V30 25 N -4.629177 -2.771365 -3.298184 0
M  V30 26 C -5.628329 -2.762561 -2.294695 0
M  V30 27 O -5.411232 -2.132250 -1.233008 0
M  V30 28 C -6.914041 -3.480437 -2.477995 0
M  V30 29 C -7.797868 -3.376640 -1.269187 0
M  V30 30 C -9.103956 -4.123562 -1.544503 0
M  V30 31 C -9.719868 -4.626971 -0.251699 0
M  V30 32 N -8.890740 -5.661413 0.348065 0
M  V30 33 C -7.500427 -5.510215 -0.103607 0
M  V30 34 C -7.205595 -4.026780 -0.053126 0
M  V30 35 C -2.791923 -1.376139 -2.312631 0
M  V30 36 C 0.214656 0.151039 -0.797736 0
M  V30 37 C 0.581648 0.915104 0.279272 0
M  V30 38 C 4.258526 1.149345 1.225811 0
M  V30 39 C 5.414288 0.615394 0.711468 0
M  V30 40 C 7.942199 2.655001 2.250732 0
M  V30 41 C 7.325464 3.626549 3.233050 0
M  V30 42 H 4.816057 2.637856 4.543452 0
M  V30 43 H 5.574159 3.413747 5.990088 0
M  V30 44 H 5.277137 4.383927 4.525395 0
M  V30 45 H 6.719587 1.259319 5.501339 0
M  V30 46 H 8.323443 1.543895 4.689405 0
M  V30 47 H 5.739132 0.509364 3.413447 0
M  V30 48 H 7.371292 -0.156363 3.486426 0
M  V30 49 H 8.783489 0.058415 0.516682 0
M  V30 50 H 5.663999 -1.385681 -1.944420 0
M  V30 51 H 3.182262 -0.513170 -1.193440 0
M  V30 52 H -0.201033 2.816718 2.682996 0
M  V30 53 H -2.480182 1.997487 1.203351 0
M  V30 54 H -3.176700 0.675318 -0.673193 0
M  V30 55 H 0.179988 -0.525735 -3.537669 0
M  V30 56 H -2.884515 -2.895937 -5.249520 0
M  V30 57 H -4.898594 -3.323340 -4.142906 0
M  V30 58 H -7.436293 -3.174807 -3.406156 0
M  V30 59 H -6.678833 -4.569800 -2.632988 0
M  V30 60 H -7.963099 -2.304451 -1.048933 0
M  V30 61 H -8.980442 -4.947553 -2.249514 0
M  V30 62 H -9.815585 -3.387582 -1.970856 0
M  V30 63 H -10.703088 -5.066738 -0.509258 0
M  V30 64 H -9.907296 -3.791837 0.451151 0
M  V30 65 H -9.232957 -6.618592 0.089614 0
M  V30 66 H -7.491673 -5.874027 -1.151161 0
M  V30 67 H -6.823250 -6.125947 0.508321 0
M  V30 68 H -6.163923 -3.802564 0.157495 0
M  V30 69 H -7.780999 -3.616814 0.823314 0
M  V30 70 H -3.364771 -1.209563 -1.412917 0
M  V30 71 H 0.946137 -0.375750 -1.375441 0
M  V30 72 H 4.277338 1.797563 2.092116 0
M  V30 73 H 8.991817 2.418055 2.441104 0
M  V30 74 H 7.853731 3.142817 1.249543 0
M  V30 75 H 6.465580 4.143250 2.771180 0
M  V30 76 H 8.094021 4.406734 3.455259 0
M  V30 END ATOM
M  V30 BEGIN BOND
M  V30 1 1 1 2
M  V30 2 1 2 3
M  V30 3 1 3 4
M  V30 4 1 4 5
M  V30 5 1 5 6
M  V30 6 2 6 7
M  V30 7 1 7 8
M  V30 8 2 8 9
M  V30 9 1 9 10
M  V30 10 1 10 11
M  V30 11 1 11 12
M  V30 12 1 12 13
M  V30 13 2 13 14
M  V30 14 1 14 15
M  V30 15 1 15 16
M  V30 16 2 16 17
M  V30 17 1 17 18
M  V30 18 2 18 19
M  V30 19 1 19 20
M  V30 20 2 20 21
M  V30 21 1 21 22
M  V30 22 2 22 23
M  V30 23 1 23 24
M  V30 24 1 24 25
M  V30 25 1 25 26
M  V30 26 2 26 27
M  V30 27 1 26 28
M  V30 28 1 28 29
M  V30 29 1 29 30
M  V30 30 1 30 31
M  V30 31 1 31 32
M  V30 32 1 32 33
M  V30 33 1 33 34
M  V30 34 2 24 35
M  V30 35 1 19 36
M  V30 36 2 36 37
M  V30 37 2 12 38
M  V30 38 1 38 39
M  V30 39 1 5 40
M  V30 40 1 40 41
M  V30 41 1 41 2
M  V30 42 1 39 6
M  V30 43 2 39 10
M  V30 44 1 37 13
M  V30 45 1 37 16
M  V30 46 1 35 20
M  V30 47 1 34 29
M  V30 48 1 1 42
M  V30 49 1 1 43
M  V30 50 1 1 44
M  V30 51 1 3 45
M  V30 52 1 3 46
M  V30 53 1 4 47
M  V30 54 1 4 48
M  V30 55 1 7 49
M  V30 56 1 9 50
M  V30 57 1 11 51
M  V30 58 1 15 52
M  V30 59 1 17 53
M  V30 60 1 18 54
M  V30 61 1 21 55
M  V30 62 1 23 56
M  V30 63 1 25 57
M  V30 64 1 28 58
M  V30 65 1 28 59
M  V30 66 1 29 60
M  V30 67 1 30 61
M  V30 68 1 30 62
M  V30 69 1 31 63
M  V30 70 1 31 64
M  V30 71 1 32 65
M  V30 72 1 33 66
M  V30 73 1 33 67
M  V30 74 1 34 68
M  V30 75 1 34 69
M  V30 76 1 35 70
M  V30 77 1 36 71
M  V30 78 1 38 72
M  V30 79 1 40 73
M  V30 80 1 40 74
M  V30 81 1 41 75
M  V30 82 1 41 76
M  V30 END BOND
M  V30 END CTAB
M  END
>  <Dataset>  (190) 
ChEMBL_Kinases

>  <Ligand_Instance>  (190) 
nan

>  <PDB_ID>  (190) 
nan

>  <Standardized_SMILES>  (190) 
CN1CCN(c2cncc3[nH]c(-c4n[nH]c5ccc(-c6cncc(NC(=O)CC7CCNCC7)c6)cc45)cc23)CC1

>  <Name>  (190) 
nan

>  <Pocket>  (190) 
nan

>  <ATP_Site>  (190) 
nan

>  <Peripheral>  (190) 
nan

>  <Num_H_Atoms_ProtBoundConf>  (190) 
nan

>  <Num_Resolved_Atoms>  (190) 
nan

>  <Num_Not_Resolved_Atoms>  (190) 
nan

$$$$
CHEMBL4776166
     RDKit          3D

  0  0  0  0  0  0  0  0  0  0999 V3000
M  V30 BEGIN CTAB
M  V30 COUNTS 49 53 0 0 0
M  V30 BEGIN ATOM
M  V30 1 N 3.805261 -1.584464 -0.419893 0
M  V30 2 C 2.751304 -2.276226 0.223198 0
M  V30 3 N 3.056275 -3.563524 0.468462 0
M  V30 4 C 2.126995 -4.306556 1.092618 0
M  V30 5 N 0.961124 -3.746013 1.437891 0
M  V30 6 C 0.670884 -2.459550 1.186532 0
M  V30 7 C 1.585058 -1.652717 0.548915 0
M  V30 8 C 1.029724 -0.399056 0.428475 0
M  V30 9 C 1.750106 0.697502 -0.202186 0
M  V30 10 C 2.102162 0.433877 -1.532256 0
M  V30 11 C 2.777059 1.325696 -2.338340 0
M  V30 12 C 3.107241 2.543266 -1.758475 0
M  V30 13 C 2.778503 2.850862 -0.440605 0
M  V30 14 C 3.105457 4.060686 0.138008 0
M  V30 15 C 2.732373 4.273527 1.461431 0
M  V30 16 C 2.050389 3.327045 2.219740 0
M  V30 17 C 1.720627 2.110336 1.641476 0
M  V30 18 C 2.102507 1.922253 0.322496 0
M  V30 19 N -0.191807 -0.463810 0.987338 0
M  V30 20 N -0.427488 -1.684174 1.446239 0
M  V30 21 C -1.589921 -2.252243 2.126065 0
M  V30 22 C -2.573732 -2.827006 1.128220 0
M  V30 23 C -3.756827 -3.417366 1.866215 0
M  V30 24 C -4.661002 -2.405221 2.481479 0
M  V30 25 N -4.685971 -1.129023 1.803613 0
M  V30 26 C -4.403658 -1.254066 0.390072 0
M  V30 27 C -3.032451 -1.817584 0.105147 0
M  V30 28 H 4.439010 -1.162172 0.311520 0
M  V30 29 H 4.445969 -1.167565 -1.108261 0
M  V30 30 H 2.322980 -5.362103 1.317950 0
M  V30 31 H 1.859673 -0.496672 -2.037117 0
M  V30 32 H 3.039252 1.096642 -3.369189 0
M  V30 33 H 3.643702 3.271894 -2.370627 0
M  V30 34 H 3.627025 4.748811 -0.483707 0
M  V30 35 H 3.029299 5.251622 1.831465 0
M  V30 36 H 1.793491 3.569591 3.246453 0
M  V30 37 H 1.189251 1.353366 2.207527 0
M  V30 38 H -2.097123 -1.482498 2.722089 0
M  V30 39 H -1.245466 -3.032977 2.829020 0
M  V30 40 H -2.059189 -3.651566 0.598079 0
M  V30 41 H -3.319278 -4.093793 2.650500 0
M  V30 42 H -4.272700 -4.113721 1.146992 0
M  V30 43 H -4.333882 -2.208749 3.525016 0
M  V30 44 H -5.697580 -2.831458 2.583413 0
M  V30 45 H -5.658082 -0.740463 1.873713 0
M  V30 46 H -4.397489 -0.194358 -0.000674 0
M  V30 47 H -5.216161 -1.770485 -0.147928 0
M  V30 48 H -2.259943 -1.050837 -0.017169 0
M  V30 49 H -3.130055 -2.346411 -0.875343 0
M  V30 END ATOM
M  V30 BEGIN BOND
M  V30 1 1 1 2
M  V30 2 2 2 3
M  V30 3 1 3 4
M  V30 4 2 4 5
M  V30 5 1 5 6
M  V30 6 2 6 7
M  V30 7 1 7 8
M  V30 8 1 8 9
M  V30 9 2 9 10
M  V30 10 1 10 11
M  V30 11 2 11 12
M  V30 12 1 12 13
M  V30 13 2 13 14
M  V30 14 1 14 15
M  V30 15 2 15 16
M  V30 16 1 16 17
M  V30 17 2 17 18
M  V30 18 2 8 19
M  V30 19 1 19 20
M  V30 20 1 20 21
M  V30 21 1 21 22
M  V30 22 1 22 23
M  V30 23 1 23 24
M  V30 24 1 24 25
M  V30 25 1 25 26
M  V30 26 1 26 27
M  V30 27 1 7 2
M  V30 28 1 18 9
M  V30 29 1 27 22
M  V30 30 1 20 6
M  V30 31 1 18 13
M  V30 32 1 1 28
M  V30 33 1 1 29
M  V30 34 1 4 30
M  V30 35 1 10 31
M  V30 36 1 11 32
M  V30 37 1 12 33
M  V30 38 1 14 34
M  V30 39 1 15 35
M  V30 40 1 16 36
M  V30 41 1 17 37
M  V30 42 1 21 38
M  V30 43 1 21 39
M  V30 44 1 22 40
M  V30 45 1 23 41
M  V30 46 1 23 42
M  V30 47 1 24 43
M  V30 48 1 24 44
M  V30 49 1 25 45
M  V30 50 1 26 46
M  V30 51 1 26 47
M  V30 52 1 27 48
M  V30 53 1 27 49
M  V30 END BOND
M  V30 END CTAB
M  END
>  <Dataset>  (191) 
ChEMBL_Kinases

>  <Ligand_Instance>  (191) 
nan

>  <PDB_ID>  (191) 
nan

>  <Standardized_SMILES>  (191) 
Nc1ncnc2c1c(-c1cccc3ccccc13)nn2CC1CCNCC1

>  <Name>  (191) 
nan

>  <Pocket>  (191) 
nan

>  <ATP_Site>  (191) 
nan

>  <Peripheral>  (191) 
nan

>  <Num_H_Atoms_ProtBoundConf>  (191) 
nan

>  <Num_Resolved_Atoms>  (191) 
nan

>  <Num_Not_Resolved_Atoms>  (191) 
nan

$$$$
CHEMBL4776104
     RDKit          3D

  0  0  0  0  0  0  0  0  0  0999 V3000
M  V30 BEGIN CTAB
M  V30 COUNTS 62 67 0 0 0
M  V30 BEGIN ATOM
M  V30 1 C 0.395565 0.227982 8.505711 0
M  V30 2 C 1.381196 -0.090495 7.416418 0
M  V30 3 C 1.594988 1.064714 6.504899 0
M  V30 4 O 0.945046 2.103222 6.773320 0
M  V30 5 N 2.514968 0.809120 5.457047 0
M  V30 6 C 2.924418 1.707493 4.435390 0
M  V30 7 C 4.041692 2.523964 4.645721 0
M  V30 8 N 4.451716 3.370205 3.711621 0
M  V30 9 C 3.862024 3.525312 2.517435 0
M  V30 10 C 2.753012 2.743940 2.254946 0
M  V30 11 C 2.026637 2.819862 0.981750 0
M  V30 12 C 1.960229 4.030552 0.283826 0
M  V30 13 C 1.269897 4.093250 -0.916299 0
M  V30 14 C 0.665415 2.962098 -1.394146 0
M  V30 15 N -0.064132 2.690820 -2.498967 0
M  V30 16 N -0.428720 1.429159 -2.506348 0
M  V30 17 C 0.016419 0.759598 -1.428631 0
M  V30 18 C -0.212266 -0.636377 -1.134423 0
M  V30 19 C -0.955659 -1.445391 -1.992579 0
M  V30 20 C -1.048316 -2.727723 -1.523085 0
M  V30 21 C -1.641840 -3.894263 -1.954051 0
M  V30 22 N -2.366878 -3.882200 -3.176703 0
M  V30 23 C -3.498905 -2.979495 -3.250748 0
M  V30 24 C -4.734840 -3.890134 -3.189274 0
M  V30 25 C -4.580049 -4.908609 -4.281702 0
M  V30 26 C -3.404914 -4.637169 -5.194066 0
M  V30 27 C -2.149637 -4.648401 -4.386943 0
M  V30 28 N -1.548419 -5.034923 -1.240006 0
M  V30 29 C -0.856449 -5.061445 -0.061523 0
M  V30 30 C -0.258149 -3.900153 0.379750 0
M  V30 31 C -0.349145 -2.743113 -0.337528 0
M  V30 32 N 0.111377 -1.496675 -0.169539 0
M  V30 33 C 0.697939 1.744003 -0.750032 0
M  V30 34 C 1.391846 1.726435 0.434362 0
M  V30 35 C 2.286525 1.846614 3.195996 0
M  V30 36 H 0.025065 1.270330 8.470167 0
M  V30 37 H -0.510489 -0.424790 8.391989 0
M  V30 38 H 0.849021 0.020395 9.505776 0
M  V30 39 H 2.361670 -0.358051 7.876746 0
M  V30 40 H 1.035132 -0.964302 6.844155 0
M  V30 41 H 3.001498 -0.097370 5.328361 0
M  V30 42 H 4.554505 2.438198 5.594749 0
M  V30 43 H 4.216413 4.223485 1.771539 0
M  V30 44 H 2.442932 4.938503 0.663908 0
M  V30 45 H 1.181770 4.993682 -1.502363 0
M  V30 46 H -0.326587 3.349899 -3.263022 0
M  V30 47 H -1.435088 -1.185692 -2.927351 0
M  V30 48 H -3.524068 -2.371502 -4.153529 0
M  V30 49 H -3.571624 -2.300912 -2.375106 0
M  V30 50 H -5.631017 -3.276918 -3.405249 0
M  V30 51 H -4.804408 -4.356018 -2.181256 0
M  V30 52 H -4.411993 -5.928808 -3.835258 0
M  V30 53 H -5.510783 -4.925417 -4.885324 0
M  V30 54 H -3.534280 -3.674484 -5.708295 0
M  V30 55 H -3.322078 -5.410629 -5.988586 0
M  V30 56 H -1.811685 -5.683047 -4.170112 0
M  V30 57 H -1.342187 -4.201543 -5.024145 0
M  V30 58 H -0.803659 -5.991726 0.481567 0
M  V30 59 H 0.304144 -3.882511 1.318931 0
M  V30 60 H 0.673777 -1.251739 0.659018 0
M  V30 61 H 1.470615 0.833843 1.000412 0
M  V30 62 H 1.429634 1.193105 3.084385 0
M  V30 END ATOM
M  V30 BEGIN BOND
M  V30 1 1 1 2
M  V30 2 1 2 3
M  V30 3 2 3 4
M  V30 4 1 3 5
M  V30 5 1 5 6
M  V30 6 2 6 7
M  V30 7 1 7 8
M  V30 8 2 8 9
M  V30 9 1 9 10
M  V30 10 1 10 11
M  V30 11 2 11 12
M  V30 12 1 12 13
M  V30 13 2 13 14
M  V30 14 1 14 15
M  V30 15 1 15 16
M  V30 16 2 16 17
M  V30 17 1 17 18
M  V30 18 2 18 19
M  V30 19 1 19 20
M  V30 20 2 20 21
M  V30 21 1 21 22
M  V30 22 1 22 23
M  V30 23 1 23 24
M  V30 24 1 24 25
M  V30 25 1 25 26
M  V30 26 1 26 27
M  V30 27 1 21 28
M  V30 28 2 28 29
M  V30 29 1 29 30
M  V30 30 2 30 31
M  V30 31 1 31 32
M  V30 32 1 17 33
M  V30 33 2 33 34
M  V30 34 2 10 35
M  V30 35 1 35 6
M  V30 36 1 34 11
M  V30 37 1 33 14
M  V30 38 1 32 18
M  V30 39 1 31 20
M  V30 40 1 27 22
M  V30 41 1 1 36
M  V30 42 1 1 37
M  V30 43 1 1 38
M  V30 44 1 2 39
M  V30 45 1 2 40
M  V30 46 1 5 41
M  V30 47 1 7 42
M  V30 48 1 9 43
M  V30 49 1 12 44
M  V30 50 1 13 45
M  V30 51 1 15 46
M  V30 52 1 19 47
M  V30 53 1 23 48
M  V30 54 1 23 49
M  V30 55 1 24 50
M  V30 56 1 24 51
M  V30 57 1 25 52
M  V30 58 1 25 53
M  V30 59 1 26 54
M  V30 60 1 26 55
M  V30 61 1 27 56
M  V30 62 1 27 57
M  V30 63 1 29 58
M  V30 64 1 30 59
M  V30 65 1 32 60
M  V30 66 1 34 61
M  V30 67 1 35 62
M  V30 END BOND
M  V30 END CTAB
M  END
>  <Dataset>  (192) 
ChEMBL_Kinases

>  <Ligand_Instance>  (192) 
nan

>  <PDB_ID>  (192) 
nan

>  <Standardized_SMILES>  (192) 
CCC(=O)Nc1cncc(-c2ccc3[nH]nc(-c4cc5c(N6CCCCC6)nccc5[nH]4)c3c2)c1

>  <Name>  (192) 
nan

>  <Pocket>  (192) 
nan

>  <ATP_Site>  (192) 
nan

>  <Peripheral>  (192) 
nan

>  <Num_H_Atoms_ProtBoundConf>  (192) 
nan

>  <Num_Resolved_Atoms>  (192) 
nan

>  <Num_Not_Resolved_Atoms>  (192) 
nan

$$$$
CHEMBL4227817
     RDKit          3D

  0  0  0  0  0  0  0  0  0  0999 V3000
M  V30 BEGIN CTAB
M  V30 COUNTS 47 50 0 0 0
M  V30 BEGIN ATOM
M  V30 1 C 1.019573 -5.305688 0.928317 0
M  V30 2 C 2.043950 -4.283815 1.390904 0
M  V30 3 C 3.321955 -4.588597 0.655938 0
M  V30 4 N 1.606840 -2.947060 1.047573 0
M  V30 5 C 2.343313 -1.780331 1.379497 0
M  V30 6 C 3.521879 -1.800056 2.055562 0
M  V30 7 C 4.248977 -0.649605 2.380918 0
M  V30 8 C 3.727620 0.566197 1.986711 0
M  V30 9 C 4.178814 1.879056 2.141400 0
M  V30 10 N 3.249243 2.643274 1.549225 0
M  V30 11 N 2.271365 1.947338 1.044516 0
M  V30 12 C 1.134152 2.465000 0.352975 0
M  V30 13 C 1.292991 3.553620 -0.480605 0
M  V30 14 N 0.189809 4.025304 -1.127055 0
M  V30 15 C -1.002820 3.411549 -0.925585 0
M  V30 16 C -1.169801 2.323359 -0.094333 0
M  V30 17 C -2.465708 1.685710 0.101131 0
M  V30 18 C -3.645562 2.064961 -0.490088 0
M  V30 19 C -4.842763 1.423593 -0.267669 0
M  V30 20 C -4.899130 0.346713 0.581562 0
M  V30 21 C -6.189867 -0.300083 0.785494 0
M  V30 22 O -7.185752 0.151669 0.180823 0
M  V30 23 O -6.344358 -1.399102 1.628677 0
M  V30 24 C -3.739249 -0.052503 1.183927 0
M  V30 25 C -2.539198 0.601158 0.952348 0
M  V30 26 F -1.448464 0.101280 1.618594 0
M  V30 27 N -0.061774 1.875870 0.533911 0
M  V30 28 C 2.537267 0.647763 1.299121 0
M  V30 29 C 1.885254 -0.534410 1.019190 0
M  V30 30 H 1.257963 -6.287507 1.386883 0
M  V30 31 H 1.099857 -5.442756 -0.169565 0
M  V30 32 H -0.007052 -5.003227 1.249811 0
M  V30 33 H 2.169524 -4.352292 2.500097 0
M  V30 34 H 4.075493 -4.904744 1.429618 0
M  V30 35 H 3.185292 -5.392712 -0.102562 0
M  V30 36 H 3.705315 -3.654983 0.200788 0
M  V30 37 H 0.697172 -2.835915 0.525648 0
M  V30 38 H 3.963581 -2.710291 2.382258 0
M  V30 39 H 5.193207 -0.710151 2.926014 0
M  V30 40 H 5.083209 2.204658 2.633252 0
M  V30 41 H 2.267461 4.003376 -0.603758 0
M  V30 42 H -1.837221 3.834762 -1.467764 0
M  V30 43 H -3.620893 2.905879 -1.157884 0
M  V30 44 H -5.731795 1.800658 -0.786328 0
M  V30 45 H -7.049594 -2.109472 1.436246 0
M  V30 46 H -3.847051 -0.917193 1.850624 0
M  V30 47 H 0.947063 -0.444526 0.475238 0
M  V30 END ATOM
M  V30 BEGIN BOND
M  V30 1 1 1 2
M  V30 2 1 2 3
M  V30 3 1 2 4
M  V30 4 1 4 5
M  V30 5 2 5 6
M  V30 6 1 6 7
M  V30 7 2 7 8
M  V30 8 1 8 9
M  V30 9 2 9 10
M  V30 10 1 10 11
M  V30 11 1 11 12
M  V30 12 2 12 13
M  V30 13 1 13 14
M  V30 14 2 14 15
M  V30 15 1 15 16
M  V30 16 1 16 17
M  V30 17 2 17 18
M  V30 18 1 18 19
M  V30 19 2 19 20
M  V30 20 1 20 21
M  V30 21 2 21 22
M  V30 22 1 21 23
M  V30 23 1 20 24
M  V30 24 2 24 25
M  V30 25 1 25 26
M  V30 26 2 16 27
M  V30 27 1 11 28
M  V30 28 2 28 29
M  V30 29 1 29 5
M  V30 30 1 28 8
M  V30 31 1 27 12
M  V30 32 1 25 17
M  V30 33 1 1 30
M  V30 34 1 1 31
M  V30 35 1 1 32
M  V30 36 1 2 33
M  V30 37 1 3 34
M  V30 38 1 3 35
M  V30 39 1 3 36
M  V30 40 1 4 37
M  V30 41 1 6 38
M  V30 42 1 7 39
M  V30 43 1 9 40
M  V30 44 1 13 41
M  V30 45 1 15 42
M  V30 46 1 18 43
M  V30 47 1 19 44
M  V30 48 1 23 45
M  V30 49 1 24 46
M  V30 50 1 29 47
M  V30 END BOND
M  V30 END CTAB
M  END
>  <Dataset>  (193) 
ChEMBL_Kinases

>  <Ligand_Instance>  (193) 
nan

>  <PDB_ID>  (193) 
nan

>  <Standardized_SMILES>  (193) 
CC(C)Nc1ccc2cnn(-c3cncc(-c4ccc(C(=O)O)cc4F)n3)c2c1

>  <Name>  (193) 
nan

>  <Pocket>  (193) 
nan

>  <ATP_Site>  (193) 
nan

>  <Peripheral>  (193) 
nan

>  <Num_H_Atoms_ProtBoundConf>  (193) 
nan

>  <Num_Resolved_Atoms>  (193) 
nan

>  <Num_Not_Resolved_Atoms>  (193) 
nan

$$$$
CHEMBL4228240
     RDKit          3D

  0  0  0  0  0  0  0  0  0  0999 V3000
M  V30 BEGIN CTAB
M  V30 COUNTS 50 53 0 0 0
M  V30 BEGIN ATOM
M  V30 1 C -0.107746 -2.617356 3.444978 0
M  V30 2 C 1.386863 -2.409129 3.366432 0
M  V30 3 N 1.806622 -1.077068 3.314947 0
M  V30 4 C 1.658772 -0.228878 4.425844 0
M  V30 5 C 2.501285 -0.535773 5.628808 0
M  V30 6 O 2.261009 0.390091 6.674908 0
M  V30 7 C 3.089171 -0.922020 2.704855 0
M  V30 8 C 3.092852 -1.348480 1.259722 0
M  V30 9 C 2.731908 -0.487553 0.253035 0
M  V30 10 C 2.769266 -0.938208 -0.980833 0
M  V30 11 N 2.421625 -0.227213 -2.251166 0
M  V30 12 C 1.109339 0.307450 -1.982969 0
M  V30 13 N 0.888181 1.503912 -1.392091 0
M  V30 14 C -0.341970 1.969361 -1.144671 0
M  V30 15 C -0.530425 3.307170 -0.484795 0
M  V30 16 C -1.394734 1.167085 -1.522793 0
M  V30 17 N -1.272700 -0.029120 -2.112742 0
M  V30 18 C -2.187230 -0.909394 -2.531373 0
M  V30 19 C -3.632316 -0.910672 -2.500171 0
M  V30 20 C -4.631582 -0.076754 -2.070414 0
M  V30 21 N -5.842843 -0.609210 -2.298778 0
M  V30 22 N -5.702213 -1.795002 -2.877006 0
M  V30 23 C -4.396818 -1.961513 -2.991090 0
M  V30 24 C -1.411916 -1.948196 -3.055693 0
M  V30 25 N -0.117603 -1.626645 -2.917417 0
M  V30 26 C -0.005713 -0.424748 -2.326685 0
M  V30 27 S 3.291856 -2.565182 -0.941613 0
M  V30 28 N 3.480545 -2.658625 0.908835 0
M  V30 29 H -0.625313 -1.977455 4.174245 0
M  V30 30 H -0.269574 -3.671905 3.771450 0
M  V30 31 H -0.614376 -2.518266 2.456819 0
M  V30 32 H 1.708545 -2.914005 2.433122 0
M  V30 33 H 1.863778 -3.017674 4.185764 0
M  V30 34 H 0.613693 -0.084769 4.776684 0
M  V30 35 H 1.965072 0.809715 4.091583 0
M  V30 36 H 2.275704 -1.521216 6.082380 0
M  V30 37 H 3.595456 -0.504315 5.449079 0
M  V30 38 H 1.281756 0.443035 6.798185 0
M  V30 39 H 3.846095 -1.530234 3.245990 0
M  V30 40 H 3.422948 0.147393 2.717513 0
M  V30 41 H 2.422019 0.531203 0.424659 0
M  V30 42 H 3.108331 -0.240610 -3.017599 0
M  V30 43 H -0.090222 3.230643 0.547606 0
M  V30 44 H -1.582129 3.594533 -0.489920 0
M  V30 45 H 0.137436 4.020142 -1.013792 0
M  V30 46 H -2.352461 1.556878 -1.317545 0
M  V30 47 H -4.476804 0.882847 -1.617182 0
M  V30 48 H -6.490564 -2.412864 -3.155367 0
M  V30 49 H -4.046975 -2.901741 -3.455142 0
M  V30 50 H -1.704375 -2.901100 -3.519334 0
M  V30 END ATOM
M  V30 BEGIN BOND
M  V30 1 1 1 2
M  V30 2 1 2 3
M  V30 3 1 3 4
M  V30 4 1 4 5
M  V30 5 1 5 6
M  V30 6 1 3 7
M  V30 7 1 7 8
M  V30 8 1 8 9
M  V30 9 2 9 10
M  V30 10 1 10 11
M  V30 11 1 11 12
M  V30 12 2 12 13
M  V30 13 1 13 14
M  V30 14 1 14 15
M  V30 15 2 14 16
M  V30 16 1 16 17
M  V30 17 1 17 18
M  V30 18 1 18 19
M  V30 19 1 19 20
M  V30 20 2 20 21
M  V30 21 1 21 22
M  V30 22 1 22 23
M  V30 23 2 18 24
M  V30 24 1 24 25
M  V30 25 2 25 26
M  V30 26 1 10 27
M  V30 27 1 27 28
M  V30 28 2 28 8
M  V30 29 1 26 12
M  V30 30 1 26 17
M  V30 31 2 23 19
M  V30 32 1 1 29
M  V30 33 1 1 30
M  V30 34 1 1 31
M  V30 35 1 2 32
M  V30 36 1 2 33
M  V30 37 1 4 34
M  V30 38 1 4 35
M  V30 39 1 5 36
M  V30 40 1 5 37
M  V30 41 1 6 38
M  V30 42 1 7 39
M  V30 43 1 7 40
M  V30 44 1 9 41
M  V30 45 1 11 42
M  V30 46 1 15 43
M  V30 47 1 15 44
M  V30 48 1 15 45
M  V30 49 1 16 46
M  V30 50 1 20 47
M  V30 51 1 22 48
M  V30 52 1 23 49
M  V30 53 1 24 50
M  V30 END BOND
M  V30 END CTAB
M  END
>  <Dataset>  (194) 
ChEMBL_Kinases

>  <Ligand_Instance>  (194) 
nan

>  <PDB_ID>  (194) 
nan

>  <Standardized_SMILES>  (194) 
CCN(CCO)Cc1cc(Nc2nc(C)cn3c(-c4cn[nH]c4)cnc23)sn1

>  <Name>  (194) 
nan

>  <Pocket>  (194) 
nan

>  <ATP_Site>  (194) 
nan

>  <Peripheral>  (194) 
nan

>  <Num_H_Atoms_ProtBoundConf>  (194) 
nan

>  <Num_Resolved_Atoms>  (194) 
nan

>  <Num_Not_Resolved_Atoms>  (194) 
nan

$$$$
CHEMBL4228363
     RDKit          3D

  0  0  0  0  0  0  0  0  0  0999 V3000
M  V30 BEGIN CTAB
M  V30 COUNTS 46 49 0 0 0
M  V30 BEGIN ATOM
M  V30 1 C 0.042052 -2.941673 2.106732 0
M  V30 2 C 1.019829 -3.078114 3.228675 0
M  V30 3 C 0.891872 -1.893078 4.144815 0
M  V30 4 N 2.382999 -3.253065 2.757293 0
M  V30 5 C 3.091093 -2.311521 1.949936 0
M  V30 6 C 4.403216 -2.470781 1.489515 0
M  V30 7 C 4.994807 -1.496838 0.713493 0
M  V30 8 C 4.342208 -0.335780 0.354443 0
M  V30 9 C 4.753113 0.742390 -0.402966 0
M  V30 10 N 3.682001 1.557588 -0.399563 0
M  V30 11 N 2.696089 1.033830 0.296195 0
M  V30 12 C 1.417951 1.641438 0.498589 0
M  V30 13 C 1.249886 2.796763 1.256520 0
M  V30 14 N 0.048274 3.373299 1.450337 0
M  V30 15 C -1.045198 2.819802 0.893552 0
M  V30 16 C -0.920681 1.672496 0.133907 0
M  V30 17 C -2.128993 1.092405 -0.459966 0
M  V30 18 C -2.042647 -0.053642 -1.225042 0
M  V30 19 C -3.217930 -0.550900 -1.757117 0
M  V30 20 C -4.416662 0.108030 -1.506851 0
M  V30 21 C -5.680291 -0.411601 -2.068916 0
M  V30 22 O -6.784492 0.179706 -1.848922 0
M  V30 23 O -5.662346 -1.559613 -2.846877 0
M  V30 24 C -4.471825 1.253149 -0.737255 0
M  V30 25 N -3.301301 1.713518 -0.231053 0
M  V30 26 N 0.288596 1.112132 -0.047657 0
M  V30 27 C 3.047815 -0.162449 0.799870 0
M  V30 28 C 2.475026 -1.139669 1.569828 0
M  V30 29 H -0.648940 -3.807067 2.125467 0
M  V30 30 H 0.556681 -2.973529 1.122580 0
M  V30 31 H -0.613789 -2.048607 2.185457 0
M  V30 32 H 0.787053 -4.012800 3.794769 0
M  V30 33 H 0.089897 -1.237314 3.796577 0
M  V30 34 H 0.673149 -2.259603 5.168734 0
M  V30 35 H 1.873882 -1.336685 4.167160 0
M  V30 36 H 2.971530 -4.110110 2.979710 0
M  V30 37 H 4.904370 -3.401433 1.786447 0
M  V30 38 H 6.023661 -1.683419 0.386024 0
M  V30 39 H 5.709783 0.883917 -0.878729 0
M  V30 40 H 2.148817 3.227949 1.698058 0
M  V30 41 H -2.017389 3.285701 1.050026 0
M  V30 42 H -1.081227 -0.488994 -1.362462 0
M  V30 43 H -3.186430 -1.449313 -2.362809 0
M  V30 44 H -6.511457 -1.985711 -3.207017 0
M  V30 45 H -5.394163 1.786011 -0.527137 0
M  V30 46 H 1.448407 -0.873286 1.853532 0
M  V30 END ATOM
M  V30 BEGIN BOND
M  V30 1 1 1 2
M  V30 2 1 2 3
M  V30 3 1 2 4
M  V30 4 1 4 5
M  V30 5 2 5 6
M  V30 6 1 6 7
M  V30 7 2 7 8
M  V30 8 1 8 9
M  V30 9 2 9 10
M  V30 10 1 10 11
M  V30 11 1 11 12
M  V30 12 2 12 13
M  V30 13 1 13 14
M  V30 14 2 14 15
M  V30 15 1 15 16
M  V30 16 1 16 17
M  V30 17 2 17 18
M  V30 18 1 18 19
M  V30 19 2 19 20
M  V30 20 1 20 21
M  V30 21 2 21 22
M  V30 22 1 21 23
M  V30 23 1 20 24
M  V30 24 2 24 25
M  V30 25 2 16 26
M  V30 26 1 11 27
M  V30 27 2 27 28
M  V30 28 1 28 5
M  V30 29 1 27 8
M  V30 30 1 26 12
M  V30 31 1 25 17
M  V30 32 1 1 29
M  V30 33 1 1 30
M  V30 34 1 1 31
M  V30 35 1 2 32
M  V30 36 1 3 33
M  V30 37 1 3 34
M  V30 38 1 3 35
M  V30 39 1 4 36
M  V30 40 1 6 37
M  V30 41 1 7 38
M  V30 42 1 9 39
M  V30 43 1 13 40
M  V30 44 1 15 41
M  V30 45 1 18 42
M  V30 46 1 19 43
M  V30 47 1 23 44
M  V30 48 1 24 45
M  V30 49 1 28 46
M  V30 END BOND
M  V30 END CTAB
M  END
>  <Dataset>  (195) 
ChEMBL_Kinases

>  <Ligand_Instance>  (195) 
nan

>  <PDB_ID>  (195) 
nan

>  <Standardized_SMILES>  (195) 
CC(C)Nc1ccc2cnn(-c3cncc(-c4ccc(C(=O)O)cn4)n3)c2c1

>  <Name>  (195) 
nan

>  <Pocket>  (195) 
nan

>  <ATP_Site>  (195) 
nan

>  <Peripheral>  (195) 
nan

>  <Num_H_Atoms_ProtBoundConf>  (195) 
nan

>  <Num_Resolved_Atoms>  (195) 
nan

>  <Num_Not_Resolved_Atoms>  (195) 
nan

$$$$
CHEMBL3193172
     RDKit          3D

  0  0  0  0  0  0  0  0  0  0999 V3000
M  V30 BEGIN CTAB
M  V30 COUNTS 26 28 0 0 0
M  V30 BEGIN ATOM
M  V30 1 O 3.067967 -2.826257 3.289825 0
M  V30 2 C 1.843712 -2.896527 2.898748 0
M  V30 3 O 0.884540 -3.850314 3.241334 0
M  V30 4 C -0.300842 -3.576013 2.514804 0
M  V30 5 C 0.143938 -2.686605 1.368391 0
M  V30 6 C 1.287239 -1.917274 1.990694 0
M  V30 7 C 1.618866 -0.635985 1.753867 0
M  V30 8 C 0.915293 0.187646 0.777118 0
M  V30 9 C 0.756533 -0.458490 -0.429393 0
M  V30 10 C 0.098611 0.173193 -1.495511 0
M  V30 11 C -0.387666 1.471491 -1.292847 0
M  V30 12 C -0.211617 2.099568 -0.052505 0
M  V30 13 C 0.444800 1.458973 0.997000 0
M  V30 14 O -0.814074 3.368841 -0.195438 0
M  V30 15 C -1.839465 3.202386 -1.199938 0
M  V30 16 O -1.082411 2.394498 -2.113382 0
M  V30 17 H -0.751281 -4.511035 2.142741 0
M  V30 18 H -1.058568 -3.075385 3.146587 0
M  V30 19 H -0.631060 -1.935851 1.088620 0
M  V30 20 H 0.525401 -3.287225 0.546956 0
M  V30 21 H 2.461631 -0.340474 2.387916 0
M  V30 22 H 1.082733 -1.443442 -0.753558 0
M  V30 23 H -0.065457 -0.263842 -2.479918 0
M  V30 24 H 0.588255 1.925406 1.938313 0
M  V30 25 H -2.611000 2.547870 -0.735736 0
M  V30 26 H -2.190122 4.137917 -1.616544 0
M  V30 END ATOM
M  V30 BEGIN BOND
M  V30 1 2 1 2
M  V30 2 1 2 3
M  V30 3 1 3 4
M  V30 4 1 4 5
M  V30 5 1 5 6
M  V30 6 2 6 7
M  V30 7 1 7 8
M  V30 8 2 8 9
M  V30 9 1 9 10
M  V30 10 2 10 11
M  V30 11 1 11 12
M  V30 12 2 12 13
M  V30 13 1 12 14
M  V30 14 1 14 15
M  V30 15 1 15 16
M  V30 16 1 6 2
M  V30 17 1 13 8
M  V30 18 1 16 11
M  V30 19 1 4 17
M  V30 20 1 4 18
M  V30 21 1 5 19
M  V30 22 1 5 20
M  V30 23 1 7 21
M  V30 24 1 9 22
M  V30 25 1 10 23
M  V30 26 1 13 24
M  V30 27 1 15 25
M  V30 28 1 15 26
M  V30 END BOND
M  V30 END CTAB
M  END
>  <Dataset>  (196) 
ChEMBL_Kinases

>  <Ligand_Instance>  (196) 
nan

>  <PDB_ID>  (196) 
nan

>  <Standardized_SMILES>  (196) 
O=C1OCC/C1=C\c1ccc2c(c1)OCO2

>  <Name>  (196) 
nan

>  <Pocket>  (196) 
nan

>  <ATP_Site>  (196) 
nan

>  <Peripheral>  (196) 
nan

>  <Num_H_Atoms_ProtBoundConf>  (196) 
nan

>  <Num_Resolved_Atoms>  (196) 
nan

>  <Num_Not_Resolved_Atoms>  (196) 
nan

$$$$
CHEMBL4228779
     RDKit          3D

  0  0  0  0  0  0  0  0  0  0999 V3000
M  V30 BEGIN CTAB
M  V30 COUNTS 61 65 0 0 0
M  V30 BEGIN ATOM
M  V30 1 C 4.948907 -1.805458 5.560931 0
M  V30 2 C 3.469606 -1.510313 5.759490 0
M  V30 3 C 3.133511 -0.275136 4.985553 0
M  V30 4 N 3.690979 0.648615 4.185129 0
M  V30 5 C 2.745488 1.534206 3.823373 0
M  V30 6 C 3.049538 2.691964 2.928968 0
M  V30 7 N 2.837035 2.237133 1.569517 0
M  V30 8 C 1.563545 2.068159 0.994562 0
M  V30 9 O 0.659149 2.371062 1.837418 0
M  V30 10 C 1.235057 1.621459 -0.346149 0
M  V30 11 C -0.107168 1.530786 -0.688077 0
M  V30 12 C -0.548106 1.111444 -1.951618 0
M  V30 13 C -2.047973 1.125196 -2.081066 0
M  V30 14 N -2.473512 2.481894 -1.672527 0
M  V30 15 C -3.323248 2.884662 -0.612349 0
M  V30 16 O -3.529311 4.095297 -0.414484 0
M  V30 17 N -3.833485 1.771271 0.096444 0
M  V30 18 C -3.534724 0.399743 -0.202900 0
M  V30 19 C -4.200375 -0.586847 0.680042 0
M  V30 20 C -2.703900 0.120507 -1.223951 0
M  V30 21 C -2.541360 -1.312911 -1.394670 0
M  V30 22 O -3.062811 -2.236158 -0.713578 0
M  V30 23 N -1.770416 -2.017835 -2.356723 0
M  V30 24 C -1.881927 -3.425226 -2.172281 0
M  V30 25 C -2.774261 -4.334986 -2.698862 0
M  V30 26 C -2.653343 -5.659297 -2.347238 0
M  V30 27 C -1.674023 -6.110292 -1.488715 0
M  V30 28 N -1.380339 -7.345608 -1.018153 0
M  V30 29 N -0.335295 -7.272696 -0.208915 0
M  V30 30 C 0.063321 -5.966777 -0.147979 0
M  V30 31 C -0.767998 -5.211555 -0.949170 0
M  V30 32 C -0.883517 -3.870887 -1.299603 0
M  V30 33 C 0.413686 0.779237 -2.879972 0
M  V30 34 C 1.755019 0.849772 -2.597693 0
M  V30 35 C 2.101106 1.269501 -1.338317 0
M  V30 36 F 3.422843 1.327934 -1.092149 0
M  V30 37 N 1.606960 1.129131 4.419298 0
M  V30 38 O 1.859053 0.057845 5.101297 0
M  V30 39 H 5.541257 -0.900912 5.806652 0
M  V30 40 H 5.135985 -2.013877 4.481646 0
M  V30 41 H 5.236400 -2.686163 6.168323 0
M  V30 42 H 3.315305 -1.282044 6.842666 0
M  V30 43 H 2.870977 -2.374344 5.434229 0
M  V30 44 H 4.071445 3.041652 3.087673 0
M  V30 45 H 2.308066 3.487670 3.204814 0
M  V30 46 H 3.670501 2.023911 0.987321 0
M  V30 47 H -0.838779 1.807929 0.090535 0
M  V30 48 H -2.319325 1.000539 -3.131904 0
M  V30 49 H -2.025758 3.180712 -2.327286 0
M  V30 50 H -4.473871 2.033463 0.890828 0
M  V30 51 H -3.482583 -1.201718 1.277179 0
M  V30 52 H -4.933860 -1.239161 0.130966 0
M  V30 53 H -4.840078 -0.077163 1.442694 0
M  V30 54 H -1.248529 -1.443053 -3.053703 0
M  V30 55 H -3.482616 -3.865714 -3.347171 0
M  V30 56 H -3.385130 -6.323309 -2.794850 0
M  V30 57 H -1.883903 -8.231501 -1.243417 0
M  V30 58 H 0.898993 -5.544404 0.428540 0
M  V30 59 H -0.115138 -3.268587 -0.811092 0
M  V30 60 H -0.024409 0.469401 -3.821163 0
M  V30 61 H 2.449527 0.581218 -3.352933 0
M  V30 END ATOM
M  V30 BEGIN BOND
M  V30 1 1 1 2
M  V30 2 1 2 3
M  V30 3 2 3 4
M  V30 4 1 4 5
M  V30 5 1 5 6
M  V30 6 1 6 7
M  V30 7 1 7 8
M  V30 8 2 8 9
M  V30 9 1 8 10
M  V30 10 2 10 11
M  V30 11 1 11 12
M  V30 12 1 12 13
M  V30 13 1 13 14
M  V30 14 1 14 15
M  V30 15 2 15 16
M  V30 16 1 15 17
M  V30 17 1 17 18
M  V30 18 1 18 19
M  V30 19 2 18 20
M  V30 20 1 20 21
M  V30 21 2 21 22
M  V30 22 1 21 23
M  V30 23 1 23 24
M  V30 24 2 24 25
M  V30 25 1 25 26
M  V30 26 2 26 27
M  V30 27 1 27 28
M  V30 28 1 28 29
M  V30 29 2 29 30
M  V30 30 1 30 31
M  V30 31 2 31 32
M  V30 32 2 12 33
M  V30 33 1 33 34
M  V30 34 2 34 35
M  V30 35 1 35 36
M  V30 36 2 5 37
M  V30 37 1 37 38
M  V30 38 1 38 3
M  V30 39 1 35 10
M  V30 40 1 20 13
M  V30 41 1 32 24
M  V30 42 1 31 27
M  V30 43 1 1 39
M  V30 44 1 1 40
M  V30 45 1 1 41
M  V30 46 1 2 42
M  V30 47 1 2 43
M  V30 48 1 6 44
M  V30 49 1 6 45
M  V30 50 1 7 46
M  V30 51 1 11 47
M  V30 52 1 13 48
M  V30 53 1 14 49
M  V30 54 1 17 50
M  V30 55 1 19 51
M  V30 56 1 19 52
M  V30 57 1 19 53
M  V30 58 1 23 54
M  V30 59 1 25 55
M  V30 60 1 26 56
M  V30 61 1 28 57
M  V30 62 1 30 58
M  V30 63 1 32 59
M  V30 64 1 33 60
M  V30 65 1 34 61
M  V30 END BOND
M  V30 END CTAB
M  END
>  <Dataset>  (197) 
ChEMBL_Kinases

>  <Ligand_Instance>  (197) 
nan

>  <PDB_ID>  (197) 
nan

>  <Standardized_SMILES>  (197) 
CCc1nc(CNC(=O)c2cc(C3NC(=O)NC(C)=C3C(=O)Nc3ccc4[nH]ncc4c3)ccc2F)no1

>  <Name>  (197) 
nan

>  <Pocket>  (197) 
nan

>  <ATP_Site>  (197) 
nan

>  <Peripheral>  (197) 
nan

>  <Num_H_Atoms_ProtBoundConf>  (197) 
nan

>  <Num_Resolved_Atoms>  (197) 
nan

>  <Num_Not_Resolved_Atoms>  (197) 
nan

$$$$
CHEMBL4765221
     RDKit          3D

  0  0  0  0  0  0  0  0  0  0999 V3000
M  V30 BEGIN CTAB
M  V30 COUNTS 46 51 0 0 0
M  V30 BEGIN ATOM
M  V30 1 F 0.543787 -4.700729 1.178260 0
M  V30 2 C 1.401251 -4.188264 0.253365 0
M  V30 3 C 1.727203 -4.846217 -0.918382 0
M  V30 4 C 2.603456 -4.224151 -1.768941 0
M  V30 5 C 3.128884 -2.987325 -1.448198 0
M  V30 6 C 2.801060 -2.319425 -0.263807 0
M  V30 7 C 3.444452 -1.023150 -0.080251 0
M  V30 8 N 4.758920 -1.006117 -0.366394 0
M  V30 9 C 5.537970 0.091698 -0.262797 0
M  V30 10 C 4.916971 1.247253 0.164627 0
M  V30 11 C 3.573521 1.310277 0.477266 0
M  V30 12 N 2.682885 2.226496 0.903967 0
M  V30 13 C 1.458911 1.678380 1.036592 0
M  V30 14 C 0.281104 2.423331 1.483670 0
M  V30 15 N 0.307116 3.729854 1.805981 0
M  V30 16 N -0.920994 4.126224 2.176521 0
M  V30 17 C -1.738576 3.043524 2.085092 0
M  V30 18 C -3.101042 2.879705 2.344572 0
M  V30 19 C -3.599232 1.608660 2.135318 0
M  V30 20 C -2.851496 0.539397 1.701837 0
M  V30 21 C -3.401061 -0.784989 1.490525 0
M  V30 22 C -2.562135 -1.789329 1.053263 0
M  V30 23 C -3.051472 -3.058603 0.842402 0
M  V30 24 C -4.388942 -3.338861 1.066992 0
M  V30 25 N -5.228346 -2.354542 1.499335 0
M  V30 26 C -4.717597 -1.141648 1.691310 0
M  V30 27 N -1.553745 0.728121 1.462894 0
M  V30 28 C -1.002894 1.938116 1.645192 0
M  V30 29 C 1.521929 0.340662 0.686798 0
M  V30 30 C 2.845570 0.145333 0.345517 0
M  V30 31 C 1.917858 -2.958411 0.582005 0
M  V30 32 H 1.294130 -5.806370 -1.125756 0
M  V30 33 H 2.877298 -4.710689 -2.689642 0
M  V30 34 H 3.808586 -2.557563 -2.158716 0
M  V30 35 H 6.578217 0.060252 -0.500517 0
M  V30 36 H 5.486251 2.162625 0.268755 0
M  V30 37 H 2.984667 3.220052 1.086812 0
M  V30 38 H -1.280628 5.061215 2.490653 0
M  V30 39 H -3.717565 3.698855 2.686320 0
M  V30 40 H -4.650712 1.490591 2.337671 0
M  V30 41 H -1.510098 -1.620305 0.863694 0
M  V30 42 H -2.460574 -3.886273 0.504205 0
M  V30 43 H -4.858769 -4.316618 0.925045 0
M  V30 44 H -5.401482 -0.379662 2.033511 0
M  V30 45 H 0.713481 -0.377549 0.684833 0
M  V30 46 H 1.690177 -2.420299 1.476504 0
M  V30 END ATOM
M  V30 BEGIN BOND
M  V30 1 1 1 2
M  V30 2 2 2 3
M  V30 3 1 3 4
M  V30 4 2 4 5
M  V30 5 1 5 6
M  V30 6 1 6 7
M  V30 7 2 7 8
M  V30 8 1 8 9
M  V30 9 2 9 10
M  V30 10 1 10 11
M  V30 11 1 11 12
M  V30 12 1 12 13
M  V30 13 1 13 14
M  V30 14 2 14 15
M  V30 15 1 15 16
M  V30 16 1 16 17
M  V30 17 2 17 18
M  V30 18 1 18 19
M  V30 19 2 19 20
M  V30 20 1 20 21
M  V30 21 2 21 22
M  V30 22 1 22 23
M  V30 23 2 23 24
M  V30 24 1 24 25
M  V30 25 2 25 26
M  V30 26 1 20 27
M  V30 27 2 27 28
M  V30 28 2 13 29
M  V30 29 1 29 30
M  V30 30 2 6 31
M  V30 31 1 31 2
M  V30 32 1 30 7
M  V30 33 2 30 11
M  V30 34 1 28 14
M  V30 35 1 28 17
M  V30 36 1 26 21
M  V30 37 1 3 32
M  V30 38 1 4 33
M  V30 39 1 5 34
M  V30 40 1 9 35
M  V30 41 1 10 36
M  V30 42 1 12 37
M  V30 43 1 16 38
M  V30 44 1 18 39
M  V30 45 1 19 40
M  V30 46 1 22 41
M  V30 47 1 23 42
M  V30 48 1 24 43
M  V30 49 1 26 44
M  V30 50 1 29 45
M  V30 51 1 31 46
M  V30 END BOND
M  V30 END CTAB
M  END
>  <Dataset>  (198) 
ChEMBL_Kinases

>  <Ligand_Instance>  (198) 
nan

>  <PDB_ID>  (198) 
nan

>  <Standardized_SMILES>  (198) 
Fc1cccc(-c2nccc3[nH]c(-c4n[nH]c5ccc(-c6cccnc6)nc45)cc23)c1

>  <Name>  (198) 
nan

>  <Pocket>  (198) 
nan

>  <ATP_Site>  (198) 
nan

>  <Peripheral>  (198) 
nan

>  <Num_H_Atoms_ProtBoundConf>  (198) 
nan

>  <Num_Resolved_Atoms>  (198) 
nan

>  <Num_Not_Resolved_Atoms>  (198) 
nan

$$$$
CHEMBL4765107
     RDKit          3D

  0  0  0  0  0  0  0  0  0  0999 V3000
M  V30 BEGIN CTAB
M  V30 COUNTS 56 61 0 0 0
M  V30 BEGIN ATOM
M  V30 1 C -0.381740 -8.956572 2.117064 0
M  V30 2 S -1.551214 -7.696094 1.757152 0
M  V30 3 O -2.515356 -7.469345 2.887835 0
M  V30 4 O -2.375722 -8.143611 0.562582 0
M  V30 5 N -0.832025 -6.197563 1.376652 0
M  V30 6 C 0.007959 -6.199771 0.220708 0
M  V30 7 C 0.606645 -4.877292 -0.064860 0
M  V30 8 C 1.831578 -4.664877 0.547632 0
M  V30 9 C 2.475184 -3.462097 0.345188 0
M  V30 10 F 3.685548 -3.236168 0.942325 0
M  V30 11 C 1.961156 -2.451815 -0.440016 0
M  V30 12 C 0.740633 -2.678144 -1.043175 0
M  V30 13 C 0.071284 -1.703767 -1.899285 0
M  V30 14 C -0.473404 -2.114142 -3.113731 0
M  V30 15 N -1.111057 -1.276993 -3.976570 0
M  V30 16 C -1.244336 0.021790 -3.680085 0
M  V30 17 C -0.727627 0.497960 -2.490910 0
M  V30 18 N -0.703780 1.732640 -1.919349 0
M  V30 19 C -0.071242 1.675267 -0.733763 0
M  V30 20 C 0.200778 2.735365 0.236435 0
M  V30 21 N 0.843058 2.655413 1.431856 0
M  V30 22 N 0.876171 3.849062 1.999516 0
M  V30 23 C 0.266864 4.784658 1.228586 0
M  V30 24 C 0.055498 6.138458 1.395282 0
M  V30 25 C -0.621378 6.769860 0.365808 0
M  V30 26 C -1.050173 6.080392 -0.746159 0
M  V30 27 C -1.765198 6.712264 -1.849092 0
M  V30 28 C -2.151852 5.932771 -2.918925 0
M  V30 29 N -2.818367 6.405584 -3.995758 0
M  V30 30 C -3.114208 7.716681 -4.008511 0
M  V30 31 N -2.760027 8.513207 -2.993681 0
M  V30 32 C -2.089242 8.051296 -1.904077 0
M  V30 33 N -0.810267 4.761003 -0.843597 0
M  V30 34 C -0.156517 4.065050 0.114326 0
M  V30 35 C 0.334935 0.353607 -0.519773 0
M  V30 36 C -0.083388 -0.359688 -1.624238 0
M  V30 37 C 0.095843 -3.881374 -0.841278 0
M  V30 38 H -0.506415 -9.263559 3.194855 0
M  V30 39 H -0.486631 -9.870786 1.530287 0
M  V30 40 H 0.680212 -8.580866 2.078315 0
M  V30 41 H -1.447482 -5.387290 1.494112 0
M  V30 42 H 0.783098 -6.980681 0.354777 0
M  V30 43 H -0.580100 -6.489790 -0.694024 0
M  V30 44 H 2.323665 -5.390897 1.183343 0
M  V30 45 H 2.466538 -1.517354 -0.596055 0
M  V30 46 H -0.426931 -3.137656 -3.458694 0
M  V30 47 H -1.732819 0.745543 -4.306530 0
M  V30 48 H -1.110626 2.619292 -2.319718 0
M  V30 49 H 1.324841 4.047482 2.942190 0
M  V30 50 H 0.395722 6.670092 2.270913 0
M  V30 51 H -0.804751 7.819376 0.457548 0
M  V30 52 H -1.946076 4.855568 -2.979833 0
M  V30 53 H -3.645787 8.164842 -4.837137 0
M  V30 54 H -1.804204 8.684614 -1.090845 0
M  V30 55 H 0.866062 -0.010173 0.343337 0
M  V30 56 H -0.874643 -4.141498 -1.282351 0
M  V30 END ATOM
M  V30 BEGIN BOND
M  V30 1 1 1 2
M  V30 2 2 2 3
M  V30 3 2 2 4
M  V30 4 1 2 5
M  V30 5 1 5 6
M  V30 6 1 6 7
M  V30 7 2 7 8
M  V30 8 1 8 9
M  V30 9 1 9 10
M  V30 10 2 9 11
M  V30 11 1 11 12
M  V30 12 1 12 13
M  V30 13 2 13 14
M  V30 14 1 14 15
M  V30 15 2 15 16
M  V30 16 1 16 17
M  V30 17 1 17 18
M  V30 18 1 18 19
M  V30 19 1 19 20
M  V30 20 2 20 21
M  V30 21 1 21 22
M  V30 22 1 22 23
M  V30 23 2 23 24
M  V30 24 1 24 25
M  V30 25 2 25 26
M  V30 26 1 26 27
M  V30 27 2 27 28
M  V30 28 1 28 29
M  V30 29 2 29 30
M  V30 30 1 30 31
M  V30 31 2 31 32
M  V30 32 1 26 33
M  V30 33 2 33 34
M  V30 34 2 19 35
M  V30 35 1 35 36
M  V30 36 2 12 37
M  V30 37 1 37 7
M  V30 38 1 36 13
M  V30 39 2 36 17
M  V30 40 1 34 20
M  V30 41 1 34 23
M  V30 42 1 32 27
M  V30 43 1 1 38
M  V30 44 1 1 39
M  V30 45 1 1 40
M  V30 46 1 5 41
M  V30 47 1 6 42
M  V30 48 1 6 43
M  V30 49 1 8 44
M  V30 50 1 11 45
M  V30 51 1 14 46
M  V30 52 1 16 47
M  V30 53 1 18 48
M  V30 54 1 22 49
M  V30 55 1 24 50
M  V30 56 1 25 51
M  V30 57 1 28 52
M  V30 58 1 30 53
M  V30 59 1 32 54
M  V30 60 1 35 55
M  V30 61 1 37 56
M  V30 END BOND
M  V30 END CTAB
M  END
>  <Dataset>  (199) 
ChEMBL_Kinases

>  <Ligand_Instance>  (199) 
nan

>  <PDB_ID>  (199) 
nan

>  <Standardized_SMILES>  (199) 
CS(=O)(=O)NCc1cc(F)cc(-c2cncc3[nH]c(-c4n[nH]c5ccc(-c6cncnc6)nc45)cc23)c1

>  <Name>  (199) 
nan

>  <Pocket>  (199) 
nan

>  <ATP_Site>  (199) 
nan

>  <Peripheral>  (199) 
nan

>  <Num_H_Atoms_ProtBoundConf>  (199) 
nan

>  <Num_Resolved_Atoms>  (199) 
nan

>  <Num_Not_Resolved_Atoms>  (199) 
nan

$$$$
CHEMBL4765065
     RDKit          3D

  0  0  0  0  0  0  0  0  0  0999 V3000
M  V30 BEGIN CTAB
M  V30 COUNTS 59 64 0 0 0
M  V30 BEGIN ATOM
M  V30 1 C 0.774430 -1.572819 3.640990 0
M  V30 2 C 2.063538 -2.320150 3.832218 0
M  V30 3 N 2.152151 -3.479280 3.040846 0
M  V30 4 C 3.360888 -4.252736 3.262707 0
M  V30 5 C 1.775256 -3.423774 1.674542 0
M  V30 6 C 2.498596 -2.474368 0.820812 0
M  V30 7 C 3.671662 -2.970253 0.284126 0
M  V30 8 N 4.455670 -2.239925 -0.530697 0
M  V30 9 C 4.133167 -0.972432 -0.869155 0
M  V30 10 C 2.950644 -0.431208 -0.346446 0
M  V30 11 C 2.586345 0.934344 -0.702110 0
M  V30 12 C 3.521616 1.891327 -0.940558 0
M  V30 13 N 3.036829 3.105058 -1.264485 0
M  V30 14 C 1.728698 3.385257 -1.354410 0
M  V30 15 N 1.061205 4.517711 -1.660326 0
M  V30 16 N -0.250881 4.280090 -1.615659 0
M  V30 17 C -0.468143 2.997856 -1.282233 0
M  V30 18 C -1.758712 2.339663 -1.129266 0
M  V30 19 N -1.983156 1.056635 -0.798705 0
M  V30 20 C -3.295089 0.797140 -0.752136 0
M  V30 21 C -4.035874 -0.336567 -0.470928 0
M  V30 22 C -3.337040 -1.582542 -0.132742 0
M  V30 23 C -3.903376 -2.256132 0.948000 0
M  V30 24 C -3.287049 -3.449390 1.325955 0
M  V30 25 C -2.180193 -3.964904 0.691428 0
M  V30 26 C -1.673372 -3.248027 -0.368013 0
M  V30 27 F -0.578734 -3.678149 -1.058493 0
M  V30 28 C -2.217394 -2.054217 -0.814658 0
M  V30 29 C -5.421965 -0.219374 -0.525483 0
M  V30 30 N -6.026999 0.936592 -0.835775 0
M  V30 31 C -5.346825 2.056361 -1.114319 0
M  V30 32 C -3.966702 1.979291 -1.070445 0
M  V30 33 N -2.975311 2.882177 -1.289793 0
M  V30 34 C 0.773091 2.422745 -1.114598 0
M  V30 35 C 1.205895 1.156321 -0.777640 0
M  V30 36 C 2.157953 -1.189633 0.485983 0
M  V30 37 H 0.282518 -1.372507 4.645467 0
M  V30 38 H 0.002232 -2.135743 3.087964 0
M  V30 39 H 0.950754 -0.541323 3.236521 0
M  V30 40 H 2.937412 -1.635137 3.758724 0
M  V30 41 H 2.088778 -2.652090 4.915020 0
M  V30 42 H 4.272839 -3.663277 3.307499 0
M  V30 43 H 3.230674 -4.750450 4.258983 0
M  V30 44 H 3.448684 -5.077121 2.526344 0
M  V30 45 H 0.700579 -3.241364 1.581893 0
M  V30 46 H 1.897827 -4.490577 1.291212 0
M  V30 47 H 4.116041 -3.955578 0.423158 0
M  V30 48 H 4.732306 -0.340064 -1.523249 0
M  V30 49 H 4.579741 1.679625 -0.871415 0
M  V30 50 H 1.503515 5.447500 -1.898668 0
M  V30 51 H -4.758698 -1.919505 1.487948 0
M  V30 52 H -3.668909 -4.029538 2.155974 0
M  V30 53 H -1.700012 -4.889165 0.980597 0
M  V30 54 H -1.884582 -1.447943 -1.619820 0
M  V30 55 H -6.009002 -1.098319 -0.307296 0
M  V30 56 H -5.802012 3.014464 -1.370619 0
M  V30 57 H -3.174287 3.872486 -1.550763 0
M  V30 58 H 0.465856 0.404027 -0.590215 0
M  V30 59 H 1.255797 -0.816021 0.895757 0
M  V30 END ATOM
M  V30 BEGIN BOND
M  V30 1 1 1 2
M  V30 2 1 2 3
M  V30 3 1 3 4
M  V30 4 1 3 5
M  V30 5 1 5 6
M  V30 6 2 6 7
M  V30 7 1 7 8
M  V30 8 2 8 9
M  V30 9 1 9 10
M  V30 10 1 10 11
M  V30 11 2 11 12
M  V30 12 1 12 13
M  V30 13 2 13 14
M  V30 14 1 14 15
M  V30 15 1 15 16
M  V30 16 2 16 17
M  V30 17 1 17 18
M  V30 18 2 18 19
M  V30 19 1 19 20
M  V30 20 2 20 21
M  V30 21 1 21 22
M  V30 22 2 22 23
M  V30 23 1 23 24
M  V30 24 2 24 25
M  V30 25 1 25 26
M  V30 26 1 26 27
M  V30 27 2 26 28
M  V30 28 1 21 29
M  V30 29 2 29 30
M  V30 30 1 30 31
M  V30 31 2 31 32
M  V30 32 1 32 33
M  V30 33 1 17 34
M  V30 34 2 34 35
M  V30 35 2 10 36
M  V30 36 1 36 6
M  V30 37 1 35 11
M  V30 38 1 34 14
M  V30 39 1 33 18
M  V30 40 1 32 20
M  V30 41 1 28 22
M  V30 42 1 1 37
M  V30 43 1 1 38
M  V30 44 1 1 39
M  V30 45 1 2 40
M  V30 46 1 2 41
M  V30 47 1 4 42
M  V30 48 1 4 43
M  V30 49 1 4 44
M  V30 50 1 5 45
M  V30 51 1 5 46
M  V30 52 1 7 47
M  V30 53 1 9 48
M  V30 54 1 12 49
M  V30 55 1 15 50
M  V30 56 1 23 51
M  V30 57 1 24 52
M  V30 58 1 25 53
M  V30 59 1 28 54
M  V30 60 1 29 55
M  V30 61 1 31 56
M  V30 62 1 33 57
M  V30 63 1 35 58
M  V30 64 1 36 59
M  V30 END BOND
M  V30 END CTAB
M  END
>  <Dataset>  (200) 
ChEMBL_Kinases

>  <Ligand_Instance>  (200) 
nan

>  <PDB_ID>  (200) 
nan

>  <Standardized_SMILES>  (200) 
CCN(C)Cc1cncc(-c2cnc3[nH]nc(-c4nc5c(-c6cccc(F)c6)cncc5[nH]4)c3c2)c1

>  <Name>  (200) 
nan

>  <Pocket>  (200) 
nan

>  <ATP_Site>  (200) 
nan

>  <Peripheral>  (200) 
nan

>  <Num_H_Atoms_ProtBoundConf>  (200) 
nan

>  <Num_Resolved_Atoms>  (200) 
nan

>  <Num_Not_Resolved_Atoms>  (200) 
nan

$$$$
CHEMBL3185148
     RDKit          3D

  0  0  0  0  0  0  0  0  0  0999 V3000
M  V30 BEGIN CTAB
M  V30 COUNTS 50 53 0 0 0
M  V30 BEGIN ATOM
M  V30 1 N 0.234279 -0.467403 4.732477 0
M  V30 2 C 0.519613 -1.426372 3.726867 0
M  V30 3 N 1.786220 -1.862228 3.644237 0
M  V30 4 C 2.125126 -2.763091 2.705166 0
M  V30 5 N 3.339830 -3.410828 2.304075 0
M  V30 6 C 4.201021 -2.245294 2.113408 0
M  V30 7 C 3.515731 -1.181579 1.302512 0
M  V30 8 N 3.125105 -1.567796 -0.007076 0
M  V30 9 C 2.347208 -0.442711 -0.432426 0
M  V30 10 N 2.686249 0.817214 -0.753302 0
M  V30 11 C 1.692644 1.661355 -1.092891 0
M  V30 12 C 0.359603 1.246500 -1.112839 0
M  V30 13 N -0.640176 2.212207 -1.465668 0
M  V30 14 C -0.792753 3.094744 -0.430254 0
M  V30 15 C -1.760576 4.020172 -0.788177 0
M  V30 16 N -2.168949 3.671939 -2.032174 0
M  V30 17 C -1.489241 2.580025 -2.435711 0
M  V30 18 C 0.026837 -0.048145 -0.785398 0
M  V30 19 C -1.372098 -0.476138 -0.852582 0
M  V30 20 C -2.512858 -0.032077 -0.236092 0
M  V30 21 C -3.707502 -0.669126 -0.523467 0
M  V30 22 C -3.822451 -1.715785 -1.385236 0
M  V30 23 Cl -5.379935 -2.472859 -1.694280 0
M  V30 24 C -2.664059 -2.163419 -2.006530 0
M  V30 25 C -1.458846 -1.551103 -1.742838 0
M  V30 26 Cl -0.138672 -2.290347 -2.652362 0
M  V30 27 N 1.064066 -0.842008 -0.453400 0
M  V30 28 C 1.128564 -3.227141 1.830990 0
M  V30 29 C -0.191717 -2.778786 1.912875 0
M  V30 30 C -0.480268 -1.855919 2.890125 0
M  V30 31 N -1.775267 -1.309325 3.094038 0 CHG=1 VAL=4
M  V30 32 O -2.924967 -1.739470 2.877270 0
M  V30 33 O -2.071491 -0.067586 3.626377 0 CHG=-1 VAL=1
M  V30 34 H 0.872256 0.361220 4.784665 0
M  V30 35 H -0.588473 -0.605498 5.376656 0
M  V30 36 H 3.400078 -4.452430 2.229354 0
M  V30 37 H 4.431914 -1.846069 3.110525 0
M  V30 38 H 5.128549 -2.545681 1.569665 0
M  V30 39 H 2.721854 -0.679229 1.898020 0
M  V30 40 H 4.298947 -0.360238 1.192826 0
M  V30 41 H 3.351648 -2.436599 -0.518833 0
M  V30 42 H 2.024176 2.649683 -1.339687 0
M  V30 43 H -0.397099 3.295804 0.582708 0
M  V30 44 H -2.228963 4.892024 -0.334207 0
M  V30 45 H -1.419561 1.919763 -3.286673 0
M  V30 46 H -2.312333 0.791145 0.416101 0
M  V30 47 H -4.582204 -0.278089 0.006081 0
M  V30 48 H -2.812774 -3.009276 -2.691339 0
M  V30 49 H 1.208778 -3.952613 1.009724 0
M  V30 50 H -0.995542 -3.082979 1.285964 0
M  V30 END ATOM
M  V30 BEGIN BOND
M  V30 1 1 1 2
M  V30 2 2 2 3
M  V30 3 1 3 4
M  V30 4 1 4 5
M  V30 5 1 5 6
M  V30 6 1 6 7
M  V30 7 1 7 8
M  V30 8 1 8 9
M  V30 9 2 9 10
M  V30 10 1 10 11
M  V30 11 2 11 12
M  V30 12 1 12 13
M  V30 13 1 13 14
M  V30 14 2 14 15
M  V30 15 1 15 16
M  V30 16 2 16 17
M  V30 17 1 12 18
M  V30 18 1 18 19
M  V30 19 2 19 20
M  V30 20 1 20 21
M  V30 21 2 21 22
M  V30 22 1 22 23
M  V30 23 1 22 24
M  V30 24 2 24 25
M  V30 25 1 25 26
M  V30 26 2 18 27
M  V30 27 2 4 28
M  V30 28 1 28 29
M  V30 29 2 29 30
M  V30 30 1 30 31
M  V30 31 2 31 32
M  V30 32 1 31 33
M  V30 33 1 30 2
M  V30 34 1 27 9
M  V30 35 1 17 13
M  V30 36 1 25 19
M  V30 37 1 1 34
M  V30 38 1 1 35
M  V30 39 1 5 36
M  V30 40 1 6 37
M  V30 41 1 6 38
M  V30 42 1 7 39
M  V30 43 1 7 40
M  V30 44 1 8 41
M  V30 45 1 11 42
M  V30 46 1 14 43
M  V30 47 1 15 44
M  V30 48 1 17 45
M  V30 49 1 20 46
M  V30 50 1 21 47
M  V30 51 1 24 48
M  V30 52 1 28 49
M  V30 53 1 29 50
M  V30 END BOND
M  V30 END CTAB
M  END
>  <Dataset>  (201) 
ChEMBL_Kinases

>  <Ligand_Instance>  (201) 
nan

>  <PDB_ID>  (201) 
nan

>  <Standardized_SMILES>  (201) 
Nc1nc(NCCNc2ncc(-n3ccnc3)c(-c3ccc(Cl)cc3Cl)n2)ccc1[N+](=O)[O-]

>  <Name>  (201) 
nan

>  <Pocket>  (201) 
nan

>  <ATP_Site>  (201) 
nan

>  <Peripheral>  (201) 
nan

>  <Num_H_Atoms_ProtBoundConf>  (201) 
nan

>  <Num_Resolved_Atoms>  (201) 
nan

>  <Num_Not_Resolved_Atoms>  (201) 
nan

$$$$
CHEMBL4764899
     RDKit          3D

  0  0  0  0  0  0  0  0  0  0999 V3000
M  V30 BEGIN CTAB
M  V30 COUNTS 73 78 0 0 0
M  V30 BEGIN ATOM
M  V30 1 C -3.000947 6.193509 -4.434195 0
M  V30 2 C -3.347375 6.542034 -3.015950 0
M  V30 3 C -4.420034 5.632251 -2.517076 0
M  V30 4 C -2.092566 6.440363 -2.156874 0
M  V30 5 C -1.600740 5.055840 -2.242539 0
M  V30 6 O -2.252940 4.276595 -2.946669 0
M  V30 7 N -0.445560 4.574647 -1.577471 0
M  V30 8 C 0.131025 3.282700 -1.574264 0
M  V30 9 C 1.268149 3.058891 -0.842699 0
M  V30 10 N 1.872345 1.861659 -0.789368 0
M  V30 11 C 1.405255 0.805152 -1.447020 0
M  V30 12 C 0.271440 0.943357 -2.202689 0
M  V30 13 C -0.251334 -0.206292 -2.926815 0
M  V30 14 C -0.926936 -0.051506 -4.129287 0
M  V30 15 N -1.374493 -1.170330 -4.725144 0
M  V30 16 C -1.196673 -2.401327 -4.212994 0
M  V30 17 N -1.525088 -3.653637 -4.577899 0
M  V30 18 N -1.099508 -4.512607 -3.694296 0
M  V30 19 C -0.457233 -3.920087 -2.673517 0
M  V30 20 C 0.122550 -4.614009 -1.546106 0
M  V30 21 C 0.805729 -4.266195 -0.413237 0
M  V30 22 C 1.138790 -5.361261 0.353265 0
M  V30 23 C 1.815393 -5.473226 1.548782 0
M  V30 24 C 2.336191 -4.313071 2.256225 0
M  V30 25 C 3.654305 -4.492284 2.693000 0
M  V30 26 C 4.289569 -3.469603 3.390035 0
M  V30 27 F 5.572675 -3.563381 3.850382 0
M  V30 28 C 3.668718 -2.251000 3.681862 0
M  V30 29 C 2.352665 -2.105642 3.231071 0
M  V30 30 C 1.589925 -0.870832 3.473709 0
M  V30 31 N 0.835527 -0.825996 4.675169 0
M  V30 32 S -0.027701 0.647080 4.889061 0
M  V30 33 C -1.192348 0.858250 3.574284 0
M  V30 34 O -0.708680 0.640388 6.221076 0
M  V30 35 O 0.946794 1.793933 4.875211 0
M  V30 36 C 1.745051 -3.116489 2.550285 0
M  V30 37 N 1.984020 -6.718471 2.048313 0
M  V30 38 C 1.519677 -7.819747 1.423528 0
M  V30 39 C 0.843611 -7.678539 0.224525 0
M  V30 40 C 0.634909 -6.438247 -0.344228 0
M  V30 41 N 0.048446 -5.956046 -1.448686 0
M  V30 42 C -0.530831 -2.596762 -3.020805 0
M  V30 43 C -0.064909 -1.463828 -2.395306 0
M  V30 44 C -0.325732 2.172177 -2.241243 0
M  V30 45 H -1.907871 6.001807 -4.565117 0
M  V30 46 H -3.518495 5.253297 -4.706521 0
M  V30 47 H -3.353738 7.011760 -5.099848 0
M  V30 48 H -3.660898 7.607357 -2.951108 0
M  V30 49 H -4.829967 5.054035 -3.360569 0
M  V30 50 H -5.236025 6.252815 -2.078783 0
M  V30 51 H -4.086572 4.974294 -1.679999 0
M  V30 52 H -1.327532 7.156279 -2.505914 0
M  V30 53 H -2.308257 6.703783 -1.102324 0
M  V30 54 H 0.015591 5.329033 -1.015989 0
M  V30 55 H 1.771962 3.828797 -0.248165 0
M  V30 56 H 1.938738 -0.142442 -1.365791 0
M  V30 57 H -1.054018 0.950171 -4.515147 0
M  V30 58 H -2.047764 -3.922650 -5.444055 0
M  V30 59 H 1.060442 -3.273101 -0.142811 0
M  V30 60 H 4.250629 -5.386778 2.533680 0
M  V30 61 H 4.154407 -1.465814 4.216002 0
M  V30 62 H 0.870338 -0.657569 2.629096 0
M  V30 63 H 2.285519 0.006857 3.468871 0
M  V30 64 H 0.331275 -1.669758 4.950631 0
M  V30 65 H -0.927315 1.732714 2.957026 0
M  V30 66 H -2.218336 1.030281 3.991980 0
M  V30 67 H -1.247499 -0.067944 2.974999 0
M  V30 68 H 0.732074 -3.034726 2.195825 0
M  V30 69 H 1.660715 -8.815301 1.834345 0
M  V30 70 H 0.468069 -8.533650 -0.286462 0
M  V30 71 H -0.384399 -6.661746 -2.084370 0
M  V30 72 H 0.458321 -1.545552 -1.469837 0
M  V30 73 H -1.213418 2.253786 -2.841193 0
M  V30 END ATOM
M  V30 BEGIN BOND
M  V30 1 1 1 2
M  V30 2 1 2 3
M  V30 3 1 2 4
M  V30 4 1 4 5
M  V30 5 2 5 6
M  V30 6 1 5 7
M  V30 7 1 7 8
M  V30 8 2 8 9
M  V30 9 1 9 10
M  V30 10 2 10 11
M  V30 11 1 11 12
M  V30 12 1 12 13
M  V30 13 2 13 14
M  V30 14 1 14 15
M  V30 15 2 15 16
M  V30 16 1 16 17
M  V30 17 1 17 18
M  V30 18 2 18 19
M  V30 19 1 19 20
M  V30 20 2 20 21
M  V30 21 1 21 22
M  V30 22 2 22 23
M  V30 23 1 23 24
M  V30 24 2 24 25
M  V30 25 1 25 26
M  V30 26 1 26 27
M  V30 27 2 26 28
M  V30 28 1 28 29
M  V30 29 1 29 30
M  V30 30 1 30 31
M  V30 31 1 31 32
M  V30 32 1 32 33
M  V30 33 2 32 34
M  V30 34 2 32 35
M  V30 35 2 29 36
M  V30 36 1 23 37
M  V30 37 2 37 38
M  V30 38 1 38 39
M  V30 39 2 39 40
M  V30 40 1 40 41
M  V30 41 1 19 42
M  V30 42 2 42 43
M  V30 43 2 12 44
M  V30 44 1 44 8
M  V30 45 1 43 13
M  V30 46 1 42 16
M  V30 47 1 41 20
M  V30 48 1 40 22
M  V30 49 1 36 24
M  V30 50 1 1 45
M  V30 51 1 1 46
M  V30 52 1 1 47
M  V30 53 1 2 48
M  V30 54 1 3 49
M  V30 55 1 3 50
M  V30 56 1 3 51
M  V30 57 1 4 52
M  V30 58 1 4 53
M  V30 59 1 7 54
M  V30 60 1 9 55
M  V30 61 1 11 56
M  V30 62 1 14 57
M  V30 63 1 17 58
M  V30 64 1 21 59
M  V30 65 1 25 60
M  V30 66 1 28 61
M  V30 67 1 30 62
M  V30 68 1 30 63
M  V30 69 1 31 64
M  V30 70 1 33 65
M  V30 71 1 33 66
M  V30 72 1 33 67
M  V30 73 1 36 68
M  V30 74 1 38 69
M  V30 75 1 39 70
M  V30 76 1 41 71
M  V30 77 1 43 72
M  V30 78 1 44 73
M  V30 END BOND
M  V30 END CTAB
M  END
>  <Dataset>  (202) 
ChEMBL_Kinases

>  <Ligand_Instance>  (202) 
nan

>  <PDB_ID>  (202) 
nan

>  <Standardized_SMILES>  (202) 
CC(C)CC(=O)Nc1cncc(-c2cnc3[nH]nc(-c4cc5c(-c6cc(F)cc(CNS(C)(=O)=O)c6)nccc5[nH]4)c3c2)c1

>  <Name>  (202) 
nan

>  <Pocket>  (202) 
nan

>  <ATP_Site>  (202) 
nan

>  <Peripheral>  (202) 
nan

>  <Num_H_Atoms_ProtBoundConf>  (202) 
nan

>  <Num_Resolved_Atoms>  (202) 
nan

>  <Num_Not_Resolved_Atoms>  (202) 
nan

$$$$
CHEMBL4225287
     RDKit          3D

  0  0  0  0  0  0  0  0  0  0999 V3000
M  V30 BEGIN CTAB
M  V30 COUNTS 48 51 0 0 0
M  V30 BEGIN ATOM
M  V30 1 C 1.180179 -4.139424 0.952095 0
M  V30 2 C 2.534334 -4.280176 1.634743 0
M  V30 3 C 2.520932 -3.796267 3.051917 0
M  V30 4 N 3.591386 -3.645696 0.849862 0
M  V30 5 C 3.629369 -2.285629 0.497627 0
M  V30 6 C 4.647962 -1.724337 -0.244963 0
M  V30 7 C 4.689855 -0.391619 -0.593457 0
M  V30 8 C 3.685449 0.469638 -0.204679 0
M  V30 9 C 3.489615 1.817847 -0.415332 0
M  V30 10 C 2.300135 2.101430 0.223878 0
M  V30 11 N 1.806701 0.985395 0.788462 0
M  V30 12 C 0.580842 0.897455 1.539540 0
M  V30 13 C 0.615137 0.740589 2.908368 0
M  V30 14 N -0.554455 0.659489 3.602611 0
M  V30 15 C -1.715982 0.734177 2.937873 0
M  V30 16 C -1.799879 0.890082 1.577004 0
M  V30 17 C -3.042089 0.975660 0.820459 0
M  V30 18 C -2.930311 1.132678 -0.544869 0
M  V30 19 C -4.069997 1.221471 -1.322356 0
M  V30 20 C -5.325339 1.154506 -0.745300 0
M  V30 21 C -6.578073 1.240686 -1.499807 0
M  V30 22 O -7.723412 1.181185 -0.980721 0
M  V30 23 O -6.555188 1.398735 -2.882024 0
M  V30 24 C -5.409163 0.997984 0.615489 0
M  V30 25 C -4.268758 0.906275 1.418256 0
M  V30 26 N -0.624533 0.966127 0.926805 0
M  V30 27 C 2.642132 -0.039489 0.539942 0
M  V30 28 C 2.656537 -1.376774 0.856017 0
M  V30 29 H 0.745924 -5.103318 0.637687 0
M  V30 30 H 1.307652 -3.549012 0.006870 0
M  V30 31 H 0.425924 -3.646185 1.589690 0
M  V30 32 H 2.728873 -5.378070 1.646995 0
M  V30 33 H 1.652137 -3.160412 3.319151 0
M  V30 34 H 2.484418 -4.669991 3.728946 0
M  V30 35 H 3.437131 -3.189086 3.209664 0
M  V30 36 H 4.407703 -4.235230 0.505483 0
M  V30 37 H 5.475005 -2.355690 -0.584092 0
M  V30 38 H 5.531835 -0.033294 -1.181462 0
M  V30 39 H 4.137378 2.510614 -0.969006 0
M  V30 40 H 1.861933 3.090286 0.244854 0
M  V30 41 H 1.579335 0.684473 3.409150 0
M  V30 42 H -2.630858 0.668224 3.502671 0
M  V30 43 H -2.006248 1.198239 -1.111504 0
M  V30 44 H -4.088076 1.346607 -2.410413 0
M  V30 45 H -7.344008 1.829668 -3.382396 0
M  V30 46 H -6.358416 0.939660 1.118761 0
M  V30 47 H -4.380907 0.785756 2.466394 0
M  V30 48 H 1.803905 -1.692450 1.439843 0
M  V30 END ATOM
M  V30 BEGIN BOND
M  V30 1 1 1 2
M  V30 2 1 2 3
M  V30 3 1 2 4
M  V30 4 1 4 5
M  V30 5 2 5 6
M  V30 6 1 6 7
M  V30 7 2 7 8
M  V30 8 1 8 9
M  V30 9 2 9 10
M  V30 10 1 10 11
M  V30 11 1 11 12
M  V30 12 2 12 13
M  V30 13 1 13 14
M  V30 14 2 14 15
M  V30 15 1 15 16
M  V30 16 1 16 17
M  V30 17 2 17 18
M  V30 18 1 18 19
M  V30 19 2 19 20
M  V30 20 1 20 21
M  V30 21 2 21 22
M  V30 22 1 21 23
M  V30 23 1 20 24
M  V30 24 2 24 25
M  V30 25 2 16 26
M  V30 26 1 11 27
M  V30 27 2 27 28
M  V30 28 1 28 5
M  V30 29 1 27 8
M  V30 30 1 26 12
M  V30 31 1 25 17
M  V30 32 1 1 29
M  V30 33 1 1 30
M  V30 34 1 1 31
M  V30 35 1 2 32
M  V30 36 1 3 33
M  V30 37 1 3 34
M  V30 38 1 3 35
M  V30 39 1 4 36
M  V30 40 1 6 37
M  V30 41 1 7 38
M  V30 42 1 9 39
M  V30 43 1 10 40
M  V30 44 1 13 41
M  V30 45 1 15 42
M  V30 46 1 18 43
M  V30 47 1 19 44
M  V30 48 1 23 45
M  V30 49 1 24 46
M  V30 50 1 25 47
M  V30 51 1 28 48
M  V30 END BOND
M  V30 END CTAB
M  END
>  <Dataset>  (203) 
ChEMBL_Kinases

>  <Ligand_Instance>  (203) 
nan

>  <PDB_ID>  (203) 
nan

>  <Standardized_SMILES>  (203) 
CC(C)Nc1ccc2ccn(-c3cncc(-c4ccc(C(=O)O)cc4)n3)c2c1

>  <Name>  (203) 
nan

>  <Pocket>  (203) 
nan

>  <ATP_Site>  (203) 
nan

>  <Peripheral>  (203) 
nan

>  <Num_H_Atoms_ProtBoundConf>  (203) 
nan

>  <Num_Resolved_Atoms>  (203) 
nan

>  <Num_Not_Resolved_Atoms>  (203) 
nan

$$$$
CHEMBL4778742
     RDKit          3D

  0  0  0  0  0  0  0  0  0  0999 V3000
M  V30 BEGIN CTAB
M  V30 COUNTS 47 52 0 0 0
M  V30 BEGIN ATOM
M  V30 1 C 0.277704 -5.182105 0.799436 0
M  V30 2 C 0.958846 -4.277991 1.773167 0
M  V30 3 C 1.759508 -4.611756 2.839130 0
M  V30 4 C 2.266572 -3.574506 3.580917 0
M  V30 5 C 1.979108 -2.314076 3.259270 0
M  V30 6 C 2.370597 -1.068577 3.856868 0
M  V30 7 N 3.172241 -1.133513 4.932854 0
M  V30 8 C 3.604471 -0.030511 5.572248 0
M  V30 9 C 3.195449 1.186943 5.085099 0
M  V30 10 C 2.371399 1.249390 3.978617 0
M  V30 11 N 1.818819 2.289020 3.285640 0
M  V30 12 C 1.065389 1.837635 2.246432 0
M  V30 13 C 0.379860 2.751990 1.352367 0
M  V30 14 N 0.425344 4.090809 1.459542 0
M  V30 15 N -0.294741 4.652997 0.504192 0
M  V30 16 C -0.808903 3.658050 -0.225010 0
M  V30 17 C -1.641598 3.712916 -1.346120 0
M  V30 18 C -2.023001 2.488058 -1.898563 0
M  V30 19 C -1.610505 1.277506 -1.379842 0
M  V30 20 C -2.052081 0.040238 -1.998877 0
M  V30 21 C -2.864597 -0.015135 -3.104687 0
M  V30 22 N -3.287258 -1.148015 -3.682673 0
M  V30 23 C -2.946193 -2.377867 -3.221511 0
M  V30 24 C -2.116980 -2.366625 -2.093042 0
M  V30 25 N -1.738135 -3.635092 -1.580469 0
M  V30 26 C -1.692326 -1.196901 -1.512508 0
M  V30 27 N -0.811120 1.296040 -0.302112 0
M  V30 28 C -0.411599 2.437593 0.271876 0
M  V30 29 N 1.141888 0.498146 2.282101 0
M  V30 30 C 1.927265 0.117715 3.321713 0
M  V30 31 S 0.899810 -2.472732 1.789928 0
M  V30 32 H 0.436228 -4.694871 -0.201094 0
M  V30 33 H -0.784495 -5.321341 1.012930 0
M  V30 34 H 0.880311 -6.112727 0.773245 0
M  V30 35 H 1.943702 -5.674647 3.031807 0
M  V30 36 H 2.917003 -3.772682 4.450889 0
M  V30 37 H 4.248648 -0.194654 6.424824 0
M  V30 38 H 3.532362 2.070574 5.584678 0
M  V30 39 H 2.016100 3.271281 3.601440 0
M  V30 40 H -0.454920 5.668389 0.322162 0
M  V30 41 H -1.955230 4.675876 -1.737286 0
M  V30 42 H -2.662288 2.616793 -2.756543 0
M  V30 43 H -3.214936 0.883594 -3.582176 0
M  V30 44 H -3.289126 -3.282119 -3.691742 0
M  V30 45 H -1.666314 -4.472790 -2.230040 0
M  V30 46 H -1.630605 -4.528187 -2.101280 0
M  V30 47 H -1.041590 -1.256404 -0.626202 0
M  V30 END ATOM
M  V30 BEGIN BOND
M  V30 1 1 1 2
M  V30 2 2 2 3
M  V30 3 1 3 4
M  V30 4 2 4 5
M  V30 5 1 5 6
M  V30 6 2 6 7
M  V30 7 1 7 8
M  V30 8 2 8 9
M  V30 9 1 9 10
M  V30 10 1 10 11
M  V30 11 1 11 12
M  V30 12 1 12 13
M  V30 13 2 13 14
M  V30 14 1 14 15
M  V30 15 1 15 16
M  V30 16 2 16 17
M  V30 17 1 17 18
M  V30 18 2 18 19
M  V30 19 1 19 20
M  V30 20 2 20 21
M  V30 21 1 21 22
M  V30 22 2 22 23
M  V30 23 1 23 24
M  V30 24 1 24 25
M  V30 25 2 24 26
M  V30 26 1 19 27
M  V30 27 2 27 28
M  V30 28 2 12 29
M  V30 29 1 29 30
M  V30 30 1 5 31
M  V30 31 1 31 2
M  V30 32 1 30 6
M  V30 33 2 30 10
M  V30 34 1 28 13
M  V30 35 1 28 16
M  V30 36 1 26 20
M  V30 37 1 1 32
M  V30 38 1 1 33
M  V30 39 1 1 34
M  V30 40 1 3 35
M  V30 41 1 4 36
M  V30 42 1 8 37
M  V30 43 1 9 38
M  V30 44 1 11 39
M  V30 45 1 15 40
M  V30 46 1 17 41
M  V30 47 1 18 42
M  V30 48 1 21 43
M  V30 49 1 23 44
M  V30 50 1 25 45
M  V30 51 1 25 46
M  V30 52 1 26 47
M  V30 END BOND
M  V30 END CTAB
M  END
>  <Dataset>  (204) 
ChEMBL_Kinases

>  <Ligand_Instance>  (204) 
nan

>  <PDB_ID>  (204) 
nan

>  <Standardized_SMILES>  (204) 
Cc1ccc(-c2nccc3[nH]c(-c4n[nH]c5ccc(-c6cncc(N)c6)nc45)nc23)s1

>  <Name>  (204) 
nan

>  <Pocket>  (204) 
nan

>  <ATP_Site>  (204) 
nan

>  <Peripheral>  (204) 
nan

>  <Num_H_Atoms_ProtBoundConf>  (204) 
nan

>  <Num_Resolved_Atoms>  (204) 
nan

>  <Num_Not_Resolved_Atoms>  (204) 
nan

$$$$
CHEMBL4778645
     RDKit          3D

  0  0  0  0  0  0  0  0  0  0999 V3000
M  V30 BEGIN CTAB
M  V30 COUNTS 44 47 0 0 0
M  V30 BEGIN ATOM
M  V30 1 O -0.061011 -3.489270 0.662234 0
M  V30 2 C 0.490736 -4.393450 -0.015049 0
M  V30 3 N 1.679655 -4.040344 -0.712249 0
M  V30 4 C 2.316126 -2.765445 -0.726170 0
M  V30 5 C 3.464736 -2.404772 -1.398478 0
M  V30 6 N 3.707587 -1.111292 -1.134260 0
M  V30 7 N 2.795010 -0.590821 -0.330656 0
M  V30 8 C 2.710614 0.742623 0.172417 0
M  V30 9 C 3.919127 1.305134 0.636115 0
M  V30 10 S 3.360875 3.031387 1.196292 0
M  V30 11 C 1.706071 2.766221 0.758327 0
M  V30 12 C 0.567145 3.749348 0.911665 0
M  V30 13 O -0.652103 3.555745 0.589713 0
M  V30 14 N 0.892667 4.991311 1.461954 0
M  V30 15 C -0.153113 5.965893 1.631073 0
M  V30 16 C 0.210131 7.243008 0.903192 0
M  V30 17 O 0.333699 7.943351 2.099816 0
M  V30 18 C -0.113824 6.843810 2.832913 0
M  V30 19 C 1.606249 1.553710 0.265362 0
M  V30 20 C 1.945246 -1.603815 -0.082364 0
M  V30 21 N -0.037985 -5.710697 -0.089536 0
M  V30 22 C -1.239281 -5.971797 0.644666 0
M  V30 23 C -2.355427 -5.712372 -0.159120 0
M  V30 24 F -2.341473 -5.279290 -1.442114 0
M  V30 25 C -3.634048 -5.894099 0.338991 0
M  V30 26 C -3.803087 -6.339446 1.653071 0
M  V30 27 C -2.687464 -6.587066 2.421840 0
M  V30 28 C -1.408162 -6.411121 1.940868 0
M  V30 29 Cl 0.081822 -6.681510 2.787954 0
M  V30 30 H 2.115936 -4.808293 -1.264808 0
M  V30 31 H 4.074742 -3.041368 -2.032261 0
M  V30 32 H 4.939582 0.869776 0.672636 0
M  V30 33 H 1.853566 5.314784 1.781959 0
M  V30 34 H -1.158878 5.645568 1.305974 0
M  V30 35 H -0.541076 7.613941 0.193274 0
M  V30 36 H 1.210958 7.225233 0.385949 0
M  V30 37 H 0.629092 6.629600 3.621668 0
M  V30 38 H -1.120726 7.100393 3.262409 0
M  V30 39 H 0.647027 1.137964 -0.090851 0
M  V30 40 H 1.084831 -1.464741 0.558121 0
M  V30 41 H 0.446414 -6.448216 -0.664049 0
M  V30 42 H -4.559188 -5.725438 -0.189489 0
M  V30 43 H -4.789465 -6.491686 2.073137 0
M  V30 44 H -2.735447 -6.933272 3.445450 0
M  V30 END ATOM
M  V30 BEGIN BOND
M  V30 1 2 1 2
M  V30 2 1 2 3
M  V30 3 1 3 4
M  V30 4 1 4 5
M  V30 5 2 5 6
M  V30 6 1 6 7
M  V30 7 1 7 8
M  V30 8 2 8 9
M  V30 9 1 9 10
M  V30 10 1 10 11
M  V30 11 1 11 12
M  V30 12 2 12 13
M  V30 13 1 12 14
M  V30 14 1 14 15
M  V30 15 1 15 16
M  V30 16 1 16 17
M  V30 17 1 17 18
M  V30 18 2 11 19
M  V30 19 1 7 20
M  V30 20 1 2 21
M  V30 21 1 21 22
M  V30 22 2 22 23
M  V30 23 1 23 24
M  V30 24 1 23 25
M  V30 25 2 25 26
M  V30 26 1 26 27
M  V30 27 2 27 28
M  V30 28 1 28 29
M  V30 29 2 20 4
M  V30 30 1 28 22
M  V30 31 1 19 8
M  V30 32 1 18 15
M  V30 33 1 3 30
M  V30 34 1 5 31
M  V30 35 1 9 32
M  V30 36 1 14 33
M  V30 37 1 15 34
M  V30 38 1 16 35
M  V30 39 1 16 36
M  V30 40 1 18 37
M  V30 41 1 18 38
M  V30 42 1 19 39
M  V30 43 1 20 40
M  V30 44 1 21 41
M  V30 45 1 25 42
M  V30 46 1 26 43
M  V30 47 1 27 44
M  V30 END BOND
M  V30 END CTAB
M  END
>  <Dataset>  (205) 
ChEMBL_Kinases

>  <Ligand_Instance>  (205) 
nan

>  <PDB_ID>  (205) 
nan

>  <Standardized_SMILES>  (205) 
O=C(Nc1cnn(-c2csc(C(=O)NC3COC3)c2)c1)Nc1c(F)cccc1Cl

>  <Name>  (205) 
nan

>  <Pocket>  (205) 
nan

>  <ATP_Site>  (205) 
nan

>  <Peripheral>  (205) 
nan

>  <Num_H_Atoms_ProtBoundConf>  (205) 
nan

>  <Num_Resolved_Atoms>  (205) 
nan

>  <Num_Not_Resolved_Atoms>  (205) 
nan

$$$$
CHEMBL4778624
     RDKit          3D

  0  0  0  0  0  0  0  0  0  0999 V3000
M  V30 BEGIN CTAB
M  V30 COUNTS 47 52 0 0 0
M  V30 BEGIN ATOM
M  V30 1 C -2.614746 2.779585 2.023079 0
M  V30 2 C -1.320865 3.111097 1.535818 0
M  V30 3 C -0.692585 4.299821 1.350938 0
M  V30 4 C 0.579382 4.390879 0.860869 0
M  V30 5 C 1.205182 3.158569 0.555884 0
M  V30 6 C 2.521393 2.747781 0.023561 0
M  V30 7 N 3.379367 3.721695 -0.261993 0
M  V30 8 C 4.621336 3.437447 -0.759261 0
M  V30 9 C 4.920654 2.094265 -0.942225 0
M  V30 10 C 4.001882 1.113038 -0.633379 0
M  V30 11 N 4.045111 -0.248319 -0.717560 0
M  V30 12 C 2.892605 -0.798107 -0.296382 0
M  V30 13 C 2.592529 -2.224088 -0.250060 0
M  V30 14 N 3.475066 -3.160167 -0.639685 0
M  V30 15 N 2.924247 -4.375538 -0.485427 0
M  V30 16 C 1.674521 -4.187140 0.010135 0
M  V30 17 C 0.617447 -5.011650 0.380697 0
M  V30 18 N -0.543792 -4.528688 0.856384 0
M  V30 19 C -0.783177 -3.211174 1.014622 0
M  V30 20 C -2.052769 -2.740892 1.531876 0
M  V30 21 C -2.380742 -1.415598 1.724965 0
M  V30 22 N -3.567103 -1.053005 2.204553 0
M  V30 23 C -4.555235 -1.898891 2.547315 0
M  V30 24 C -4.249510 -3.251856 2.361518 0
M  V30 25 N -5.256560 -4.192599 2.706948 0
M  V30 26 C -3.026710 -3.658996 1.865547 0
M  V30 27 C 0.230927 -2.345758 0.662799 0
M  V30 28 C 1.426285 -2.822429 0.174147 0
M  V30 29 N 2.086557 0.238455 0.068488 0
M  V30 30 C 2.729988 1.400213 -0.124339 0
M  V30 31 S -0.072789 1.855039 0.987648 0
M  V30 32 H -2.637105 1.683628 2.297811 0
M  V30 33 H -3.391286 2.931077 1.268558 0
M  V30 34 H -2.905301 3.281228 2.985624 0
M  V30 35 H -1.213534 5.214193 1.599256 0
M  V30 36 H 1.185732 5.255969 0.668349 0
M  V30 37 H 5.264762 4.271049 -0.968289 0
M  V30 38 H 5.899536 1.858727 -1.334714 0
M  V30 39 H 4.894190 -0.770082 -1.073718 0
M  V30 40 H 3.283146 -5.340190 -0.672721 0
M  V30 41 H 0.767386 -6.077225 0.269697 0
M  V30 42 H -1.667534 -0.667512 1.484350 0
M  V30 43 H -5.505824 -1.606193 2.931698 0
M  V30 44 H -5.889979 -4.119769 3.537692 0
M  V30 45 H -5.601079 -5.084672 2.298701 0
M  V30 46 H -2.829474 -4.708742 1.736934 0
M  V30 47 H 0.128556 -1.288752 0.754887 0
M  V30 END ATOM
M  V30 BEGIN BOND
M  V30 1 1 1 2
M  V30 2 2 2 3
M  V30 3 1 3 4
M  V30 4 2 4 5
M  V30 5 1 5 6
M  V30 6 2 6 7
M  V30 7 1 7 8
M  V30 8 2 8 9
M  V30 9 1 9 10
M  V30 10 1 10 11
M  V30 11 1 11 12
M  V30 12 1 12 13
M  V30 13 2 13 14
M  V30 14 1 14 15
M  V30 15 1 15 16
M  V30 16 2 16 17
M  V30 17 1 17 18
M  V30 18 2 18 19
M  V30 19 1 19 20
M  V30 20 2 20 21
M  V30 21 1 21 22
M  V30 22 2 22 23
M  V30 23 1 23 24
M  V30 24 1 24 25
M  V30 25 2 24 26
M  V30 26 1 19 27
M  V30 27 2 27 28
M  V30 28 2 12 29
M  V30 29 1 29 30
M  V30 30 1 5 31
M  V30 31 1 31 2
M  V30 32 1 30 6
M  V30 33 2 30 10
M  V30 34 1 28 13
M  V30 35 1 28 16
M  V30 36 1 26 20
M  V30 37 1 1 32
M  V30 38 1 1 33
M  V30 39 1 1 34
M  V30 40 1 3 35
M  V30 41 1 4 36
M  V30 42 1 8 37
M  V30 43 1 9 38
M  V30 44 1 11 39
M  V30 45 1 15 40
M  V30 46 1 17 41
M  V30 47 1 21 42
M  V30 48 1 23 43
M  V30 49 1 25 44
M  V30 50 1 25 45
M  V30 51 1 26 46
M  V30 52 1 27 47
M  V30 END BOND
M  V30 END CTAB
M  END
>  <Dataset>  (206) 
ChEMBL_Kinases

>  <Ligand_Instance>  (206) 
nan

>  <PDB_ID>  (206) 
nan

>  <Standardized_SMILES>  (206) 
Cc1ccc(-c2nccc3[nH]c(-c4n[nH]c5cnc(-c6cncc(N)c6)cc45)nc23)s1

>  <Name>  (206) 
nan

>  <Pocket>  (206) 
nan

>  <ATP_Site>  (206) 
nan

>  <Peripheral>  (206) 
nan

>  <Num_H_Atoms_ProtBoundConf>  (206) 
nan

>  <Num_Resolved_Atoms>  (206) 
nan

>  <Num_Not_Resolved_Atoms>  (206) 
nan

$$$$
CHEMBL4778616
     RDKit          3D

  0  0  0  0  0  0  0  0  0  0999 V3000
M  V30 BEGIN CTAB
M  V30 COUNTS 45 50 0 0 0
M  V30 BEGIN ATOM
M  V30 1 F 4.903215 3.206711 6.298914 0
M  V30 2 C 3.960592 2.301404 5.941318 0
M  V30 3 C 2.808764 2.020285 6.682209 0
M  V30 4 C 1.936898 1.074826 6.197296 0
M  V30 5 C 2.150361 0.401201 5.023997 0
M  V30 6 C 3.290946 0.674355 4.282917 0
M  V30 7 C 3.454497 -0.081695 3.045157 0
M  V30 8 C 4.670385 -0.666092 2.671258 0
M  V30 9 N 4.754388 -1.357689 1.505559 0
M  V30 10 C 3.708692 -1.516374 0.669456 0
M  V30 11 C 2.518560 -0.931953 1.056880 0
M  V30 12 N 1.310984 -0.896871 0.473578 0
M  V30 13 C 0.388299 -0.223689 1.159606 0
M  V30 14 C -1.014635 0.118131 1.009815 0
M  V30 15 N -1.761354 0.843514 1.880203 0
M  V30 16 N -2.997410 0.980354 1.459510 0
M  V30 17 C -3.167518 0.358335 0.280379 0
M  V30 18 N -4.231089 0.221376 -0.527534 0
M  V30 19 C -4.144235 -0.468276 -1.688352 0
M  V30 20 C -2.899235 -1.026462 -1.999790 0
M  V30 21 C -2.753223 -1.789459 -3.258740 0
M  V30 22 C -1.831547 -2.830888 -3.241859 0
M  V30 23 C -1.617264 -3.607877 -4.368977 0
M  V30 24 C -2.333855 -3.332124 -5.510934 0
M  V30 25 N -3.219681 -2.320312 -5.503733 0
M  V30 26 C -3.448693 -1.545667 -4.417297 0
M  V30 27 C -1.820923 -0.872915 -1.154764 0
M  V30 28 C -1.926204 -0.169486 0.019779 0
M  V30 29 N 1.078348 0.183511 2.241036 0
M  V30 30 C 2.354591 -0.216339 2.222012 0
M  V30 31 C 4.172865 1.624460 4.764568 0
M  V30 32 H 2.700923 2.591631 7.604545 0
M  V30 33 H 1.080819 0.928968 6.837980 0
M  V30 34 H 1.410513 -0.323641 4.722419 0
M  V30 35 H 5.527908 -0.557374 3.319058 0
M  V30 36 H 3.761854 -2.064841 -0.262045 0
M  V30 37 H 1.121245 -1.357020 -0.433577 0
M  V30 38 H -3.687096 1.518635 2.033113 0
M  V30 39 H -4.972868 -0.604563 -2.369965 0
M  V30 40 H -1.224073 -3.114092 -2.376221 0
M  V30 41 H -0.911119 -4.436929 -4.421318 0
M  V30 42 H -2.264576 -3.858473 -6.455954 0
M  V30 43 H -4.156947 -0.728558 -4.395467 0
M  V30 44 H -0.899614 -1.317318 -1.439802 0
M  V30 45 H 5.046342 1.796272 4.143914 0
M  V30 END ATOM
M  V30 BEGIN BOND
M  V30 1 1 1 2
M  V30 2 2 2 3
M  V30 3 1 3 4
M  V30 4 2 4 5
M  V30 5 1 5 6
M  V30 6 1 6 7
M  V30 7 2 7 8
M  V30 8 1 8 9
M  V30 9 2 9 10
M  V30 10 1 10 11
M  V30 11 1 11 12
M  V30 12 1 12 13
M  V30 13 1 13 14
M  V30 14 2 14 15
M  V30 15 1 15 16
M  V30 16 1 16 17
M  V30 17 2 17 18
M  V30 18 1 18 19
M  V30 19 2 19 20
M  V30 20 1 20 21
M  V30 21 2 21 22
M  V30 22 1 22 23
M  V30 23 2 23 24
M  V30 24 1 24 25
M  V30 25 2 25 26
M  V30 26 1 20 27
M  V30 27 2 27 28
M  V30 28 2 13 29
M  V30 29 1 29 30
M  V30 30 2 6 31
M  V30 31 1 31 2
M  V30 32 1 30 7
M  V30 33 2 30 11
M  V30 34 1 28 14
M  V30 35 1 28 17
M  V30 36 1 26 21
M  V30 37 1 3 32
M  V30 38 1 4 33
M  V30 39 1 5 34
M  V30 40 1 8 35
M  V30 41 1 10 36
M  V30 42 1 12 37
M  V30 43 1 16 38
M  V30 44 1 19 39
M  V30 45 1 22 40
M  V30 46 1 23 41
M  V30 47 1 24 42
M  V30 48 1 26 43
M  V30 49 1 27 44
M  V30 50 1 31 45
M  V30 END BOND
M  V30 END CTAB
M  END
>  <Dataset>  (207) 
ChEMBL_Kinases

>  <Ligand_Instance>  (207) 
nan

>  <PDB_ID>  (207) 
nan

>  <Standardized_SMILES>  (207) 
Fc1cccc(-c2cncc3[nH]c(-c4n[nH]c5ncc(-c6cccnc6)cc45)nc23)c1

>  <Name>  (207) 
nan

>  <Pocket>  (207) 
nan

>  <ATP_Site>  (207) 
nan

>  <Peripheral>  (207) 
nan

>  <Num_H_Atoms_ProtBoundConf>  (207) 
nan

>  <Num_Resolved_Atoms>  (207) 
nan

>  <Num_Not_Resolved_Atoms>  (207) 
nan

$$$$
CHEMBL4778580
     RDKit          3D

  0  0  0  0  0  0  0  0  0  0999 V3000
M  V30 BEGIN CTAB
M  V30 COUNTS 56 60 0 0 0
M  V30 BEGIN ATOM
M  V30 1 C 3.470084 1.450628 7.839791 0
M  V30 2 N 2.765658 0.451348 7.117529 0
M  V30 3 C 3.364041 -0.833646 7.004245 0
M  V30 4 C 3.876659 -1.166197 5.641128 0
M  V30 5 N 2.969013 -0.685901 4.619774 0
M  V30 6 C 3.065883 -1.375014 3.353129 0
M  V30 7 C 2.286544 -1.016154 2.293164 0
M  V30 8 C 2.319566 -1.601829 1.056676 0
M  V30 9 C 1.446038 -1.200179 -0.079080 0
M  V30 10 O 0.566337 -0.392424 0.364714 0
M  V30 11 N 1.643806 -1.692597 -1.419902 0
M  V30 12 C 0.615539 -1.054720 -2.173478 0
M  V30 13 N 1.066826 0.125310 -2.626568 0
M  V30 14 C 0.322010 0.960219 -3.377978 0
M  V30 15 C -0.972317 0.476771 -3.642184 0
M  V30 16 C -1.860946 1.215165 -4.399967 0
M  V30 17 C -3.162317 0.797761 -4.703035 0
M  V30 18 C -3.537898 -0.433503 -4.191245 0
M  V30 19 C -4.900345 -0.782881 -4.551233 0
M  V30 20 C -6.010093 0.047477 -4.748254 0
M  V30 21 N -7.113962 -0.657551 -5.085195 0
M  V30 22 N -6.779388 -1.964615 -5.123525 0
M  V30 23 C -7.719044 -3.019654 -5.456356 0
M  V30 24 C -5.483475 -1.995362 -4.806248 0
M  V30 25 C -2.724564 -1.233802 -3.430850 0
M  V30 26 C -1.474586 -0.727583 -3.196106 0
M  V30 27 N -0.645372 -1.518601 -2.433487 0
M  V30 28 C 3.231599 -2.626803 0.936699 0
M  V30 29 C 4.043895 -3.029937 1.984893 0
M  V30 30 N 3.940647 -2.394488 3.166619 0
M  V30 31 C 2.003035 0.388040 4.749524 0
M  V30 32 C 1.827131 0.830240 6.150413 0
M  V30 33 H 4.536798 1.252599 7.969188 0
M  V30 34 H 3.333762 2.420452 7.288633 0
M  V30 35 H 3.037470 1.581584 8.875268 0
M  V30 36 H 2.610557 -1.582723 7.308666 0
M  V30 37 H 4.198951 -0.870709 7.734795 0
M  V30 38 H 4.087330 -2.232387 5.542020 0
M  V30 39 H 4.853818 -0.626638 5.431003 0
M  V30 40 H 1.604185 -0.204419 2.462678 0
M  V30 41 H 2.441260 -2.318034 -1.394661 0
M  V30 42 H 0.631606 1.906693 -3.767086 0
M  V30 43 H -1.457278 2.184918 -4.753848 0
M  V30 44 H -3.772811 1.457043 -5.313708 0
M  V30 45 H -5.990127 1.142898 -4.640242 0
M  V30 46 H -8.330905 -3.299078 -4.580335 0
M  V30 47 H -8.446941 -2.664216 -6.224447 0
M  V30 48 H -7.205328 -3.919587 -5.878811 0
M  V30 49 H -4.937061 -2.958133 -4.761610 0
M  V30 50 H -3.070249 -2.177050 -3.063889 0
M  V30 51 H 3.404090 -3.206109 0.061777 0
M  V30 52 H 4.764807 -3.833331 1.919567 0
M  V30 53 H 2.296785 1.212677 4.057784 0
M  V30 54 H 0.992047 0.055901 4.369837 0
M  V30 55 H 1.796818 1.958901 6.113862 0
M  V30 56 H 0.803916 0.573369 6.532798 0
M  V30 END ATOM
M  V30 BEGIN BOND
M  V30 1 1 1 2
M  V30 2 1 2 3
M  V30 3 1 3 4
M  V30 4 1 4 5
M  V30 5 1 5 6
M  V30 6 2 6 7
M  V30 7 1 7 8
M  V30 8 1 8 9
M  V30 9 2 9 10
M  V30 10 1 9 11
M  V30 11 1 11 12
M  V30 12 2 12 13
M  V30 13 1 13 14
M  V30 14 2 14 15
M  V30 15 1 15 16
M  V30 16 2 16 17
M  V30 17 1 17 18
M  V30 18 1 18 19
M  V30 19 1 19 20
M  V30 20 2 20 21
M  V30 21 1 21 22
M  V30 22 1 22 23
M  V30 23 1 22 24
M  V30 24 2 18 25
M  V30 25 1 25 26
M  V30 26 2 26 27
M  V30 27 2 8 28
M  V30 28 1 28 29
M  V30 29 2 29 30
M  V30 30 1 5 31
M  V30 31 1 31 32
M  V30 32 1 32 2
M  V30 33 1 30 6
M  V30 34 1 27 12
M  V30 35 1 26 15
M  V30 36 2 24 19
M  V30 37 1 1 33
M  V30 38 1 1 34
M  V30 39 1 1 35
M  V30 40 1 3 36
M  V30 41 1 3 37
M  V30 42 1 4 38
M  V30 43 1 4 39
M  V30 44 1 7 40
M  V30 45 1 11 41
M  V30 46 1 14 42
M  V30 47 1 16 43
M  V30 48 1 17 44
M  V30 49 1 20 45
M  V30 50 1 23 46
M  V30 51 1 23 47
M  V30 52 1 23 48
M  V30 53 1 24 49
M  V30 54 1 25 50
M  V30 55 1 28 51
M  V30 56 1 29 52
M  V30 57 1 31 53
M  V30 58 1 31 54
M  V30 59 1 32 55
M  V30 60 1 32 56
M  V30 END BOND
M  V30 END CTAB
M  END
>  <Dataset>  (208) 
ChEMBL_Kinases

>  <Ligand_Instance>  (208) 
nan

>  <PDB_ID>  (208) 
nan

>  <Standardized_SMILES>  (208) 
CN1CCN(c2cc(C(=O)Nc3ncc4ccc(-c5cnn(C)c5)cc4n3)ccn2)CC1

>  <Name>  (208) 
nan

>  <Pocket>  (208) 
nan

>  <ATP_Site>  (208) 
nan

>  <Peripheral>  (208) 
nan

>  <Num_H_Atoms_ProtBoundConf>  (208) 
nan

>  <Num_Resolved_Atoms>  (208) 
nan

>  <Num_Not_Resolved_Atoms>  (208) 
nan

$$$$
CHEMBL4216507
     RDKit          3D

  0  0  0  0  0  0  0  0  0  0999 V3000
M  V30 BEGIN CTAB
M  V30 COUNTS 48 53 0 0 0
M  V30 BEGIN ATOM
M  V30 1 C -3.999384 1.220433 -0.022099 0
M  V30 2 O -2.628498 1.125729 -0.432499 0
M  V30 3 C -2.181856 -0.084394 -0.945124 0
M  V30 4 C -2.995227 -1.197367 -1.077295 0
M  V30 5 C -2.542203 -2.403301 -1.590340 0
M  V30 6 C -1.222325 -2.509739 -1.990371 0
M  V30 7 C -0.386348 -1.406772 -1.867685 0
M  V30 8 C -0.858945 -0.207519 -1.351360 0
M  V30 9 C 0.026148 0.965190 -1.219846 0
M  V30 10 C 0.280925 1.989364 -2.137958 0
M  V30 11 N 1.158319 2.847554 -1.583882 0
M  V30 12 N 1.487303 2.444542 -0.366983 0
M  V30 13 C 2.301927 2.912627 0.605128 0
M  V30 14 C 2.455699 2.255001 1.827283 0
M  V30 15 C 1.745566 1.071250 2.059895 0
M  V30 16 C 2.015257 0.509213 3.380321 0
M  V30 17 C 2.024654 1.351739 4.482094 0
M  V30 18 C 2.269042 0.912970 5.766250 0
M  V30 19 N 2.511130 -0.397777 5.965448 0
M  V30 20 C 2.515180 -1.262205 4.937057 0
M  V30 21 N 2.720877 -2.596394 4.835954 0
M  V30 22 C 2.614541 -3.005244 3.542449 0
M  V30 23 C 2.328369 -1.888325 2.777523 0
M  V30 24 C 2.269956 -0.820803 3.649886 0
M  V30 25 C 0.918399 0.605590 1.059407 0
M  V30 26 C 0.816427 1.305102 -0.117806 0
M  V30 27 C -1.021888 -3.893506 -2.490507 0
M  V30 28 N -2.053575 -4.670801 -1.792077 0
M  V30 29 C -3.173613 -3.732223 -1.842348 0
M  V30 30 H -4.157968 0.630810 0.918504 0
M  V30 31 H -4.224402 2.288711 0.113728 0
M  V30 32 H -4.665313 0.812771 -0.809174 0
M  V30 33 H -4.019754 -1.138290 -0.774340 0
M  V30 34 H 0.637756 -1.504042 -2.182799 0
M  V30 35 H -0.177856 2.039443 -3.122183 0
M  V30 36 H 2.852121 3.844574 0.404262 0
M  V30 37 H 3.139612 2.736234 2.520556 0
M  V30 38 H 1.830640 2.415167 4.338319 0
M  V30 39 H 2.279366 1.558839 6.634106 0
M  V30 40 H 2.935589 -3.242907 5.644495 0
M  V30 41 H 2.738747 -4.034986 3.206874 0
M  V30 42 H 2.183213 -1.879579 1.705865 0
M  V30 43 H 0.416510 -0.301716 1.322419 0
M  V30 44 H -0.013640 -4.244575 -2.206227 0
M  V30 45 H -1.113411 -3.998910 -3.579491 0
M  V30 46 H -1.770708 -4.785775 -0.790726 0
M  V30 47 H -3.603963 -3.816188 -2.840611 0
M  V30 48 H -3.918371 -3.986727 -1.069364 0
M  V30 END ATOM
M  V30 BEGIN BOND
M  V30 1 1 1 2
M  V30 2 1 2 3
M  V30 3 2 3 4
M  V30 4 1 4 5
M  V30 5 2 5 6
M  V30 6 1 6 7
M  V30 7 2 7 8
M  V30 8 1 8 9
M  V30 9 1 9 10
M  V30 10 2 10 11
M  V30 11 1 11 12
M  V30 12 1 12 13
M  V30 13 2 13 14
M  V30 14 1 14 15
M  V30 15 1 15 16
M  V30 16 2 16 17
M  V30 17 1 17 18
M  V30 18 2 18 19
M  V30 19 1 19 20
M  V30 20 1 20 21
M  V30 21 1 21 22
M  V30 22 2 22 23
M  V30 23 1 23 24
M  V30 24 2 15 25
M  V30 25 1 25 26
M  V30 26 1 6 27
M  V30 27 1 27 28
M  V30 28 1 28 29
M  V30 29 1 8 3
M  V30 30 2 26 9
M  V30 31 1 29 5
M  V30 32 1 26 12
M  V30 33 1 24 16
M  V30 34 2 24 20
M  V30 35 1 1 30
M  V30 36 1 1 31
M  V30 37 1 1 32
M  V30 38 1 4 33
M  V30 39 1 7 34
M  V30 40 1 10 35
M  V30 41 1 13 36
M  V30 42 1 14 37
M  V30 43 1 17 38
M  V30 44 1 18 39
M  V30 45 1 21 40
M  V30 46 1 22 41
M  V30 47 1 23 42
M  V30 48 1 25 43
M  V30 49 1 27 44
M  V30 50 1 27 45
M  V30 51 1 28 46
M  V30 52 1 29 47
M  V30 53 1 29 48
M  V30 END BOND
M  V30 END CTAB
M  END
>  <Dataset>  (209) 
ChEMBL_Kinases

>  <Ligand_Instance>  (209) 
nan

>  <PDB_ID>  (209) 
nan

>  <Standardized_SMILES>  (209) 
COc1cc2c(cc1-c1cnn3ccc(-c4ccnc5[nH]ccc45)cc13)CNC2

>  <Name>  (209) 
nan

>  <Pocket>  (209) 
nan

>  <ATP_Site>  (209) 
nan

>  <Peripheral>  (209) 
nan

>  <Num_H_Atoms_ProtBoundConf>  (209) 
nan

>  <Num_Resolved_Atoms>  (209) 
nan

>  <Num_Not_Resolved_Atoms>  (209) 
nan

$$$$
CHEMBL4216534
     RDKit          3D

  0  0  0  0  0  0  0  0  0  0999 V3000
M  V30 BEGIN CTAB
M  V30 COUNTS 75 80 0 0 0
M  V30 BEGIN ATOM
M  V30 1 C 6.213903 -4.156181 0.789398 0
M  V30 2 C 5.393595 -2.902467 0.823330 0
M  V30 3 N 5.220951 -2.071461 1.865816 0
M  V30 4 C 4.410099 -1.066351 1.472587 0
M  V30 5 C 3.909460 0.049834 2.129548 0
M  V30 6 F 4.207712 0.309397 3.423282 0
M  V30 7 C 3.089094 0.896379 1.415748 0
M  V30 8 C 2.739177 0.700229 0.096210 0
M  V30 9 C 1.872293 1.588162 -0.671322 0
M  V30 10 C 1.307484 2.731714 -0.145385 0
M  V30 11 C 0.483817 3.576901 -0.865592 0
M  V30 12 N -0.084043 4.766770 -0.275822 0
M  V30 13 C -1.235604 4.112277 0.298007 0
M  V30 14 C -2.461695 3.885026 -0.287671 0
M  V30 15 N -3.438601 3.255819 0.386750 0
M  V30 16 C -3.250944 2.827218 1.656326 0
M  V30 17 C -4.299048 2.134569 2.444416 0
M  V30 18 N -4.369682 0.732260 2.256052 0
M  V30 19 C -3.212259 -0.037774 2.524441 0
M  V30 20 C -2.910910 -0.902830 1.286361 0
M  V30 21 N -3.963289 -1.786547 1.030229 0
M  V30 22 C -3.797351 -3.003019 0.384227 0
M  V30 23 C -3.238233 -2.968955 -1.003635 0
M  V30 24 C -2.525414 -4.316390 -1.190088 0
M  V30 25 C -1.795567 -4.374803 0.156922 0
M  V30 26 C -2.930406 -4.015766 1.090429 0
M  V30 27 C -5.243837 -1.272851 1.287566 0
M  V30 28 C -5.244627 0.262420 1.237820 0
M  V30 29 C -2.022696 3.043691 2.274031 0
M  V30 30 N -1.069252 3.678628 1.561961 0
M  V30 31 N 0.228022 3.255246 -2.145164 0
M  V30 32 C 0.766538 2.146779 -2.680481 0
M  V30 33 N 1.575972 1.318557 -1.968891 0
M  V30 34 C 3.256073 -0.419178 -0.521860 0
M  V30 35 C 4.086904 -1.311540 0.137153 0
M  V30 36 N 4.711931 -2.459394 -0.240660 0
M  V30 37 C 4.631699 -3.060376 -1.566628 0
M  V30 38 C 3.197647 -3.305371 -1.959357 0
M  V30 39 C 5.351048 -2.130644 -2.539294 0
M  V30 40 H 6.935276 -4.101689 -0.062129 0
M  V30 41 H 5.585086 -5.054202 0.629511 0
M  V30 42 H 6.760763 -4.220821 1.756240 0
M  V30 43 H 2.707567 1.753427 1.927268 0
M  V30 44 H 1.497964 3.006903 0.873177 0
M  V30 45 H 0.230869 5.748689 -0.270003 0
M  V30 46 H -2.544781 4.251099 -1.297619 0
M  V30 47 H -4.097921 2.308215 3.543889 0
M  V30 48 H -5.312656 2.556672 2.264751 0
M  V30 49 H -3.407958 -0.692924 3.397705 0
M  V30 50 H -2.308784 0.538023 2.767452 0
M  V30 51 H -2.924092 -0.140262 0.446460 0
M  V30 52 H -1.900356 -1.304973 1.287760 0
M  V30 53 H -4.798795 -3.482560 0.307390 0
M  V30 54 H -4.049418 -2.945559 -1.782630 0
M  V30 55 H -2.496619 -2.208948 -1.219234 0
M  V30 56 H -3.246867 -5.160972 -1.223207 0
M  V30 57 H -1.836963 -4.298391 -2.038517 0
M  V30 58 H -1.385841 -5.363050 0.374405 0
M  V30 59 H -1.004696 -3.581532 0.165978 0
M  V30 60 H -3.456903 -4.951184 1.362623 0
M  V30 61 H -2.464948 -3.648316 2.021638 0
M  V30 62 H -5.765518 -1.629623 2.182385 0
M  V30 63 H -5.916210 -1.555138 0.428468 0
M  V30 64 H -4.962275 0.613645 0.231488 0
M  V30 65 H -6.265331 0.657733 1.423205 0
M  V30 66 H -1.740236 2.762167 3.281697 0
M  V30 67 H 0.622589 1.801194 -3.698026 0
M  V30 68 H 2.992257 -0.590230 -1.559115 0
M  V30 69 H 5.140835 -4.040372 -1.509355 0
M  V30 70 H 2.546601 -2.912732 -1.160653 0
M  V30 71 H 2.969578 -4.391016 -2.061285 0
M  V30 72 H 2.917490 -2.824126 -2.910436 0
M  V30 73 H 5.836667 -1.297139 -1.990643 0
M  V30 74 H 4.628985 -1.692715 -3.248978 0
M  V30 75 H 6.110801 -2.700387 -3.107570 0
M  V30 END ATOM
M  V30 BEGIN BOND
M  V30 1 1 1 2
M  V30 2 2 2 3
M  V30 3 1 3 4
M  V30 4 2 4 5
M  V30 5 1 5 6
M  V30 6 1 5 7
M  V30 7 2 7 8
M  V30 8 1 8 9
M  V30 9 2 9 10
M  V30 10 1 10 11
M  V30 11 1 11 12
M  V30 12 1 12 13
M  V30 13 2 13 14
M  V30 14 1 14 15
M  V30 15 2 15 16
M  V30 16 1 16 17
M  V30 17 1 17 18
M  V30 18 1 18 19
M  V30 19 1 19 20
M  V30 20 1 20 21
M  V30 21 1 21 22
M  V30 22 1 22 23
M  V30 23 1 23 24
M  V30 24 1 24 25
M  V30 25 1 25 26
M  V30 26 1 21 27
M  V30 27 1 27 28
M  V30 28 1 16 29
M  V30 29 2 29 30
M  V30 30 2 11 31
M  V30 31 1 31 32
M  V30 32 2 32 33
M  V30 33 1 8 34
M  V30 34 2 34 35
M  V30 35 1 35 36
M  V30 36 1 36 37
M  V30 37 1 37 38
M  V30 38 1 37 39
M  V30 39 1 36 2
M  V30 40 1 35 4
M  V30 41 1 33 9
M  V30 42 1 30 13
M  V30 43 1 28 18
M  V30 44 1 26 22
M  V30 45 1 1 40
M  V30 46 1 1 41
M  V30 47 1 1 42
M  V30 48 1 7 43
M  V30 49 1 10 44
M  V30 50 1 12 45
M  V30 51 1 14 46
M  V30 52 1 17 47
M  V30 53 1 17 48
M  V30 54 1 19 49
M  V30 55 1 19 50
M  V30 56 1 20 51
M  V30 57 1 20 52
M  V30 58 1 22 53
M  V30 59 1 23 54
M  V30 60 1 23 55
M  V30 61 1 24 56
M  V30 62 1 24 57
M  V30 63 1 25 58
M  V30 64 1 25 59
M  V30 65 1 26 60
M  V30 66 1 26 61
M  V30 67 1 27 62
M  V30 68 1 27 63
M  V30 69 1 28 64
M  V30 70 1 28 65
M  V30 71 1 29 66
M  V30 72 1 32 67
M  V30 73 1 34 68
M  V30 74 1 37 69
M  V30 75 1 38 70
M  V30 76 1 38 71
M  V30 77 1 38 72
M  V30 78 1 39 73
M  V30 79 1 39 74
M  V30 80 1 39 75
M  V30 END BOND
M  V30 END CTAB
M  END
>  <Dataset>  (210) 
ChEMBL_Kinases

>  <Ligand_Instance>  (210) 
nan

>  <PDB_ID>  (210) 
nan

>  <Standardized_SMILES>  (210) 
Cc1nc2c(F)cc(-c3cc(Nc4cnc(CN5CCN(C6CCCC6)CC5)cn4)ncn3)cc2n1C(C)C

>  <Name>  (210) 
nan

>  <Pocket>  (210) 
nan

>  <ATP_Site>  (210) 
nan

>  <Peripheral>  (210) 
nan

>  <Num_H_Atoms_ProtBoundConf>  (210) 
nan

>  <Num_Resolved_Atoms>  (210) 
nan

>  <Num_Not_Resolved_Atoms>  (210) 
nan

$$$$
CHEMBL180231
     RDKit          3D

  0  0  0  0  0  0  0  0  0  0999 V3000
M  V30 BEGIN CTAB
M  V30 COUNTS 71 78 0 0 0
M  V30 BEGIN ATOM
M  V30 1 O 4.837410 1.053917 -0.793202 0
M  V30 2 C 4.964120 -0.059086 -0.225051 0
M  V30 3 N 5.340195 -0.284006 1.044424 0
M  V30 4 C 5.345189 -1.612236 1.244146 0
M  V30 5 C 5.650971 -2.357318 2.353366 0
M  V30 6 C 5.580215 -3.725633 2.307902 0
M  V30 7 C 5.196379 -4.318496 1.124498 0
M  V30 8 C 4.897257 -3.567391 0.036542 0
M  V30 9 C 4.957334 -2.167850 0.042435 0
M  V30 10 N 4.714043 -1.198305 -0.892443 0
M  V30 11 C 4.292024 -1.574594 -2.223072 0
M  V30 12 C 4.523373 -0.445185 -3.170867 0
M  V30 13 C 3.357090 0.431656 -3.423773 0
M  V30 14 N 2.157768 0.148731 -2.753518 0
M  V30 15 C 1.548321 1.096432 -1.934104 0
M  V30 16 C 0.284197 0.689633 -1.280373 0
M  V30 17 C -0.945991 0.909492 -1.895080 0
M  V30 18 C -2.143313 0.543872 -1.318239 0
M  V30 19 C -2.178715 -0.067544 -0.082614 0
M  V30 20 C -3.298474 -0.532505 0.726684 0
M  V30 21 N -3.639133 -1.809770 0.982279 0
M  V30 22 C -4.688208 -2.153406 1.736374 0
M  V30 23 C -4.942194 -3.496333 1.929962 0
M  V30 24 C -6.047698 -3.822091 2.723420 0
M  V30 25 C -6.562219 -5.034239 3.102603 0
M  V30 26 N -7.641578 -4.821587 3.872490 0
M  V30 27 N -7.810505 -3.500607 3.981053 0
M  V30 28 C -6.857291 -2.852774 3.293724 0
M  V30 29 C -6.526185 -1.536845 3.045163 0
M  V30 30 C -5.453583 -1.144637 2.274454 0
M  V30 31 N -5.131693 0.138775 2.032399 0
M  V30 32 C -4.065431 0.477585 1.266235 0
M  V30 33 C -3.941005 1.924055 1.163034 0
M  V30 34 C -3.478603 2.441101 2.380911 0
M  V30 35 C -3.278368 3.806616 2.546553 0
M  V30 36 C -3.525977 4.693536 1.524632 0
M  V30 37 C -3.977070 4.154642 0.346927 0
M  V30 38 C -4.185983 2.821062 0.146415 0
M  V30 39 C -0.961359 -0.306570 0.568713 0
M  V30 40 C 0.242810 0.073474 -0.036612 0
M  V30 41 C 1.838381 -1.205552 -2.694179 0
M  V30 42 C 2.908750 -2.133564 -2.223644 0
M  V30 43 H 5.574355 0.480887 1.714285 0
M  V30 44 H 5.954934 -1.896488 3.292373 0
M  V30 45 H 5.822104 -4.317062 3.184697 0
M  V30 46 H 5.151170 -5.391381 1.125199 0
M  V30 47 H 4.599299 -4.058422 -0.878779 0
M  V30 48 H 4.985353 -2.390598 -2.538682 0
M  V30 49 H 5.377868 0.191994 -2.864947 0
M  V30 50 H 4.861257 -0.849430 -4.176020 0
M  V30 51 H 3.611886 1.514628 -3.204649 0
M  V30 52 H 3.127821 0.469876 -4.532937 0
M  V30 53 H 2.167665 1.565821 -1.141689 0
M  V30 54 H 1.261950 1.971037 -2.592554 0
M  V30 55 H -1.011361 1.381942 -2.863622 0
M  V30 56 H -3.127670 0.675394 -1.728454 0
M  V30 57 H -4.297515 -4.235579 1.475747 0
M  V30 58 H -6.171520 -6.000422 2.832045 0
M  V30 59 H -8.524858 -2.922359 4.486346 0
M  V30 60 H -7.142402 -0.777782 3.479480 0
M  V30 61 H -3.230377 1.881788 3.295315 0
M  V30 62 H -2.920852 4.249127 3.476284 0
M  V30 63 H -3.389907 5.749730 1.593849 0
M  V30 64 H -4.189651 4.790796 -0.489683 0
M  V30 65 H -4.538273 2.307226 -0.732251 0
M  V30 66 H -0.785460 -0.773527 1.539412 0
M  V30 67 H 1.219944 -0.080966 0.411537 0
M  V30 68 H 1.473076 -1.519706 -3.694614 0
M  V30 69 H 0.919016 -1.310553 -2.046213 0
M  V30 70 H 2.842918 -3.070257 -2.816175 0
M  V30 71 H 2.661256 -2.441601 -1.186268 0
M  V30 END ATOM
M  V30 BEGIN BOND
M  V30 1 2 1 2
M  V30 2 1 2 3
M  V30 3 1 3 4
M  V30 4 2 4 5
M  V30 5 1 5 6
M  V30 6 2 6 7
M  V30 7 1 7 8
M  V30 8 2 8 9
M  V30 9 1 9 10
M  V30 10 1 10 11
M  V30 11 1 11 12
M  V30 12 1 12 13
M  V30 13 1 13 14
M  V30 14 1 14 15
M  V30 15 1 15 16
M  V30 16 2 16 17
M  V30 17 1 17 18
M  V30 18 2 18 19
M  V30 19 1 19 20
M  V30 20 2 20 21
M  V30 21 1 21 22
M  V30 22 2 22 23
M  V30 23 1 23 24
M  V30 24 1 24 25
M  V30 25 2 25 26
M  V30 26 1 26 27
M  V30 27 1 27 28
M  V30 28 1 28 29
M  V30 29 2 29 30
M  V30 30 1 30 31
M  V30 31 2 31 32
M  V30 32 1 32 33
M  V30 33 2 33 34
M  V30 34 1 34 35
M  V30 35 2 35 36
M  V30 36 1 36 37
M  V30 37 2 37 38
M  V30 38 1 19 39
M  V30 39 2 39 40
M  V30 40 1 14 41
M  V30 41 1 41 42
M  V30 42 1 10 2
M  V30 43 1 42 11
M  V30 44 1 9 4
M  V30 45 1 40 16
M  V30 46 1 32 20
M  V30 47 1 38 33
M  V30 48 1 30 22
M  V30 49 2 28 24
M  V30 50 1 3 43
M  V30 51 1 5 44
M  V30 52 1 6 45
M  V30 53 1 7 46
M  V30 54 1 8 47
M  V30 55 1 11 48
M  V30 56 1 12 49
M  V30 57 1 12 50
M  V30 58 1 13 51
M  V30 59 1 13 52
M  V30 60 1 15 53
M  V30 61 1 15 54
M  V30 62 1 17 55
M  V30 63 1 18 56
M  V30 64 1 23 57
M  V30 65 1 25 58
M  V30 66 1 27 59
M  V30 67 1 29 60
M  V30 68 1 34 61
M  V30 69 1 35 62
M  V30 70 1 36 63
M  V30 71 1 37 64
M  V30 72 1 38 65
M  V30 73 1 39 66
M  V30 74 1 40 67
M  V30 75 1 41 68
M  V30 76 1 41 69
M  V30 77 1 42 70
M  V30 78 1 42 71
M  V30 END BOND
M  V30 END CTAB
M  END
>  <Dataset>  (211) 
ChEMBL_Kinases

>  <Ligand_Instance>  (211) 
nan

>  <PDB_ID>  (211) 
nan

>  <Standardized_SMILES>  (211) 
O=c1[nH]c2ccccc2n1C1CCN(Cc2ccc(-c3nc4cc5cn[nH]c5cc4nc3-c3ccccc3)cc2)CC1

>  <Name>  (211) 
nan

>  <Pocket>  (211) 
nan

>  <ATP_Site>  (211) 
nan

>  <Peripheral>  (211) 
nan

>  <Num_H_Atoms_ProtBoundConf>  (211) 
nan

>  <Num_Resolved_Atoms>  (211) 
nan

>  <Num_Not_Resolved_Atoms>  (211) 
nan

$$$$
CHEMBL1802357
     RDKit          3D

  0  0  0  0  0  0  0  0  0  0999 V3000
M  V30 BEGIN CTAB
M  V30 COUNTS 42 46 0 0 0
M  V30 BEGIN ATOM
M  V30 1 O 2.916582 -2.631640 5.262302 0
M  V30 2 C 2.590797 -2.182284 4.124849 0
M  V30 3 N 3.402249 -1.360758 3.269045 0
M  V30 4 C 2.657993 -1.078053 2.087470 0
M  V30 5 N 3.093340 -0.290943 0.998906 0
M  V30 6 C 2.288071 0.691335 0.370455 0
M  V30 7 C 1.031869 1.054434 0.801246 0
M  V30 8 C 0.288089 2.027012 0.170865 0
M  V30 9 C 0.809035 2.675898 -0.940796 0
M  V30 10 C 2.082524 2.344754 -1.422002 0
M  V30 11 C 2.772575 1.355599 -0.737000 0
M  V30 12 O 2.726514 2.907330 -2.517771 0
M  V30 13 C 1.988618 3.830587 -3.335110 0
M  V30 14 C 1.094012 4.622758 -2.377245 0
M  V30 15 O 0.236733 3.678928 -1.720285 0
M  V30 16 N 1.495341 -1.635940 2.134870 0
M  V30 17 C 1.352800 -2.349346 3.365123 0
M  V30 18 C 0.304003 -3.030186 3.796350 0
M  V30 19 C -0.902066 -3.152775 2.966531 0
M  V30 20 C -2.170056 -2.999881 3.486616 0
M  V30 21 C -3.280568 -3.150308 2.685549 0
M  V30 22 C -3.073610 -3.460581 1.339150 0
M  V30 23 C -1.786468 -3.612386 0.826963 0
M  V30 24 C -0.649647 -3.462244 1.628444 0
M  V30 25 O -1.938350 -3.921765 -0.547580 0
M  V30 26 C -3.221453 -4.590125 -0.623536 0
M  V30 27 O -3.949380 -3.682726 0.245618 0
M  V30 28 H 4.373647 -1.037681 3.491181 0
M  V30 29 H 4.082767 -0.464477 0.667422 0
M  V30 30 H 0.612902 0.563648 1.661655 0
M  V30 31 H -0.690770 2.359075 0.455849 0
M  V30 32 H 3.773406 1.065299 -1.079288 0
M  V30 33 H 2.665345 4.516460 -3.854178 0
M  V30 34 H 1.295915 3.262039 -3.996477 0
M  V30 35 H 1.691521 5.123795 -1.612236 0
M  V30 36 H 0.488594 5.338290 -2.960155 0
M  V30 37 H 0.336248 -3.510748 4.792078 0
M  V30 38 H -2.291047 -2.757499 4.542079 0
M  V30 39 H -4.285422 -3.035495 3.059495 0
M  V30 40 H 0.341263 -3.581670 1.238905 0
M  V30 41 H -3.064874 -5.576454 -0.096124 0
M  V30 42 H -3.624154 -4.653824 -1.617517 0
M  V30 END ATOM
M  V30 BEGIN BOND
M  V30 1 2 1 2
M  V30 2 1 2 3
M  V30 3 1 3 4
M  V30 4 1 4 5
M  V30 5 1 5 6
M  V30 6 2 6 7
M  V30 7 1 7 8
M  V30 8 2 8 9
M  V30 9 1 9 10
M  V30 10 2 10 11
M  V30 11 1 10 12
M  V30 12 1 12 13
M  V30 13 1 13 14
M  V30 14 1 14 15
M  V30 15 2 4 16
M  V30 16 1 16 17
M  V30 17 2 17 18
M  V30 18 1 18 19
M  V30 19 2 19 20
M  V30 20 1 20 21
M  V30 21 2 21 22
M  V30 22 1 22 23
M  V30 23 2 23 24
M  V30 24 1 23 25
M  V30 25 1 25 26
M  V30 26 1 26 27
M  V30 27 1 17 2
M  V30 28 1 24 19
M  V30 29 1 11 6
M  V30 30 1 27 22
M  V30 31 1 15 9
M  V30 32 1 3 28
M  V30 33 1 5 29
M  V30 34 1 7 30
M  V30 35 1 8 31
M  V30 36 1 11 32
M  V30 37 1 13 33
M  V30 38 1 13 34
M  V30 39 1 14 35
M  V30 40 1 14 36
M  V30 41 1 18 37
M  V30 42 1 20 38
M  V30 43 1 21 39
M  V30 44 1 24 40
M  V30 45 1 26 41
M  V30 46 1 26 42
M  V30 END BOND
M  V30 END CTAB
M  END
>  <Dataset>  (212) 
ChEMBL_Kinases

>  <Ligand_Instance>  (212) 
nan

>  <PDB_ID>  (212) 
nan

>  <Standardized_SMILES>  (212) 
O=C1NC(Nc2ccc3c(c2)OCCO3)=N/C1=C\c1ccc2c(c1)OCO2

>  <Name>  (212) 
nan

>  <Pocket>  (212) 
nan

>  <ATP_Site>  (212) 
nan

>  <Peripheral>  (212) 
nan

>  <Num_H_Atoms_ProtBoundConf>  (212) 
nan

>  <Num_Resolved_Atoms>  (212) 
nan

>  <Num_Not_Resolved_Atoms>  (212) 
nan

$$$$
CHEMBL4778468
     RDKit          3D

  0  0  0  0  0  0  0  0  0  0999 V3000
M  V30 BEGIN CTAB
M  V30 COUNTS 57 61 0 0 0
M  V30 BEGIN ATOM
M  V30 1 C 6.587240 -4.829971 3.095226 0
M  V30 2 N 5.759764 -5.209467 1.969200 0
M  V30 3 C 4.388904 -4.854837 2.123707 0
M  V30 4 C 3.801413 -4.000887 1.055914 0
M  V30 5 N 4.677250 -3.031125 0.480569 0
M  V30 6 C 4.215069 -1.867163 -0.192671 0
M  V30 7 C 2.857180 -1.634920 -0.343741 0
M  V30 8 C 2.460828 -0.490913 -1.003990 0
M  V30 9 C 1.025149 -0.275963 -1.146402 0
M  V30 10 O 0.204191 -1.119797 -0.677733 0
M  V30 11 N 0.414337 0.828676 -1.783319 0
M  V30 12 C -1.023480 0.715325 -1.738481 0
M  V30 13 C -1.832568 1.219506 -0.715112 0
M  V30 14 C -3.202181 1.021711 -0.833411 0
M  V30 15 C -3.974783 1.530732 0.190811 0
M  V30 16 C -5.356346 1.335624 0.078081 0
M  V30 17 C -6.241782 1.843730 1.119123 0
M  V30 18 C -5.983684 1.687429 2.479782 0
M  V30 19 N -7.007365 2.277731 3.153530 0
M  V30 20 N -7.863827 2.778601 2.280718 0
M  V30 21 C -9.068540 3.475273 2.676017 0
M  V30 22 C -7.436014 2.536731 1.014734 0
M  V30 23 C -5.950874 0.677385 -0.980622 0
M  V30 24 F -7.279414 0.502218 -1.067002 0
M  V30 25 C -5.110711 0.193741 -1.971423 0
M  V30 26 C -3.737743 0.355066 -1.916790 0
M  V30 27 C -2.899006 -0.137325 -2.924141 0
M  V30 28 N -1.561947 0.061336 -2.799073 0
M  V30 29 C 3.336657 0.438432 -1.524435 0
M  V30 30 C 4.664249 0.103801 -1.315171 0
M  V30 31 N 5.112368 -0.992349 -0.681568 0
M  V30 32 C 6.086736 -3.294272 0.615086 0
M  V30 33 C 6.270667 -4.811827 0.694817 0
M  V30 34 H 6.441944 -5.564558 3.940296 0
M  V30 35 H 6.400598 -3.815988 3.467488 0
M  V30 36 H 7.649209 -4.890218 2.793831 0
M  V30 37 H 4.189344 -4.394024 3.116322 0
M  V30 38 H 3.809396 -5.814261 2.140911 0
M  V30 39 H 2.890946 -3.517104 1.496530 0
M  V30 40 H 3.464821 -4.672815 0.215735 0
M  V30 41 H 2.135375 -2.318088 0.037344 0
M  V30 42 H 1.034007 1.561297 -2.190999 0
M  V30 43 H -1.326767 1.722916 0.086537 0
M  V30 44 H -3.541667 2.051782 1.035420 0
M  V30 45 H -5.165676 1.210344 3.009054 0
M  V30 46 H -8.841700 4.275072 3.409269 0
M  V30 47 H -9.573003 3.962234 1.806190 0
M  V30 48 H -9.783590 2.791651 3.202507 0
M  V30 49 H -7.908468 2.815569 0.090717 0
M  V30 50 H -5.493841 -0.325012 -2.819060 0
M  V30 51 H -3.319583 -0.662440 -3.778037 0
M  V30 52 H 3.046487 1.338230 -2.043839 0
M  V30 53 H 5.436821 0.787487 -1.696066 0
M  V30 54 H 6.419070 -2.908432 1.622382 0
M  V30 55 H 6.670321 -2.834602 -0.191478 0
M  V30 56 H 7.367717 -4.992898 0.617533 0
M  V30 57 H 5.728515 -5.352124 -0.089728 0
M  V30 END ATOM
M  V30 BEGIN BOND
M  V30 1 1 1 2
M  V30 2 1 2 3
M  V30 3 1 3 4
M  V30 4 1 4 5
M  V30 5 1 5 6
M  V30 6 2 6 7
M  V30 7 1 7 8
M  V30 8 1 8 9
M  V30 9 2 9 10
M  V30 10 1 9 11
M  V30 11 1 11 12
M  V30 12 2 12 13
M  V30 13 1 13 14
M  V30 14 2 14 15
M  V30 15 1 15 16
M  V30 16 1 16 17
M  V30 17 1 17 18
M  V30 18 2 18 19
M  V30 19 1 19 20
M  V30 20 1 20 21
M  V30 21 1 20 22
M  V30 22 2 16 23
M  V30 23 1 23 24
M  V30 24 1 23 25
M  V30 25 2 25 26
M  V30 26 1 26 27
M  V30 27 2 27 28
M  V30 28 2 8 29
M  V30 29 1 29 30
M  V30 30 2 30 31
M  V30 31 1 5 32
M  V30 32 1 32 33
M  V30 33 1 33 2
M  V30 34 1 31 6
M  V30 35 1 28 12
M  V30 36 1 26 14
M  V30 37 2 22 17
M  V30 38 1 1 34
M  V30 39 1 1 35
M  V30 40 1 1 36
M  V30 41 1 3 37
M  V30 42 1 3 38
M  V30 43 1 4 39
M  V30 44 1 4 40
M  V30 45 1 7 41
M  V30 46 1 11 42
M  V30 47 1 13 43
M  V30 48 1 15 44
M  V30 49 1 18 45
M  V30 50 1 21 46
M  V30 51 1 21 47
M  V30 52 1 21 48
M  V30 53 1 22 49
M  V30 54 1 25 50
M  V30 55 1 27 51
M  V30 56 1 29 52
M  V30 57 1 30 53
M  V30 58 1 32 54
M  V30 59 1 32 55
M  V30 60 1 33 56
M  V30 61 1 33 57
M  V30 END BOND
M  V30 END CTAB
M  END
>  <Dataset>  (213) 
ChEMBL_Kinases

>  <Ligand_Instance>  (213) 
nan

>  <PDB_ID>  (213) 
nan

>  <Standardized_SMILES>  (213) 
CN1CCN(c2cc(C(=O)Nc3cc4cc(-c5cnn(C)c5)c(F)cc4cn3)ccn2)CC1

>  <Name>  (213) 
nan

>  <Pocket>  (213) 
nan

>  <ATP_Site>  (213) 
nan

>  <Peripheral>  (213) 
nan

>  <Num_H_Atoms_ProtBoundConf>  (213) 
nan

>  <Num_Resolved_Atoms>  (213) 
nan

>  <Num_Not_Resolved_Atoms>  (213) 
nan

$$$$
CHEMBL4778412
     RDKit          3D

  0  0  0  0  0  0  0  0  0  0999 V3000
M  V30 BEGIN CTAB
M  V30 COUNTS 48 52 0 0 0
M  V30 BEGIN ATOM
M  V30 1 O -0.887867 -0.025678 1.683729 0
M  V30 2 C -0.952738 0.702727 0.642253 0
M  V30 3 N -0.571129 2.070528 0.699282 0
M  V30 4 C -0.103333 2.706561 1.888518 0
M  V30 5 C -1.112245 3.263839 2.644848 0
M  V30 6 N -0.855495 3.914075 3.814130 0
M  V30 7 C 0.424186 4.023382 4.257595 0
M  V30 8 C 1.414713 3.457295 3.482473 0
M  V30 9 C 1.208366 2.791987 2.297467 0
M  V30 10 N 2.185629 2.198818 1.471439 0
M  V30 11 C 3.589145 2.142621 1.646087 0
M  V30 12 O 4.108080 2.672900 2.652746 0
M  V30 13 C 4.537661 1.487584 0.710158 0
M  V30 14 C 5.717513 0.753639 1.377253 0
M  V30 15 C 5.916713 2.057725 0.610988 0
M  V30 16 C -1.412754 0.199495 -0.654868 0
M  V30 17 N -1.531204 0.833013 -1.832576 0
M  V30 18 N -1.996608 -0.024028 -2.752710 0
M  V30 19 C -2.181988 -1.219085 -2.172543 0
M  V30 20 C -2.642555 -2.407230 -2.703339 0
M  V30 21 C -2.748250 -3.528170 -1.882886 0
M  V30 22 C -2.392134 -3.434066 -0.556886 0
M  V30 23 C -2.514443 -4.619254 0.272819 0
M  V30 24 C -2.332234 -5.897496 -0.239622 0
M  V30 25 C -2.456614 -7.007750 0.581475 0
M  V30 26 C -2.764766 -6.873761 1.929406 0
M  V30 27 N -2.937898 -5.614903 2.405546 0
M  V30 28 C -2.817001 -4.553436 1.612195 0
M  V30 29 C -1.931578 -2.246805 -0.025347 0
M  V30 30 C -1.824099 -1.126293 -0.837625 0
M  V30 31 H -0.603290 2.718083 -0.124806 0
M  V30 32 H -2.142525 3.232767 2.385860 0
M  V30 33 H 0.648704 4.532408 5.178577 0
M  V30 34 H 2.396547 3.560808 3.857155 0
M  V30 35 H 1.912051 1.716385 0.592816 0
M  V30 36 H 4.088565 1.001713 -0.204820 0
M  V30 37 H 5.771400 0.798855 2.482443 0
M  V30 38 H 6.100399 -0.150895 0.876374 0
M  V30 39 H 6.104595 2.968370 1.249585 0
M  V30 40 H 6.396005 1.988497 -0.367559 0
M  V30 41 H -2.166190 0.268053 -3.756495 0
M  V30 42 H -2.932966 -2.514382 -3.748937 0
M  V30 43 H -3.112489 -4.452565 -2.320446 0
M  V30 44 H -2.091139 -6.034689 -1.288487 0
M  V30 45 H -2.306823 -7.982045 0.143888 0
M  V30 46 H -2.841078 -7.795684 2.490051 0
M  V30 47 H -2.962339 -3.569514 2.030196 0
M  V30 48 H -1.650478 -2.151611 0.997331 0
M  V30 END ATOM
M  V30 BEGIN BOND
M  V30 1 2 1 2
M  V30 2 1 2 3
M  V30 3 1 3 4
M  V30 4 2 4 5
M  V30 5 1 5 6
M  V30 6 2 6 7
M  V30 7 1 7 8
M  V30 8 2 8 9
M  V30 9 1 9 10
M  V30 10 1 10 11
M  V30 11 2 11 12
M  V30 12 1 11 13
M  V30 13 1 13 14
M  V30 14 1 14 15
M  V30 15 1 2 16
M  V30 16 2 16 17
M  V30 17 1 17 18
M  V30 18 1 18 19
M  V30 19 2 19 20
M  V30 20 1 20 21
M  V30 21 2 21 22
M  V30 22 1 22 23
M  V30 23 2 23 24
M  V30 24 1 24 25
M  V30 25 2 25 26
M  V30 26 1 26 27
M  V30 27 2 27 28
M  V30 28 1 22 29
M  V30 29 2 29 30
M  V30 30 1 9 4
M  V30 31 1 15 13
M  V30 32 1 30 16
M  V30 33 1 30 19
M  V30 34 1 28 23
M  V30 35 1 3 31
M  V30 36 1 5 32
M  V30 37 1 7 33
M  V30 38 1 8 34
M  V30 39 1 10 35
M  V30 40 1 13 36
M  V30 41 1 14 37
M  V30 42 1 14 38
M  V30 43 1 15 39
M  V30 44 1 15 40
M  V30 45 1 18 41
M  V30 46 1 20 42
M  V30 47 1 21 43
M  V30 48 1 24 44
M  V30 49 1 25 45
M  V30 50 1 26 46
M  V30 51 1 28 47
M  V30 52 1 29 48
M  V30 END BOND
M  V30 END CTAB
M  END
>  <Dataset>  (214) 
ChEMBL_Kinases

>  <Ligand_Instance>  (214) 
nan

>  <PDB_ID>  (214) 
nan

>  <Standardized_SMILES>  (214) 
O=C(Nc1cnccc1NC(=O)C1CC1)c1n[nH]c2ccc(-c3cccnc3)cc12

>  <Name>  (214) 
nan

>  <Pocket>  (214) 
nan

>  <ATP_Site>  (214) 
nan

>  <Peripheral>  (214) 
nan

>  <Num_H_Atoms_ProtBoundConf>  (214) 
nan

>  <Num_Resolved_Atoms>  (214) 
nan

>  <Num_Not_Resolved_Atoms>  (214) 
nan

$$$$
CHEMBL3221808
     RDKit          3D

  0  0  0  0  0  0  0  0  0  0999 V3000
M  V30 BEGIN CTAB
M  V30 COUNTS 60 63 0 0 0
M  V30 BEGIN ATOM
M  V30 1 C 2.944653 -3.359326 6.022730 0
M  V30 2 O 4.171112 -2.639336 5.840937 0
M  V30 3 C 4.260502 -1.807591 4.732696 0
M  V30 4 C 5.410425 -1.061201 4.462277 0
M  V30 5 C 5.524092 -0.228528 3.369151 0
M  V30 6 C 4.468981 -0.105474 2.482101 0
M  V30 7 C 3.320964 -0.828400 2.720771 0
M  V30 8 C 3.226594 -1.663824 3.830741 0
M  V30 9 C 2.147454 -0.747871 1.813316 0
M  V30 10 C 2.486097 -0.270110 0.430016 0 CFG=1
M  V30 11 C 1.186730 0.134401 -0.174049 0
M  V30 12 O 0.258044 -0.054526 0.655462 0
M  V30 13 N 0.932095 0.656166 -1.460072 0
M  V30 14 C -0.494636 0.885426 -1.556746 0
M  V30 15 C -0.780234 2.176647 -1.128516 0
M  V30 16 C -2.098679 2.606005 -1.139584 0
M  V30 17 C -3.093949 1.754058 -1.570900 0
M  V30 18 C -4.513553 2.078062 -1.632604 0
M  V30 19 C -5.563451 1.684179 -2.458840 0
M  V30 20 N -6.684674 2.296450 -2.068599 0
M  V30 21 N -6.443193 3.070102 -1.037088 0
M  V30 22 C -5.131582 2.957894 -0.749420 0
M  V30 23 C -2.774448 0.484025 -1.987489 0
M  V30 24 C -1.488453 -0.005542 -2.001672 0
M  V30 25 O -0.864556 -1.167612 -2.341712 0
M  V30 26 C -1.380055 -2.343313 -2.820442 0
M  V30 27 C -2.342882 -3.051388 -1.919764 0
M  V30 28 N -1.728056 -3.404233 -0.642055 0
M  V30 29 C -2.684031 -4.088637 0.207282 0
M  V30 30 C -0.563950 -4.268118 -0.856869 0
M  V30 31 C 3.457168 0.888438 0.447158 0
M  V30 32 O 4.501195 0.706187 1.363684 0
M  V30 33 H 2.923808 -3.850223 7.023166 0
M  V30 34 H 2.876317 -4.147239 5.244647 0
M  V30 35 H 2.068445 -2.664964 5.959291 0
M  V30 36 H 6.248610 -1.156464 5.164226 0
M  V30 37 H 6.410079 0.346786 3.160286 0
M  V30 38 H 2.302415 -2.217410 3.983240 0
M  V30 39 H 1.381059 -0.031235 2.219117 0
M  V30 40 H 1.653531 -1.724934 1.742728 0
M  V30 41 H 2.971905 -1.096733 -0.117375 0
M  V30 42 H 1.787044 0.763634 -2.047967 0
M  V30 43 H -0.107939 2.917526 -0.777738 0
M  V30 44 H -2.496729 3.575620 -0.840806 0
M  V30 45 H -5.374429 0.975591 -3.270603 0
M  V30 46 H -7.161127 3.664135 -0.538579 0
M  V30 47 H -4.651523 3.489319 0.061184 0
M  V30 48 H -3.462621 -0.261891 -2.351394 0
M  V30 49 H -1.838337 -2.180602 -3.843474 0
M  V30 50 H -0.524630 -3.050703 -3.052043 0
M  V30 51 H -3.245018 -2.490695 -1.715460 0
M  V30 52 H -2.691008 -4.004358 -2.423268 0
M  V30 53 H -3.520557 -4.554983 -0.357018 0
M  V30 54 H -3.057225 -3.382859 0.998301 0
M  V30 55 H -2.146669 -4.896474 0.770407 0
M  V30 56 H -0.762096 -5.006127 -1.663416 0
M  V30 57 H -0.383318 -4.823990 0.087982 0
M  V30 58 H 0.323382 -3.631005 -1.080030 0
M  V30 59 H 2.865563 1.808934 0.660575 0
M  V30 60 H 3.902016 1.003371 -0.563011 0
M  V30 END ATOM
M  V30 BEGIN BOND
M  V30 1 1 1 2
M  V30 2 1 2 3
M  V30 3 2 3 4
M  V30 4 1 4 5
M  V30 5 2 5 6
M  V30 6 1 6 7
M  V30 7 2 7 8
M  V30 8 1 7 9
M  V30 9 1 9 10
M  V30 10 1 10 11
M  V30 11 2 11 12
M  V30 12 1 11 13
M  V30 13 1 13 14
M  V30 14 2 14 15
M  V30 15 1 15 16
M  V30 16 2 16 17
M  V30 17 1 17 18
M  V30 18 1 18 19
M  V30 19 2 19 20
M  V30 20 1 20 21
M  V30 21 1 21 22
M  V30 22 1 17 23
M  V30 23 2 23 24
M  V30 24 1 24 25
M  V30 25 1 25 26
M  V30 26 1 26 27
M  V30 27 1 27 28
M  V30 28 1 28 29
M  V30 29 1 28 30
M  V30 30 1 10 31
M  V30 31 1 31 32
M  V30 32 1 8 3
M  V30 33 1 24 14
M  V30 34 1 32 6
M  V30 35 2 22 18
M  V30 36 1 1 33
M  V30 37 1 1 34
M  V30 38 1 1 35
M  V30 39 1 4 36
M  V30 40 1 5 37
M  V30 41 1 8 38
M  V30 42 1 9 39
M  V30 43 1 9 40
M  V30 44 1 10 41 CFG=3
M  V30 45 1 13 42
M  V30 46 1 15 43
M  V30 47 1 16 44
M  V30 48 1 19 45
M  V30 49 1 21 46
M  V30 50 1 22 47
M  V30 51 1 23 48
M  V30 52 1 26 49
M  V30 53 1 26 50
M  V30 54 1 27 51
M  V30 55 1 27 52
M  V30 56 1 29 53
M  V30 57 1 29 54
M  V30 58 1 29 55
M  V30 59 1 30 56
M  V30 60 1 30 57
M  V30 61 1 30 58
M  V30 62 1 31 59
M  V30 63 1 31 60
M  V30 END BOND
M  V30 END CTAB
M  END
>  <Dataset>  (215) 
ChEMBL_Kinases

>  <Ligand_Instance>  (215) 
nan

>  <PDB_ID>  (215) 
nan

>  <Standardized_SMILES>  (215) 
COc1ccc2c(c1)C[C@@H](C(=O)Nc1ccc(-c3cn[nH]c3)cc1OCCN(C)C)CO2

>  <Name>  (215) 
nan

>  <Pocket>  (215) 
nan

>  <ATP_Site>  (215) 
nan

>  <Peripheral>  (215) 
nan

>  <Num_H_Atoms_ProtBoundConf>  (215) 
nan

>  <Num_Resolved_Atoms>  (215) 
nan

>  <Num_Not_Resolved_Atoms>  (215) 
nan

$$$$
CHEMBL3220502
     RDKit          3D

  0  0  0  0  0  0  0  0  0  0999 V3000
M  V30 BEGIN CTAB
M  V30 COUNTS 49 52 0 0 0
M  V30 BEGIN ATOM
M  V30 1 N 5.889928 1.304978 4.041523 0
M  V30 2 C 4.980191 0.665469 3.115434 0
M  V30 3 O 4.320085 0.163191 4.032793 0
M  V30 4 C 5.181341 0.841881 1.684888 0
M  V30 5 C 6.198233 1.675262 1.282357 0
M  V30 6 C 6.321187 1.795554 -0.061662 0
M  V30 7 C 5.531098 1.166508 -0.997157 0
M  V30 8 C 4.519430 0.336310 -0.529479 0
M  V30 9 C 4.338908 0.169099 0.824683 0
M  V30 10 N 3.298165 -0.707266 1.224415 0
M  V30 11 C 2.064898 -0.731512 1.958897 0
M  V30 12 N 1.005871 0.105396 1.784459 0
M  V30 13 C -0.121415 0.037565 2.524757 0
M  V30 14 N -0.915889 1.079567 1.938840 0
M  V30 15 C -1.876941 0.391323 1.133263 0
M  V30 16 C -2.543324 -0.749804 1.542797 0
M  V30 17 C -3.459635 -1.476861 0.785709 0
M  V30 18 C -3.724359 -1.011953 -0.493967 0
M  V30 19 N -4.677012 -1.787777 -1.208079 0
M  V30 20 C -4.543054 -3.048602 -1.962232 0
M  V30 21 C -5.798164 -3.801302 -1.505642 0
M  V30 22 C -6.837391 -2.718746 -1.795345 0
M  V30 23 C -6.084346 -1.508195 -1.354743 0
M  V30 24 O -6.645827 -0.403845 -1.150284 0
M  V30 25 C -3.079156 0.137120 -0.959120 0
M  V30 26 C -2.179497 0.821212 -0.166424 0
M  V30 27 N -0.176691 -0.907841 3.471791 0
M  V30 28 C 0.829620 -1.765468 3.694989 0
M  V30 29 C 1.986515 -1.718629 2.955247 0
M  V30 30 Cl 3.221608 -2.896614 3.335143 0
M  V30 31 H 6.797637 0.800082 3.866350 0
M  V30 32 H 5.830295 2.061396 4.745043 0
M  V30 33 H 6.833933 2.181941 2.015089 0
M  V30 34 H 7.104414 2.439337 -0.473032 0
M  V30 35 H 5.687345 1.306582 -2.040091 0
M  V30 36 H 3.920220 -0.137968 -1.320338 0
M  V30 37 H 3.527708 -1.665035 0.844690 0
M  V30 38 H -0.799396 2.094875 2.087228 0
M  V30 39 H -2.351527 -1.139091 2.552235 0
M  V30 40 H -3.924346 -2.368889 1.223608 0
M  V30 41 H -3.636443 -3.598033 -1.613787 0
M  V30 42 H -4.521688 -2.879498 -3.050352 0
M  V30 43 H -5.951351 -4.712475 -2.116761 0
M  V30 44 H -5.690623 -4.002063 -0.442909 0
M  V30 45 H -7.023748 -2.731753 -2.899459 0
M  V30 46 H -7.760294 -2.891682 -1.224456 0
M  V30 47 H -3.355054 0.411168 -1.971985 0
M  V30 48 H -1.699695 1.710822 -0.579969 0
M  V30 49 H 0.581136 -2.443189 4.496646 0
M  V30 END ATOM
M  V30 BEGIN BOND
M  V30 1 1 1 2
M  V30 2 2 2 3
M  V30 3 1 2 4
M  V30 4 2 4 5
M  V30 5 1 5 6
M  V30 6 2 6 7
M  V30 7 1 7 8
M  V30 8 2 8 9
M  V30 9 1 9 10
M  V30 10 1 10 11
M  V30 11 2 11 12
M  V30 12 1 12 13
M  V30 13 1 13 14
M  V30 14 1 14 15
M  V30 15 2 15 16
M  V30 16 1 16 17
M  V30 17 2 17 18
M  V30 18 1 18 19
M  V30 19 1 19 20
M  V30 20 1 20 21
M  V30 21 1 21 22
M  V30 22 1 22 23
M  V30 23 2 23 24
M  V30 24 1 18 25
M  V30 25 2 25 26
M  V30 26 2 13 27
M  V30 27 1 27 28
M  V30 28 2 28 29
M  V30 29 1 29 30
M  V30 30 1 9 4
M  V30 31 1 29 11
M  V30 32 1 26 15
M  V30 33 1 23 19
M  V30 34 1 1 31
M  V30 35 1 1 32
M  V30 36 1 5 33
M  V30 37 1 6 34
M  V30 38 1 7 35
M  V30 39 1 8 36
M  V30 40 1 10 37
M  V30 41 1 14 38
M  V30 42 1 16 39
M  V30 43 1 17 40
M  V30 44 1 20 41
M  V30 45 1 20 42
M  V30 46 1 21 43
M  V30 47 1 21 44
M  V30 48 1 22 45
M  V30 49 1 22 46
M  V30 50 1 25 47
M  V30 51 1 26 48
M  V30 52 1 28 49
M  V30 END BOND
M  V30 END CTAB
M  END
>  <Dataset>  (216) 
ChEMBL_Kinases

>  <Ligand_Instance>  (216) 
nan

>  <PDB_ID>  (216) 
nan

>  <Standardized_SMILES>  (216) 
NC(=O)c1ccccc1Nc1nc(Nc2ccc(N3CCCC3=O)cc2)ncc1Cl

>  <Name>  (216) 
nan

>  <Pocket>  (216) 
nan

>  <ATP_Site>  (216) 
nan

>  <Peripheral>  (216) 
nan

>  <Num_H_Atoms_ProtBoundConf>  (216) 
nan

>  <Num_Resolved_Atoms>  (216) 
nan

>  <Num_Not_Resolved_Atoms>  (216) 
nan

$$$$
CHEMBL1802401
     RDKit          3D

  0  0  0  0  0  0  0  0  0  0999 V3000
M  V30 BEGIN CTAB
M  V30 COUNTS 28 30 0 0 0
M  V30 BEGIN ATOM
M  V30 1 N -1.848466 -4.133100 2.190590 0
M  V30 2 C -0.822203 -3.320039 2.745520 0
M  V30 3 N -0.219179 -3.457561 3.941384 0
M  V30 4 C 0.743947 -2.604383 4.333139 0
M  V30 5 C 1.178167 -1.546062 3.556886 0
M  V30 6 C 0.548830 -1.423505 2.338307 0
M  V30 7 C 0.916812 -0.349876 1.422394 0
M  V30 8 C 1.870082 0.655618 1.595067 0
M  V30 9 N 1.913280 1.458100 0.510193 0
M  V30 10 C 1.004817 0.997539 -0.372657 0
M  V30 11 C 0.581234 1.369483 -1.632695 0
M  V30 12 N 1.196275 2.507997 -2.230097 0 CHG=1 VAL=4
M  V30 13 O 1.257854 2.598890 -3.466586 0
M  V30 14 O 1.754516 3.566694 -1.544843 0 CHG=-1 VAL=1
M  V30 15 C -0.395283 0.718420 -2.357921 0
M  V30 16 C -1.004567 -0.388091 -1.798652 0
M  V30 17 C -0.594507 -0.775237 -0.539867 0
M  V30 18 C 0.385919 -0.110979 0.173118 0
M  V30 19 N -0.406887 -2.304881 1.998856 0
M  V30 20 H -1.685832 -5.010198 1.641777 0
M  V30 21 H -2.746125 -3.639705 2.467662 0
M  V30 22 H 1.213780 -2.740329 5.306667 0
M  V30 23 H 1.940452 -0.862343 3.856041 0
M  V30 24 H 2.469057 0.733188 2.503591 0
M  V30 25 H 2.535243 2.283720 0.377058 0
M  V30 26 H -0.691741 1.056711 -3.351553 0
M  V30 27 H -1.764805 -0.878633 -2.386599 0
M  V30 28 H -1.125068 -1.654426 -0.174170 0
M  V30 END ATOM
M  V30 BEGIN BOND
M  V30 1 1 1 2
M  V30 2 2 2 3
M  V30 3 1 3 4
M  V30 4 2 4 5
M  V30 5 1 5 6
M  V30 6 1 6 7
M  V30 7 2 7 8
M  V30 8 1 8 9
M  V30 9 1 9 10
M  V30 10 2 10 11
M  V30 11 1 11 12
M  V30 12 2 12 13
M  V30 13 1 12 14
M  V30 14 1 11 15
M  V30 15 2 15 16
M  V30 16 1 16 17
M  V30 17 2 17 18
M  V30 18 2 6 19
M  V30 19 1 19 2
M  V30 20 1 18 7
M  V30 21 1 18 10
M  V30 22 1 1 20
M  V30 23 1 1 21
M  V30 24 1 4 22
M  V30 25 1 5 23
M  V30 26 1 8 24
M  V30 27 1 9 25
M  V30 28 1 15 26
M  V30 29 1 16 27
M  V30 30 1 17 28
M  V30 END BOND
M  V30 END CTAB
M  END
>  <Dataset>  (217) 
ChEMBL_Kinases

>  <Ligand_Instance>  (217) 
nan

>  <PDB_ID>  (217) 
nan

>  <Standardized_SMILES>  (217) 
Nc1nccc(-c2c[nH]c3c([N+](=O)[O-])cccc23)n1

>  <Name>  (217) 
nan

>  <Pocket>  (217) 
nan

>  <ATP_Site>  (217) 
nan

>  <Peripheral>  (217) 
nan

>  <Num_H_Atoms_ProtBoundConf>  (217) 
nan

>  <Num_Resolved_Atoms>  (217) 
nan

>  <Num_Not_Resolved_Atoms>  (217) 
nan

$$$$
CHEMBL3220493
     RDKit          3D

  0  0  0  0  0  0  0  0  0  0999 V3000
M  V30 BEGIN CTAB
M  V30 COUNTS 51 54 0 0 0
M  V30 BEGIN ATOM
M  V30 1 N 4.081001 -2.678061 4.771822 0
M  V30 2 C 3.874285 -1.709895 3.720101 0
M  V30 3 O 2.649441 -1.576314 3.814578 0
M  V30 4 C 5.027644 -1.247054 2.961056 0
M  V30 5 C 6.260068 -1.746850 3.294531 0
M  V30 6 C 7.286616 -1.272842 2.514797 0
M  V30 7 C 7.194882 -0.380713 1.474055 0
M  V30 8 C 5.909510 0.047179 1.237101 0
M  V30 9 C 4.766015 -0.349429 1.950757 0
M  V30 10 N 3.531214 0.178928 1.550019 0
M  V30 11 C 2.462891 0.994017 1.975815 0
M  V30 12 N 1.365188 1.115704 1.164826 0
M  V30 13 C 0.311153 1.878499 1.499014 0
M  V30 14 N -0.623250 1.798154 0.427676 0
M  V30 15 C -1.557998 0.839523 -0.037126 0
M  V30 16 C -1.868352 -0.286436 0.686433 0
M  V30 17 C -2.766766 -1.211937 0.130249 0
M  V30 18 C -3.277560 -0.922787 -1.113490 0
M  V30 19 N -4.192106 -1.821803 -1.721290 0
M  V30 20 C -4.464990 -1.986272 -3.135825 0
M  V30 21 C -5.869218 -1.574416 -3.398881 0
M  V30 22 O -6.680850 -2.423943 -2.621807 0
M  V30 23 C -6.465698 -2.265761 -1.264464 0
M  V30 24 C -5.044647 -2.745294 -0.971469 0
M  V30 25 C -2.953889 0.210515 -1.820209 0
M  V30 26 C -2.063532 1.144866 -1.285836 0
M  V30 27 N 0.326393 2.543944 2.661932 0
M  V30 28 C 1.336840 2.501414 3.527127 0
M  V30 29 C 2.387415 1.709278 3.137216 0
M  V30 30 Cl 3.756539 1.655599 4.233350 0
M  V30 31 H 4.182688 -2.346188 5.755054 0
M  V30 32 H 4.120417 -3.683922 4.505390 0
M  V30 33 H 6.378984 -2.451249 4.103653 0
M  V30 34 H 8.276201 -1.651459 2.754416 0
M  V30 35 H 8.017419 -0.034295 0.885397 0
M  V30 36 H 5.771993 0.759204 0.420775 0
M  V30 37 H 3.420782 -0.230616 0.570742 0
M  V30 38 H -0.420495 2.737062 0.056771 0
M  V30 39 H -1.386779 -0.392345 1.670515 0
M  V30 40 H -2.993684 -2.076400 0.702792 0
M  V30 41 H -3.715232 -1.493052 -3.773897 0
M  V30 42 H -4.402584 -3.081025 -3.414150 0
M  V30 43 H -6.116052 -1.859493 -4.460378 0
M  V30 44 H -6.095816 -0.515535 -3.259695 0
M  V30 45 H -6.595220 -1.219527 -0.915875 0
M  V30 46 H -7.152341 -2.943845 -0.750994 0
M  V30 47 H -4.803465 -2.766384 0.087500 0
M  V30 48 H -4.972384 -3.780706 -1.366566 0
M  V30 49 H -3.389663 0.385160 -2.791582 0
M  V30 50 H -1.822967 2.025434 -1.849687 0
M  V30 51 H 1.247661 3.074660 4.432421 0
M  V30 END ATOM
M  V30 BEGIN BOND
M  V30 1 1 1 2
M  V30 2 2 2 3
M  V30 3 1 2 4
M  V30 4 2 4 5
M  V30 5 1 5 6
M  V30 6 2 6 7
M  V30 7 1 7 8
M  V30 8 2 8 9
M  V30 9 1 9 10
M  V30 10 1 10 11
M  V30 11 2 11 12
M  V30 12 1 12 13
M  V30 13 1 13 14
M  V30 14 1 14 15
M  V30 15 2 15 16
M  V30 16 1 16 17
M  V30 17 2 17 18
M  V30 18 1 18 19
M  V30 19 1 19 20
M  V30 20 1 20 21
M  V30 21 1 21 22
M  V30 22 1 22 23
M  V30 23 1 23 24
M  V30 24 1 18 25
M  V30 25 2 25 26
M  V30 26 2 13 27
M  V30 27 1 27 28
M  V30 28 2 28 29
M  V30 29 1 29 30
M  V30 30 1 9 4
M  V30 31 1 29 11
M  V30 32 1 26 15
M  V30 33 1 24 19
M  V30 34 1 1 31
M  V30 35 1 1 32
M  V30 36 1 5 33
M  V30 37 1 6 34
M  V30 38 1 7 35
M  V30 39 1 8 36
M  V30 40 1 10 37
M  V30 41 1 14 38
M  V30 42 1 16 39
M  V30 43 1 17 40
M  V30 44 1 20 41
M  V30 45 1 20 42
M  V30 46 1 21 43
M  V30 47 1 21 44
M  V30 48 1 23 45
M  V30 49 1 23 46
M  V30 50 1 24 47
M  V30 51 1 24 48
M  V30 52 1 25 49
M  V30 53 1 26 50
M  V30 54 1 28 51
M  V30 END BOND
M  V30 END CTAB
M  END
>  <Dataset>  (218) 
ChEMBL_Kinases

>  <Ligand_Instance>  (218) 
nan

>  <PDB_ID>  (218) 
nan

>  <Standardized_SMILES>  (218) 
NC(=O)c1ccccc1Nc1nc(Nc2ccc(N3CCOCC3)cc2)ncc1Cl

>  <Name>  (218) 
nan

>  <Pocket>  (218) 
nan

>  <ATP_Site>  (218) 
nan

>  <Peripheral>  (218) 
nan

>  <Num_H_Atoms_ProtBoundConf>  (218) 
nan

>  <Num_Resolved_Atoms>  (218) 
nan

>  <Num_Not_Resolved_Atoms>  (218) 
nan

$$$$
CHEMBL4777540
     RDKit          3D

  0  0  0  0  0  0  0  0  0  0999 V3000
M  V30 BEGIN CTAB
M  V30 COUNTS 47 51 0 0 0
M  V30 BEGIN ATOM
M  V30 1 C 1.477497 -6.002508 -1.854272 0
M  V30 2 N 1.792799 -6.685957 -0.720711 0
M  V30 3 N 1.690369 -5.878641 0.323925 0
M  V30 4 C 1.313433 -4.688528 -0.130650 0
M  V30 5 C 1.163446 -4.707740 -1.501080 0
M  V30 6 C 0.759565 -3.572093 -2.324843 0
M  V30 7 C 0.663386 -3.791659 -3.703354 0
M  V30 8 C 0.279251 -2.695297 -4.447409 0
M  V30 9 C -0.000135 -1.452924 -3.914806 0
M  V30 10 O -0.370838 -0.292990 -4.386908 0
M  V30 11 C -0.500554 0.583469 -3.416592 0
M  V30 12 C -0.202328 -0.004194 -2.203104 0
M  V30 13 C -0.186005 0.504093 -0.832534 0
M  V30 14 C 0.394984 1.739752 -0.532695 0
M  V30 15 C 0.382264 2.171199 0.779531 0
M  V30 16 C -0.186100 1.415430 1.789295 0
M  V30 17 C -0.187244 1.898399 3.184748 0
M  V30 18 C 0.564262 0.963632 4.109391 0
M  V30 19 C 0.188470 1.163695 5.546596 0
M  V30 20 C -0.125354 2.635829 5.731490 0
M  V30 21 C -1.404327 2.956411 5.003263 0
M  V30 22 C -1.571910 2.076617 3.760533 0
M  V30 23 C -0.768451 0.190758 1.528694 0
M  V30 24 C -0.745098 -0.225960 0.199272 0
M  V30 25 C 0.116862 -1.307685 -2.531957 0
M  V30 26 N 0.494236 -2.375995 -1.779884 0
M  V30 27 H 1.448780 -6.329698 -2.897619 0
M  V30 28 H 1.903208 -6.266825 1.265670 0
M  V30 29 H 1.156423 -3.838558 0.535141 0
M  V30 30 H 0.873629 -4.750802 -4.162603 0
M  V30 31 H 0.175351 -2.759586 -5.519314 0
M  V30 32 H -0.794390 1.634683 -3.472744 0
M  V30 33 H 0.845674 2.349477 -1.303354 0
M  V30 34 H 0.822771 3.123493 1.051203 0
M  V30 35 H 0.307882 2.892843 3.271068 0
M  V30 36 H 1.643944 1.174674 3.964272 0
M  V30 37 H 0.328259 -0.113420 3.880196 0
M  V30 38 H 1.093794 0.947917 6.160586 0
M  V30 39 H -0.664157 0.517192 5.811204 0
M  V30 40 H 0.756479 3.184623 5.307115 0
M  V30 41 H -0.181734 2.826360 6.805756 0
M  V30 42 H -1.308928 4.019631 4.659805 0
M  V30 43 H -2.243905 2.796376 5.698612 0
M  V30 44 H -1.934636 1.078678 4.082131 0
M  V30 45 H -2.245536 2.573316 3.036969 0
M  V30 46 H -1.225403 -0.437961 2.279826 0
M  V30 47 H -1.199900 -1.183796 -0.008263 0
M  V30 END ATOM
M  V30 BEGIN BOND
M  V30 1 2 1 2
M  V30 2 1 2 3
M  V30 3 1 3 4
M  V30 4 2 4 5
M  V30 5 1 5 6
M  V30 6 2 6 7
M  V30 7 1 7 8
M  V30 8 2 8 9
M  V30 9 1 9 10
M  V30 10 1 10 11
M  V30 11 2 11 12
M  V30 12 1 12 13
M  V30 13 2 13 14
M  V30 14 1 14 15
M  V30 15 2 15 16
M  V30 16 1 16 17
M  V30 17 1 17 18
M  V30 18 1 18 19
M  V30 19 1 19 20
M  V30 20 1 20 21
M  V30 21 1 21 22
M  V30 22 1 16 23
M  V30 23 2 23 24
M  V30 24 1 12 25
M  V30 25 2 25 26
M  V30 26 1 5 1
M  V30 27 1 26 6
M  V30 28 1 25 9
M  V30 29 1 24 13
M  V30 30 1 22 17
M  V30 31 1 1 27
M  V30 32 1 3 28
M  V30 33 1 4 29
M  V30 34 1 7 30
M  V30 35 1 8 31
M  V30 36 1 11 32
M  V30 37 1 14 33
M  V30 38 1 15 34
M  V30 39 1 17 35
M  V30 40 1 18 36
M  V30 41 1 18 37
M  V30 42 1 19 38
M  V30 43 1 19 39
M  V30 44 1 20 40
M  V30 45 1 20 41
M  V30 46 1 21 42
M  V30 47 1 21 43
M  V30 48 1 22 44
M  V30 49 1 22 45
M  V30 50 1 23 46
M  V30 51 1 24 47
M  V30 END BOND
M  V30 END CTAB
M  END
>  <Dataset>  (219) 
ChEMBL_Kinases

>  <Ligand_Instance>  (219) 
nan

>  <PDB_ID>  (219) 
nan

>  <Standardized_SMILES>  (219) 
c1n[nH]cc1-c1ccc2occ(-c3ccc(C4CCCCC4)cc3)c2n1

>  <Name>  (219) 
nan

>  <Pocket>  (219) 
nan

>  <ATP_Site>  (219) 
nan

>  <Peripheral>  (219) 
nan

>  <Num_H_Atoms_ProtBoundConf>  (219) 
nan

>  <Num_Resolved_Atoms>  (219) 
nan

>  <Num_Not_Resolved_Atoms>  (219) 
nan

$$$$
CHEMBL4778226
     RDKit          3D

  0  0  0  0  0  0  0  0  0  0999 V3000
M  V30 BEGIN CTAB
M  V30 COUNTS 57 63 0 0 0
M  V30 BEGIN ATOM
M  V30 1 F 7.243758 1.594548 7.347825 0
M  V30 2 C 6.321762 0.968132 6.428657 0
M  V30 3 C 5.310517 1.788123 5.815647 0
M  V30 4 C 4.452029 1.208628 4.960885 0
M  V30 5 C 4.579753 -0.210496 4.693474 0
M  V30 6 C 3.831262 -1.082917 3.852119 0
M  V30 7 C 4.225539 -2.399739 3.829523 0
M  V30 8 N 3.532744 -3.264341 3.036133 0
M  V30 9 C 2.491662 -2.853125 2.292191 0
M  V30 10 C 2.094813 -1.537005 2.312503 0
M  V30 11 N 1.140433 -0.807137 1.722863 0
M  V30 12 C 1.157056 0.478166 2.073286 0
M  V30 13 C 0.390144 1.663423 1.756316 0
M  V30 14 N 0.617746 2.906971 2.268437 0
M  V30 15 N -0.243541 3.780565 1.792326 0
M  V30 16 C -1.091289 3.198089 0.945785 0
M  V30 17 C -2.145723 3.645462 0.199872 0
M  V30 18 N -2.813801 2.747543 -0.582208 0
M  V30 19 C -2.464985 1.453441 -0.635698 0
M  V30 20 C -3.237501 0.567260 -1.500135 0
M  V30 21 C -4.278362 1.133237 -2.204015 0
M  V30 22 N -5.051133 0.373172 -3.035209 0
M  V30 23 C -4.821188 -0.945865 -3.191927 0
M  V30 24 C -3.782241 -1.563877 -2.503231 0
M  V30 25 C -3.484682 -3.033038 -2.643575 0
M  V30 26 N -2.557746 -3.306617 -3.695758 0
M  V30 27 C -2.350354 -4.743552 -3.736970 0
M  V30 28 C -1.455838 -4.959048 -2.534447 0
M  V30 29 C -0.724793 -3.644547 -2.295290 0
M  V30 30 C -1.231908 -2.821776 -3.445371 0
M  V30 31 C -3.017326 -0.768439 -1.669204 0
M  V30 32 C -1.396440 1.046070 0.132193 0
M  V30 33 C -0.686683 1.880265 0.931704 0
M  V30 34 N 2.199974 0.517807 2.937008 0
M  V30 35 C 2.780692 -0.653360 3.105230 0
M  V30 36 S 5.953067 -0.729887 5.681695 0
M  V30 37 H 5.223137 2.841899 6.020260 0
M  V30 38 H 3.644239 1.669187 4.420218 0
M  V30 39 H 5.027269 -2.836402 4.370990 0
M  V30 40 H 1.912392 -3.521101 1.643172 0
M  V30 41 H 0.471411 -1.221228 1.066929 0
M  V30 42 H -0.190816 4.772783 2.095529 0
M  V30 43 H -2.420048 4.689885 0.248915 0
M  V30 44 H -4.567192 2.185069 -2.165410 0
M  V30 45 H -5.409661 -1.575143 -3.838110 0
M  V30 46 H -3.109576 -3.444006 -1.673033 0
M  V30 47 H -4.445578 -3.554304 -2.817122 0
M  V30 48 H -3.312172 -5.301784 -3.634471 0
M  V30 49 H -1.831256 -4.988905 -4.688289 0
M  V30 50 H -2.044270 -5.180964 -1.631919 0
M  V30 51 H -0.674467 -5.721157 -2.730912 0
M  V30 52 H -0.904158 -3.226105 -1.305097 0
M  V30 53 H 0.374632 -3.738072 -2.431874 0
M  V30 54 H -1.175367 -1.732631 -3.276366 0
M  V30 55 H -0.627197 -3.033771 -4.351934 0
M  V30 56 H -2.221882 -1.227374 -1.138178 0
M  V30 57 H -1.144844 0.004235 0.065160 0
M  V30 END ATOM
M  V30 BEGIN BOND
M  V30 1 1 1 2
M  V30 2 2 2 3
M  V30 3 1 3 4
M  V30 4 2 4 5
M  V30 5 1 5 6
M  V30 6 2 6 7
M  V30 7 1 7 8
M  V30 8 2 8 9
M  V30 9 1 9 10
M  V30 10 1 10 11
M  V30 11 1 11 12
M  V30 12 1 12 13
M  V30 13 2 13 14
M  V30 14 1 14 15
M  V30 15 1 15 16
M  V30 16 2 16 17
M  V30 17 1 17 18
M  V30 18 2 18 19
M  V30 19 1 19 20
M  V30 20 2 20 21
M  V30 21 1 21 22
M  V30 22 2 22 23
M  V30 23 1 23 24
M  V30 24 1 24 25
M  V30 25 1 25 26
M  V30 26 1 26 27
M  V30 27 1 27 28
M  V30 28 1 28 29
M  V30 29 1 29 30
M  V30 30 2 24 31
M  V30 31 1 19 32
M  V30 32 2 32 33
M  V30 33 2 12 34
M  V30 34 1 34 35
M  V30 35 1 5 36
M  V30 36 1 36 2
M  V30 37 1 35 6
M  V30 38 2 35 10
M  V30 39 1 33 13
M  V30 40 1 33 16
M  V30 41 1 31 20
M  V30 42 1 30 26
M  V30 43 1 3 37
M  V30 44 1 4 38
M  V30 45 1 7 39
M  V30 46 1 9 40
M  V30 47 1 11 41
M  V30 48 1 15 42
M  V30 49 1 17 43
M  V30 50 1 21 44
M  V30 51 1 23 45
M  V30 52 1 25 46
M  V30 53 1 25 47
M  V30 54 1 27 48
M  V30 55 1 27 49
M  V30 56 1 28 50
M  V30 57 1 28 51
M  V30 58 1 29 52
M  V30 59 1 29 53
M  V30 60 1 30 54
M  V30 61 1 30 55
M  V30 62 1 31 56
M  V30 63 1 32 57
M  V30 END BOND
M  V30 END CTAB
M  END
>  <Dataset>  (220) 
ChEMBL_Kinases

>  <Ligand_Instance>  (220) 
nan

>  <PDB_ID>  (220) 
nan

>  <Standardized_SMILES>  (220) 
Fc1ccc(-c2cncc3[nH]c(-c4n[nH]c5cnc(-c6cncc(CN7CCCC7)c6)cc45)nc23)s1

>  <Name>  (220) 
nan

>  <Pocket>  (220) 
nan

>  <ATP_Site>  (220) 
nan

>  <Peripheral>  (220) 
nan

>  <Num_H_Atoms_ProtBoundConf>  (220) 
nan

>  <Num_Resolved_Atoms>  (220) 
nan

>  <Num_Not_Resolved_Atoms>  (220) 
nan

$$$$
CHEMBL4778153
     RDKit          3D

  0  0  0  0  0  0  0  0  0  0999 V3000
M  V30 BEGIN CTAB
M  V30 COUNTS 42 45 0 0 0
M  V30 BEGIN ATOM
M  V30 1 C 1.578099 -5.485244 0.594919 0
M  V30 2 C 0.622484 -4.533109 1.268057 0
M  V30 3 C 0.536500 -4.872536 2.720634 0
M  V30 4 C -0.759378 -4.759529 0.642636 0
M  V30 5 C 0.986370 -3.105811 1.074004 0
M  V30 6 C 1.826788 -2.604667 2.051024 0
M  V30 7 C 2.260141 -1.290105 2.016302 0
M  V30 8 C 1.850384 -0.452743 0.988409 0
M  V30 9 C 2.264029 0.954086 0.877732 0
M  V30 10 C 3.516096 1.527997 1.033223 0
M  V30 11 O 3.398428 2.827976 0.838360 0
M  V30 12 C 2.154465 3.140039 0.566420 0
M  V30 13 C 1.587082 4.382483 0.295925 0
M  V30 14 C 0.223123 4.472068 0.031373 0
M  V30 15 C -0.499129 3.296411 0.054121 0
M  V30 16 C -1.929279 3.382861 -0.222317 0
M  V30 17 C -2.885484 2.389535 -0.267186 0
M  V30 18 N -4.063489 2.971937 -0.562969 0
M  V30 19 N -3.861046 4.291374 -0.701161 0
M  V30 20 N -2.573894 4.543916 -0.496340 0
M  V30 21 N 0.067581 2.100841 0.318256 0
M  V30 22 C 1.405473 2.000221 0.579444 0
M  V30 23 C 1.007585 -0.962117 0.012092 0
M  V30 24 C 0.571982 -2.278229 0.044301 0
M  V30 25 H 1.580062 -6.462134 1.124146 0
M  V30 26 H 1.219805 -5.723173 -0.438616 0
M  V30 27 H 2.617005 -5.112872 0.546025 0
M  V30 28 H 1.538786 -5.178338 3.080706 0
M  V30 29 H 0.194142 -3.964076 3.291550 0
M  V30 30 H -0.196206 -5.707697 2.851963 0
M  V30 31 H -1.238869 -5.658123 1.030335 0
M  V30 32 H -0.528782 -4.860092 -0.458563 0
M  V30 33 H -1.365792 -3.836774 0.733469 0
M  V30 34 H 2.222842 -3.134545 2.902055 0
M  V30 35 H 2.915065 -0.805456 2.729676 0
M  V30 36 H 4.351861 0.886872 1.273370 0
M  V30 37 H 2.240023 5.251071 0.301231 0
M  V30 38 H -0.219300 5.444720 -0.180064 0
M  V30 39 H -2.621275 1.345759 -0.079258 0
M  V30 40 H -4.703652 4.863982 -0.933508 0
M  V30 41 H 0.656421 -0.344209 -0.817968 0
M  V30 42 H -0.082154 -2.735115 -0.682093 0
M  V30 END ATOM
M  V30 BEGIN BOND
M  V30 1 1 1 2
M  V30 2 1 2 3
M  V30 3 1 2 4
M  V30 4 1 2 5
M  V30 5 2 5 6
M  V30 6 1 6 7
M  V30 7 2 7 8
M  V30 8 1 8 9
M  V30 9 2 9 10
M  V30 10 1 10 11
M  V30 11 1 11 12
M  V30 12 2 12 13
M  V30 13 1 13 14
M  V30 14 2 14 15
M  V30 15 1 15 16
M  V30 16 1 16 17
M  V30 17 2 17 18
M  V30 18 1 18 19
M  V30 19 1 19 20
M  V30 20 1 15 21
M  V30 21 2 21 22
M  V30 22 1 8 23
M  V30 23 2 23 24
M  V30 24 1 24 5
M  V30 25 1 22 9
M  V30 26 1 22 12
M  V30 27 2 20 16
M  V30 28 1 1 25
M  V30 29 1 1 26
M  V30 30 1 1 27
M  V30 31 1 3 28
M  V30 32 1 3 29
M  V30 33 1 3 30
M  V30 34 1 4 31
M  V30 35 1 4 32
M  V30 36 1 4 33
M  V30 37 1 6 34
M  V30 38 1 7 35
M  V30 39 1 10 36
M  V30 40 1 13 37
M  V30 41 1 14 38
M  V30 42 1 17 39
M  V30 43 1 19 40
M  V30 44 1 23 41
M  V30 45 1 24 42
M  V30 END BOND
M  V30 END CTAB
M  END
>  <Dataset>  (221) 
ChEMBL_Kinases

>  <Ligand_Instance>  (221) 
nan

>  <PDB_ID>  (221) 
nan

>  <Standardized_SMILES>  (221) 
CC(C)(C)c1ccc(-c2coc3ccc(-c4cn[nH]n4)nc23)cc1

>  <Name>  (221) 
nan

>  <Pocket>  (221) 
nan

>  <ATP_Site>  (221) 
nan

>  <Peripheral>  (221) 
nan

>  <Num_H_Atoms_ProtBoundConf>  (221) 
nan

>  <Num_Resolved_Atoms>  (221) 
nan

>  <Num_Not_Resolved_Atoms>  (221) 
nan

$$$$
CHEMBL4777958
     RDKit          3D

  0  0  0  0  0  0  0  0  0  0999 V3000
M  V30 BEGIN CTAB
M  V30 COUNTS 46 51 0 0 0
M  V30 BEGIN ATOM
M  V30 1 O 2.861707 -3.482422 2.431839 0
M  V30 2 C 3.498993 -2.249751 2.379627 0
M  V30 3 C 4.794632 -2.251057 2.860642 0
M  V30 4 N 5.475398 -1.087958 2.840851 0
M  V30 5 C 4.925341 0.052924 2.369603 0
M  V30 6 C 3.636040 0.090115 1.882541 0
M  V30 7 C 2.971101 1.275878 1.358104 0
M  V30 8 C 3.570996 2.514729 1.290441 0
M  V30 9 C 2.971257 3.656895 0.800357 0
M  V30 10 C 1.679464 3.578243 0.339523 0
M  V30 11 N 0.822233 4.469603 -0.187330 0
M  V30 12 N -0.294000 3.811282 -0.447225 0
M  V30 13 C -0.191101 2.537537 -0.110646 0
M  V30 14 C -1.244894 1.557432 -0.271968 0
M  V30 15 N -1.273608 0.238577 0.026430 0
M  V30 16 C -2.475431 -0.274907 -0.299080 0
M  V30 17 C -3.051553 -1.527239 -0.219336 0
M  V30 18 C -2.296776 -2.651198 0.324108 0
M  V30 19 C -2.388121 -3.836535 -0.407976 0
M  V30 20 C -1.734564 -4.989242 -0.027816 0
M  V30 21 C -0.952954 -4.972282 1.130523 0
M  V30 22 C -0.867261 -3.795612 1.849920 0
M  V30 23 F -0.144955 -3.647090 2.987382 0
M  V30 24 C -1.523265 -2.641609 1.466814 0
M  V30 25 C -4.353899 -1.744608 -0.651527 0
M  V30 26 C -5.076479 -0.688691 -1.167021 0
M  V30 27 N -4.507401 0.529484 -1.241372 0
M  V30 28 C -3.238125 0.753944 -0.823112 0
M  V30 29 N -2.445156 1.840104 -0.783467 0
M  V30 30 C 1.091115 2.339241 0.411508 0
M  V30 31 N 1.700049 1.241663 0.894555 0
M  V30 32 C 2.924753 -1.091469 1.895334 0
M  V30 33 H 2.525783 -3.740356 3.371990 0
M  V30 34 H 5.303941 -3.129774 3.255379 0
M  V30 35 H 5.493749 0.970873 2.365534 0
M  V30 36 H 4.586811 2.641282 1.637659 0
M  V30 37 H 3.468705 4.613944 0.760710 0
M  V30 38 H 1.095266 5.472809 -0.321059 0
M  V30 39 H -2.980269 -3.913615 -1.317923 0
M  V30 40 H -1.799450 -5.914540 -0.589854 0
M  V30 41 H -0.400998 -5.847754 1.501022 0
M  V30 42 H -1.491816 -1.696398 1.989694 0
M  V30 43 H -4.750102 -2.746031 -0.563830 0
M  V30 44 H -6.108816 -0.846879 -1.512911 0
M  V30 45 H -2.809012 2.756159 -1.133109 0
M  V30 46 H 1.890964 -1.222172 1.542376 0
M  V30 END ATOM
M  V30 BEGIN BOND
M  V30 1 1 1 2
M  V30 2 2 2 3
M  V30 3 1 3 4
M  V30 4 2 4 5
M  V30 5 1 5 6
M  V30 6 1 6 7
M  V30 7 2 7 8
M  V30 8 1 8 9
M  V30 9 2 9 10
M  V30 10 1 10 11
M  V30 11 1 11 12
M  V30 12 2 12 13
M  V30 13 1 13 14
M  V30 14 2 14 15
M  V30 15 1 15 16
M  V30 16 2 16 17
M  V30 17 1 17 18
M  V30 18 2 18 19
M  V30 19 1 19 20
M  V30 20 2 20 21
M  V30 21 1 21 22
M  V30 22 1 22 23
M  V30 23 2 22 24
M  V30 24 1 17 25
M  V30 25 2 25 26
M  V30 26 1 26 27
M  V30 27 2 27 28
M  V30 28 1 28 29
M  V30 29 1 13 30
M  V30 30 2 30 31
M  V30 31 2 6 32
M  V30 32 1 32 2
M  V30 33 1 31 7
M  V30 34 1 30 10
M  V30 35 1 29 14
M  V30 36 1 28 16
M  V30 37 1 24 18
M  V30 38 1 1 33
M  V30 39 1 3 34
M  V30 40 1 5 35
M  V30 41 1 8 36
M  V30 42 1 9 37
M  V30 43 1 11 38
M  V30 44 1 19 39
M  V30 45 1 20 40
M  V30 46 1 21 41
M  V30 47 1 24 42
M  V30 48 1 25 43
M  V30 49 1 26 44
M  V30 50 1 29 45
M  V30 51 1 32 46
M  V30 END BOND
M  V30 END CTAB
M  END
>  <Dataset>  (222) 
ChEMBL_Kinases

>  <Ligand_Instance>  (222) 
nan

>  <PDB_ID>  (222) 
nan

>  <Standardized_SMILES>  (222) 
Oc1cncc(-c2ccc3[nH]nc(-c4nc5c(-c6cccc(F)c6)ccnc5[nH]4)c3n2)c1

>  <Name>  (222) 
nan

>  <Pocket>  (222) 
nan

>  <ATP_Site>  (222) 
nan

>  <Peripheral>  (222) 
nan

>  <Num_H_Atoms_ProtBoundConf>  (222) 
nan

>  <Num_Resolved_Atoms>  (222) 
nan

>  <Num_Not_Resolved_Atoms>  (222) 
nan

$$$$
CHEMBL4777935
     RDKit          3D

  0  0  0  0  0  0  0  0  0  0999 V3000
M  V30 BEGIN CTAB
M  V30 COUNTS 67 73 0 0 0
M  V30 BEGIN ATOM
M  V30 1 C 0.916101 -2.399278 1.272740 0
M  V30 2 N 1.567034 -2.751085 0.041080 0
M  V30 3 C 1.177494 -1.954772 -1.080376 0
M  V30 4 C 2.101028 -0.838635 -1.432187 0
M  V30 5 N 3.189356 -0.643667 -0.504818 0
M  V30 6 C 3.805710 0.608976 -0.235235 0
M  V30 7 N 5.104333 0.813132 -0.484531 0
M  V30 8 C 5.726144 2.002706 -0.237317 0
M  V30 9 C 4.977019 3.027077 0.290391 0
M  V30 10 C 3.631749 2.882364 0.571276 0
M  V30 11 N 2.638266 3.633173 1.068497 0
M  V30 12 C 1.459218 2.991876 1.142332 0
M  V30 13 C 0.294784 3.675928 1.660492 0
M  V30 14 N 0.271675 4.946848 2.095998 0
M  V30 15 N -0.918669 5.302567 2.517012 0
M  V30 16 C -1.768884 4.281156 2.386146 0
M  V30 17 C -3.096915 4.101938 2.659018 0
M  V30 18 N -3.663510 2.916109 2.398170 0
M  V30 19 C -2.973750 1.905658 1.881062 0
M  V30 20 C -3.682390 0.659285 1.627848 0
M  V30 21 C -5.022195 0.598865 1.941563 0
M  V30 22 N -5.795504 -0.503205 1.744417 0
M  V30 23 C -5.227636 -1.622340 1.206006 0
M  V30 24 C -3.870638 -1.635445 0.862064 0
M  V30 25 N -3.292489 -2.802712 0.295595 0
M  V30 26 C -2.651302 -3.989332 0.733847 0
M  V30 27 O -2.470078 -4.216816 1.954715 0
M  V30 28 C -2.207336 -4.940191 -0.272689 0
M  V30 29 C -1.602963 -6.063546 0.218930 0
M  V30 30 C -1.158771 -7.007917 -0.710157 0
M  V30 31 C -1.302332 -6.857038 -2.089945 0
M  V30 32 C -1.924297 -5.697526 -2.561218 0
M  V30 33 C -2.353531 -4.781048 -1.622701 0
M  V30 34 C -3.139774 -0.486746 1.086591 0
M  V30 35 C -1.636984 2.083275 1.606199 0
M  V30 36 C -0.997917 3.271103 1.849568 0
M  V30 37 C 1.769599 1.762160 0.651830 0
M  V30 38 C 3.093803 1.655023 0.290455 0
M  V30 39 C 3.777062 -1.716513 0.265378 0
M  V30 40 C 2.971219 -2.974297 0.188576 0
M  V30 41 H 1.565083 -2.727950 2.118430 0
M  V30 42 H -0.031347 -2.946331 1.384045 0
M  V30 43 H 0.797758 -1.303645 1.361588 0
M  V30 44 H 0.183544 -1.494003 -0.799872 0
M  V30 45 H 0.920687 -2.589334 -1.975250 0
M  V30 46 H 1.557013 0.097718 -1.633024 0
M  V30 47 H 2.586329 -1.130442 -2.411417 0
M  V30 48 H 6.791841 2.110531 -0.461587 0
M  V30 49 H 5.431962 3.980546 0.498614 0
M  V30 50 H 2.914210 4.620802 1.334569 0
M  V30 51 H -1.098660 6.263580 2.885891 0
M  V30 52 H -3.597369 4.972181 3.081319 0
M  V30 53 H -5.571349 1.449019 2.379843 0
M  V30 54 H -5.816182 -2.524822 1.032518 0
M  V30 55 H -3.491804 -2.518350 -0.687792 0
M  V30 56 H -1.450958 -6.263432 1.268059 0
M  V30 57 H -0.664314 -7.933990 -0.403904 0
M  V30 58 H -0.939913 -7.620633 -2.763169 0
M  V30 59 H -2.055048 -5.543164 -3.635889 0
M  V30 60 H -2.827698 -3.898132 -2.010333 0
M  V30 61 H -2.096357 -0.465101 0.834657 0
M  V30 62 H -1.099893 1.271518 1.194070 0
M  V30 63 H 1.063292 0.963577 0.555650 0
M  V30 64 H 3.956287 -1.409716 1.333124 0
M  V30 65 H 4.794901 -1.939142 -0.165794 0
M  V30 66 H 3.109751 -3.535565 1.146031 0
M  V30 67 H 3.365268 -3.623044 -0.632226 0
M  V30 END ATOM
M  V30 BEGIN BOND
M  V30 1 1 1 2
M  V30 2 1 2 3
M  V30 3 1 3 4
M  V30 4 1 4 5
M  V30 5 1 5 6
M  V30 6 2 6 7
M  V30 7 1 7 8
M  V30 8 2 8 9
M  V30 9 1 9 10
M  V30 10 1 10 11
M  V30 11 1 11 12
M  V30 12 1 12 13
M  V30 13 2 13 14
M  V30 14 1 14 15
M  V30 15 1 15 16
M  V30 16 2 16 17
M  V30 17 1 17 18
M  V30 18 2 18 19
M  V30 19 1 19 20
M  V30 20 2 20 21
M  V30 21 1 21 22
M  V30 22 2 22 23
M  V30 23 1 23 24
M  V30 24 1 24 25
M  V30 25 1 25 26
M  V30 26 2 26 27
M  V30 27 1 26 28
M  V30 28 2 28 29
M  V30 29 1 29 30
M  V30 30 2 30 31
M  V30 31 1 31 32
M  V30 32 2 32 33
M  V30 33 2 24 34
M  V30 34 1 19 35
M  V30 35 2 35 36
M  V30 36 2 12 37
M  V30 37 1 37 38
M  V30 38 1 5 39
M  V30 39 1 39 40
M  V30 40 1 40 2
M  V30 41 1 38 6
M  V30 42 2 38 10
M  V30 43 1 36 13
M  V30 44 1 36 16
M  V30 45 1 34 20
M  V30 46 1 33 28
M  V30 47 1 1 41
M  V30 48 1 1 42
M  V30 49 1 1 43
M  V30 50 1 3 44
M  V30 51 1 3 45
M  V30 52 1 4 46
M  V30 53 1 4 47
M  V30 54 1 8 48
M  V30 55 1 9 49
M  V30 56 1 11 50
M  V30 57 1 15 51
M  V30 58 1 17 52
M  V30 59 1 21 53
M  V30 60 1 23 54
M  V30 61 1 25 55
M  V30 62 1 29 56
M  V30 63 1 30 57
M  V30 64 1 31 58
M  V30 65 1 32 59
M  V30 66 1 33 60
M  V30 67 1 34 61
M  V30 68 1 35 62
M  V30 69 1 37 63
M  V30 70 1 39 64
M  V30 71 1 39 65
M  V30 72 1 40 66
M  V30 73 1 40 67
M  V30 END BOND
M  V30 END CTAB
M  END
>  <Dataset>  (223) 
ChEMBL_Kinases

>  <Ligand_Instance>  (223) 
nan

>  <PDB_ID>  (223) 
nan

>  <Standardized_SMILES>  (223) 
CN1CCN(c2nccc3[nH]c(-c4n[nH]c5cnc(-c6cncc(NC(=O)c7ccccc7)c6)cc45)cc23)CC1

>  <Name>  (223) 
nan

>  <Pocket>  (223) 
nan

>  <ATP_Site>  (223) 
nan

>  <Peripheral>  (223) 
nan

>  <Num_H_Atoms_ProtBoundConf>  (223) 
nan

>  <Num_Resolved_Atoms>  (223) 
nan

>  <Num_Not_Resolved_Atoms>  (223) 
nan

$$$$
CHEMBL1802851
     RDKit          3D

  0  0  0  0  0  0  0  0  0  0999 V3000
M  V30 BEGIN CTAB
M  V30 COUNTS 36 38 0 0 0
M  V30 BEGIN ATOM
M  V30 1 C -1.507666 -4.355554 2.763067 0
M  V30 2 N -0.738277 -3.238918 2.196157 0
M  V30 3 C 0.564479 -2.894500 2.653228 0
M  V30 4 O 1.293234 -3.401123 3.552020 0
M  V30 5 C 0.997184 -1.734846 1.841640 0
M  V30 6 C 2.105091 -1.003570 1.853782 0
M  V30 7 C 2.264795 0.104163 0.913321 0
M  V30 8 C 1.866178 -0.144895 -0.394139 0
M  V30 9 C 1.947999 0.813390 -1.396893 0
M  V30 10 C 2.454666 2.029926 -0.997260 0
M  V30 11 C 2.874756 2.352507 0.294843 0
M  V30 12 C 2.764745 1.342014 1.252946 0
M  V30 13 O 3.324211 3.687102 0.298071 0
M  V30 14 C 2.637540 4.310638 -0.806054 0
M  V30 15 O 2.680684 3.218286 -1.725098 0
M  V30 16 N -0.100969 -1.497623 0.970559 0
M  V30 17 C -1.065020 -2.315221 1.151565 0
M  V30 18 N -2.325978 -2.348856 0.443998 0
M  V30 19 C -2.928840 -1.078611 0.088019 0
M  V30 20 C -2.189641 -0.303576 -0.948413 0
M  V30 21 O -2.112610 -1.036959 -2.110724 0
M  V30 22 H -0.838022 -5.229000 2.945667 0
M  V30 23 H -2.318918 -4.692869 2.082361 0
M  V30 24 H -1.973853 -4.096933 3.724726 0
M  V30 25 H 2.839801 -1.282841 2.580337 0
M  V30 26 H 1.455754 -1.102305 -0.761819 0
M  V30 27 H 1.636914 0.627973 -2.420056 0
M  V30 28 H 3.066561 1.530164 2.253773 0
M  V30 29 H 1.598750 4.527485 -0.459327 0
M  V30 30 H 3.120885 5.210449 -1.167400 0
M  V30 31 H -2.679569 -3.337635 0.262397 0
M  V30 32 H -3.146797 -0.442884 0.995013 0
M  V30 33 H -3.941339 -1.313687 -0.311553 0
M  V30 34 H -1.205309 0.073121 -0.602533 0
M  V30 35 H -2.823004 0.603594 -1.170580 0
M  V30 36 H -1.384749 -1.705278 -2.050656 0
M  V30 END ATOM
M  V30 BEGIN BOND
M  V30 1 1 1 2
M  V30 2 1 2 3
M  V30 3 2 3 4
M  V30 4 1 3 5
M  V30 5 2 5 6
M  V30 6 1 6 7
M  V30 7 2 7 8
M  V30 8 1 8 9
M  V30 9 2 9 10
M  V30 10 1 10 11
M  V30 11 2 11 12
M  V30 12 1 11 13
M  V30 13 1 13 14
M  V30 14 1 14 15
M  V30 15 1 5 16
M  V30 16 2 16 17
M  V30 17 1 17 18
M  V30 18 1 18 19
M  V30 19 1 19 20
M  V30 20 1 20 21
M  V30 21 1 17 2
M  V30 22 1 12 7
M  V30 23 1 15 10
M  V30 24 1 1 22
M  V30 25 1 1 23
M  V30 26 1 1 24
M  V30 27 1 6 25
M  V30 28 1 8 26
M  V30 29 1 9 27
M  V30 30 1 12 28
M  V30 31 1 14 29
M  V30 32 1 14 30
M  V30 33 1 18 31
M  V30 34 1 19 32
M  V30 35 1 19 33
M  V30 36 1 20 34
M  V30 37 1 20 35
M  V30 38 1 21 36
M  V30 END BOND
M  V30 END CTAB
M  END
>  <Dataset>  (224) 
ChEMBL_Kinases

>  <Ligand_Instance>  (224) 
nan

>  <PDB_ID>  (224) 
nan

>  <Standardized_SMILES>  (224) 
CN1C(=O)/C(=C/c2ccc3c(c2)OCO3)N=C1NCCO

>  <Name>  (224) 
nan

>  <Pocket>  (224) 
nan

>  <ATP_Site>  (224) 
nan

>  <Peripheral>  (224) 
nan

>  <Num_H_Atoms_ProtBoundConf>  (224) 
nan

>  <Num_Resolved_Atoms>  (224) 
nan

>  <Num_Not_Resolved_Atoms>  (224) 
nan

$$$$
CHEMBL1802856
     RDKit          3D

  0  0  0  0  0  0  0  0  0  0999 V3000
M  V30 BEGIN CTAB
M  V30 COUNTS 34 36 0 0 0
M  V30 BEGIN ATOM
M  V30 1 C -1.577648 -3.022437 3.787916 0
M  V30 2 C -1.213057 -2.352821 2.493496 0
M  V30 3 O -0.381042 -1.397568 2.566941 0
M  V30 4 N -1.744806 -2.733357 1.235735 0
M  V30 5 C -1.406873 -2.104103 0.003922 0
M  V30 6 N -0.556883 -1.133473 -0.052493 0
M  V30 7 C -0.393606 -0.675180 -1.406429 0
M  V30 8 C 0.431208 0.310722 -1.802363 0
M  V30 9 C 1.207296 0.930296 -0.720108 0
M  V30 10 C 1.816081 -0.010313 0.132473 0
M  V30 11 C 2.572357 0.392600 1.232362 0
M  V30 12 C 2.659623 1.756059 1.392876 0
M  V30 13 C 2.077643 2.709900 0.578770 0
M  V30 14 C 1.337764 2.274386 -0.498511 0
M  V30 15 O 2.410361 3.984648 1.092404 0
M  V30 16 C 2.650516 3.762718 2.501930 0
M  V30 17 O 3.332482 2.499964 2.380331 0
M  V30 18 C -1.266408 -1.494397 -2.208319 0
M  V30 19 O -1.460255 -1.464108 -3.428937 0
M  V30 20 N -1.911409 -2.410130 -1.289051 0
M  V30 21 C -2.861868 -3.427293 -1.652329 0
M  V30 22 H -0.750770 -2.905284 4.519522 0
M  V30 23 H -2.456563 -2.493170 4.245829 0
M  V30 24 H -1.794686 -4.091972 3.667609 0
M  V30 25 H -2.423005 -3.524259 1.198876 0
M  V30 26 H 0.429117 0.537070 -2.857863 0
M  V30 27 H 1.768926 -1.095044 0.018127 0
M  V30 28 H 3.041130 -0.324468 1.890606 0
M  V30 29 H 0.858017 2.958386 -1.173928 0
M  V30 30 H 3.249959 4.541151 2.956351 0
M  V30 31 H 1.656165 3.576063 2.971343 0
M  V30 32 H -3.896358 -3.037430 -1.635904 0
M  V30 33 H -2.671773 -3.774171 -2.711208 0
M  V30 34 H -2.733241 -4.306465 -0.971736 0
M  V30 END ATOM
M  V30 BEGIN BOND
M  V30 1 1 1 2
M  V30 2 2 2 3
M  V30 3 1 2 4
M  V30 4 1 4 5
M  V30 5 2 5 6
M  V30 6 1 6 7
M  V30 7 2 7 8
M  V30 8 1 8 9
M  V30 9 2 9 10
M  V30 10 1 10 11
M  V30 11 2 11 12
M  V30 12 1 12 13
M  V30 13 2 13 14
M  V30 14 1 13 15
M  V30 15 1 15 16
M  V30 16 1 16 17
M  V30 17 1 7 18
M  V30 18 2 18 19
M  V30 19 1 18 20
M  V30 20 1 20 21
M  V30 21 1 20 5
M  V30 22 1 14 9
M  V30 23 1 17 12
M  V30 24 1 1 22
M  V30 25 1 1 23
M  V30 26 1 1 24
M  V30 27 1 4 25
M  V30 28 1 8 26
M  V30 29 1 10 27
M  V30 30 1 11 28
M  V30 31 1 14 29
M  V30 32 1 16 30
M  V30 33 1 16 31
M  V30 34 1 21 32
M  V30 35 1 21 33
M  V30 36 1 21 34
M  V30 END BOND
M  V30 END CTAB
M  END
>  <Dataset>  (225) 
ChEMBL_Kinases

>  <Ligand_Instance>  (225) 
nan

>  <PDB_ID>  (225) 
nan

>  <Standardized_SMILES>  (225) 
CC(=O)NC1=N/C(=C\c2ccc3c(c2)OCO3)C(=O)N1C

>  <Name>  (225) 
nan

>  <Pocket>  (225) 
nan

>  <ATP_Site>  (225) 
nan

>  <Peripheral>  (225) 
nan

>  <Num_H_Atoms_ProtBoundConf>  (225) 
nan

>  <Num_Resolved_Atoms>  (225) 
nan

>  <Num_Not_Resolved_Atoms>  (225) 
nan

$$$$
CHEMBL4777844
     RDKit          3D

  0  0  0  0  0  0  0  0  0  0999 V3000
M  V30 BEGIN CTAB
M  V30 COUNTS 66 68 0 0 0
M  V30 BEGIN ATOM
M  V30 1 C 4.050909 0.440640 3.046182 0
M  V30 2 N 3.312020 -0.741141 2.744820 0
M  V30 3 C 3.511436 -1.717236 3.789320 0
M  V30 4 C 3.602587 -1.316783 1.461949 0
M  V30 5 C 3.104567 -0.443878 0.379729 0
M  V30 6 C 2.466275 0.705875 0.427143 0
M  V30 7 C 2.087226 1.361878 -0.809813 0
M  V30 8 O 2.380159 0.808365 -1.889852 0
M  V30 9 N 1.388190 2.623788 -0.791984 0
M  V30 10 C 1.026988 3.237209 -2.050105 0
M  V30 11 C -0.339990 3.872086 -2.058575 0
M  V30 12 C -0.941307 3.982675 -0.684347 0
M  V30 13 C -1.708885 2.732455 -0.444244 0
M  V30 14 O -1.516297 1.820769 0.424809 0
M  V30 15 N -2.813061 2.492303 -1.278888 0
M  V30 16 C -3.518788 1.251609 -0.995397 0
M  V30 17 N -3.283212 0.155792 -1.564631 0
M  V30 18 C -3.995353 -0.921991 -1.211888 0
M  V30 19 C -5.040102 -0.793482 -0.160854 0
M  V30 20 S -6.006577 -2.134295 0.350081 0
M  V30 21 C -5.229273 -3.084506 1.684717 0
M  V30 22 C -4.008642 -3.780017 1.220332 0
M  V30 23 N -4.039588 -5.044103 0.702707 0
M  V30 24 C -2.795820 -5.427005 0.363252 0
M  V30 25 C -1.988053 -4.356534 0.687843 0
M  V30 26 C -0.531349 -4.424245 0.446933 0
M  V30 27 C -0.139152 -5.749475 -0.173224 0
M  V30 28 C 0.289983 -4.215770 1.694543 0
M  V30 29 C -0.112112 -3.354653 -0.551590 0
M  V30 30 O -2.726419 -3.416104 1.184137 0
M  V30 31 S -4.817252 1.054767 0.199541 0
M  V30 32 C 0.075861 4.284744 0.367238 0
M  V30 33 C 1.098462 3.195869 0.513865 0
M  V30 34 H 3.374282 1.185680 3.533029 0
M  V30 35 H 4.830319 0.172766 3.817294 0
M  V30 36 H 4.538662 0.930329 2.167029 0
M  V30 37 H 4.077695 -2.617181 3.445961 0
M  V30 38 H 2.509611 -2.006948 4.198288 0
M  V30 39 H 4.104424 -1.307705 4.651563 0
M  V30 40 H 3.035241 -2.276952 1.379914 0
M  V30 41 H 4.679690 -1.563977 1.341002 0
M  V30 42 H 3.339351 -0.885554 -0.577244 0
M  V30 43 H 2.279869 1.052715 1.426050 0
M  V30 44 H 1.067582 2.459726 -2.838726 0
M  V30 45 H 1.784080 3.992393 -2.299064 0
M  V30 46 H -1.030346 3.273350 -2.687484 0
M  V30 47 H -0.288059 4.876864 -2.552953 0
M  V30 48 H -1.636526 4.855140 -0.730664 0
M  V30 49 H -3.116153 3.126361 -2.034675 0
M  V30 50 H -3.776295 -1.854685 -1.713940 0
M  V30 51 H -4.973902 -2.347715 2.477439 0
M  V30 52 H -5.942273 -3.837774 2.049915 0
M  V30 53 H -2.677161 -6.413166 -0.061714 0
M  V30 54 H 0.860481 -5.689911 -0.639028 0
M  V30 55 H -0.093626 -6.524351 0.610412 0
M  V30 56 H -0.872390 -6.083014 -0.949344 0
M  V30 57 H -0.079857 -3.393568 2.315278 0
M  V30 58 H 1.335099 -3.966227 1.387803 0
M  V30 59 H 0.352581 -5.183962 2.270122 0
M  V30 60 H 0.839986 -3.696079 -1.030484 0
M  V30 61 H 0.028458 -2.365547 -0.090932 0
M  V30 62 H -0.849983 -3.349466 -1.369155 0
M  V30 63 H 0.634599 5.186049 -0.000755 0
M  V30 64 H -0.414351 4.558146 1.305939 0
M  V30 65 H 0.755933 2.376735 1.174299 0
M  V30 66 H 2.036331 3.643622 0.918317 0
M  V30 END ATOM
M  V30 BEGIN BOND
M  V30 1 1 1 2
M  V30 2 1 2 3
M  V30 3 1 2 4
M  V30 4 1 4 5
M  V30 5 2 5 6
M  V30 6 1 6 7
M  V30 7 2 7 8
M  V30 8 1 7 9
M  V30 9 1 9 10
M  V30 10 1 10 11
M  V30 11 1 11 12
M  V30 12 1 12 13
M  V30 13 2 13 14
M  V30 14 1 13 15
M  V30 15 1 15 16
M  V30 16 2 16 17
M  V30 17 1 17 18
M  V30 18 2 18 19
M  V30 19 1 19 20
M  V30 20 1 20 21
M  V30 21 1 21 22
M  V30 22 2 22 23
M  V30 23 1 23 24
M  V30 24 2 24 25
M  V30 25 1 25 26
M  V30 26 1 26 27
M  V30 27 1 26 28
M  V30 28 1 26 29
M  V30 29 1 25 30
M  V30 30 1 19 31
M  V30 31 1 12 32
M  V30 32 1 32 33
M  V30 33 1 33 9
M  V30 34 1 31 16
M  V30 35 1 30 22
M  V30 36 1 1 34
M  V30 37 1 1 35
M  V30 38 1 1 36
M  V30 39 1 3 37
M  V30 40 1 3 38
M  V30 41 1 3 39
M  V30 42 1 4 40
M  V30 43 1 4 41
M  V30 44 1 5 42
M  V30 45 1 6 43
M  V30 46 1 10 44
M  V30 47 1 10 45
M  V30 48 1 11 46
M  V30 49 1 11 47
M  V30 50 1 12 48
M  V30 51 1 15 49
M  V30 52 1 18 50
M  V30 53 1 21 51
M  V30 54 1 21 52
M  V30 55 1 24 53
M  V30 56 1 27 54
M  V30 57 1 27 55
M  V30 58 1 27 56
M  V30 59 1 28 57
M  V30 60 1 28 58
M  V30 61 1 28 59
M  V30 62 1 29 60
M  V30 63 1 29 61
M  V30 64 1 29 62
M  V30 65 1 32 63
M  V30 66 1 32 64
M  V30 67 1 33 65
M  V30 68 1 33 66
M  V30 END BOND
M  V30 END CTAB
M  END
>  <Dataset>  (226) 
ChEMBL_Kinases

>  <Ligand_Instance>  (226) 
nan

>  <PDB_ID>  (226) 
nan

>  <Standardized_SMILES>  (226) 
CN(C)C/C=C/C(=O)N1CCC(C(=O)Nc2ncc(SCc3ncc(C(C)(C)C)o3)s2)CC1

>  <Name>  (226) 
nan

>  <Pocket>  (226) 
nan

>  <ATP_Site>  (226) 
nan

>  <Peripheral>  (226) 
nan

>  <Num_H_Atoms_ProtBoundConf>  (226) 
nan

>  <Num_Resolved_Atoms>  (226) 
nan

>  <Num_Not_Resolved_Atoms>  (226) 
nan

$$$$
CHEMBL4777829
     RDKit          3D

  0  0  0  0  0  0  0  0  0  0999 V3000
M  V30 BEGIN CTAB
M  V30 COUNTS 55 60 0 0 0
M  V30 BEGIN ATOM
M  V30 1 C 5.079392 0.114456 7.249123 0
M  V30 2 C 6.343828 0.452646 6.811504 0
M  V30 3 N 6.668244 0.639474 5.519448 0
M  V30 4 C 5.755221 0.505654 4.534366 0
M  V30 5 N 5.731601 0.613447 3.195430 0
M  V30 6 C 4.520226 0.369842 2.665813 0
M  V30 7 C 4.316196 0.441961 1.236727 0
M  V30 8 N 5.263283 0.743311 0.337830 0
M  V30 9 N 4.808302 0.738199 -0.890835 0
M  V30 10 C 3.504207 0.427476 -0.891585 0
M  V30 11 C 2.569988 0.289231 -1.896577 0
M  V30 12 C 1.279605 -0.047997 -1.545090 0
M  V30 13 C 0.934993 -0.241962 -0.215847 0
M  V30 14 C -0.427510 -0.602378 0.203109 0
M  V30 15 C -0.830866 -0.139692 1.448739 0
M  V30 16 N -2.075399 -0.462511 1.845100 0
M  V30 17 C -2.920772 -1.197325 1.099276 0
M  V30 18 C -2.566644 -1.678986 -0.142919 0
M  V30 19 C -3.428226 -2.495493 -1.035765 0
M  V30 20 N -4.176541 -1.691540 -1.892126 0
M  V30 21 C -5.084622 -0.748948 -1.409817 0
M  V30 22 C -6.304694 -0.715940 -2.313390 0
M  V30 23 C -6.578024 -2.159587 -2.735685 0
M  V30 24 C -5.489684 -2.543113 -3.716619 0
M  V30 25 C -4.147436 -1.957894 -3.279528 0
M  V30 26 C -1.282205 -1.357284 -0.574640 0
M  V30 27 C 1.915169 -0.088523 0.738859 0
M  V30 28 C 3.214968 0.246286 0.442892 0
M  V30 29 C 3.767743 0.096870 3.772745 0
M  V30 30 C 4.482814 0.167929 4.944234 0
M  V30 31 C 4.127598 -0.028536 6.263278 0
M  V30 32 H 4.837947 -0.030582 8.280305 0
M  V30 33 H 7.100383 0.566642 7.591133 0
M  V30 34 H 6.646813 0.869278 2.748300 0
M  V30 35 H 5.435755 0.955489 -1.695357 0
M  V30 36 H 2.864124 0.445394 -2.920726 0
M  V30 37 H 0.517888 -0.164531 -2.318960 0
M  V30 38 H -0.250192 0.455065 2.138347 0
M  V30 39 H -3.913739 -1.436684 1.452586 0
M  V30 40 H -2.860144 -3.233715 -1.615401 0
M  V30 41 H -4.125043 -3.047641 -0.339038 0
M  V30 42 H -5.404771 -1.006554 -0.374710 0
M  V30 43 H -4.592633 0.255987 -1.335439 0
M  V30 44 H -6.126025 -0.072006 -3.174302 0
M  V30 45 H -7.140312 -0.336144 -1.690069 0
M  V30 46 H -6.491996 -2.798720 -1.849473 0
M  V30 47 H -7.574985 -2.250693 -3.163235 0
M  V30 48 H -5.415240 -3.633044 -3.765320 0
M  V30 49 H -5.725111 -2.154396 -4.738414 0
M  V30 50 H -4.009280 -0.998833 -3.847157 0
M  V30 51 H -3.334144 -2.643286 -3.518484 0
M  V30 52 H -0.907949 -1.683612 -1.527585 0
M  V30 53 H 1.634374 -0.241279 1.758788 0
M  V30 54 H 2.722830 -0.149529 3.744035 0
M  V30 55 H 3.085777 -0.296613 6.499375 0
M  V30 END ATOM
M  V30 BEGIN BOND
M  V30 1 2 1 2
M  V30 2 1 2 3
M  V30 3 2 3 4
M  V30 4 1 4 5
M  V30 5 1 5 6
M  V30 6 1 6 7
M  V30 7 2 7 8
M  V30 8 1 8 9
M  V30 9 1 9 10
M  V30 10 2 10 11
M  V30 11 1 11 12
M  V30 12 2 12 13
M  V30 13 1 13 14
M  V30 14 2 14 15
M  V30 15 1 15 16
M  V30 16 2 16 17
M  V30 17 1 17 18
M  V30 18 1 18 19
M  V30 19 1 19 20
M  V30 20 1 20 21
M  V30 21 1 21 22
M  V30 22 1 22 23
M  V30 23 1 23 24
M  V30 24 1 24 25
M  V30 25 2 18 26
M  V30 26 1 13 27
M  V30 27 2 27 28
M  V30 28 2 6 29
M  V30 29 1 29 30
M  V30 30 2 30 31
M  V30 31 1 31 1
M  V30 32 1 30 4
M  V30 33 1 28 7
M  V30 34 1 28 10
M  V30 35 1 26 14
M  V30 36 1 25 20
M  V30 37 1 1 32
M  V30 38 1 2 33
M  V30 39 1 5 34
M  V30 40 1 9 35
M  V30 41 1 11 36
M  V30 42 1 12 37
M  V30 43 1 15 38
M  V30 44 1 17 39
M  V30 45 1 19 40
M  V30 46 1 19 41
M  V30 47 1 21 42
M  V30 48 1 21 43
M  V30 49 1 22 44
M  V30 50 1 22 45
M  V30 51 1 23 46
M  V30 52 1 23 47
M  V30 53 1 24 48
M  V30 54 1 24 49
M  V30 55 1 25 50
M  V30 56 1 25 51
M  V30 57 1 26 52
M  V30 58 1 27 53
M  V30 59 1 29 54
M  V30 60 1 31 55
M  V30 END BOND
M  V30 END CTAB
M  END
>  <Dataset>  (227) 
ChEMBL_Kinases

>  <Ligand_Instance>  (227) 
nan

>  <PDB_ID>  (227) 
nan

>  <Standardized_SMILES>  (227) 
c1cnc2[nH]c(-c3n[nH]c4ccc(-c5cncc(CN6CCCCC6)c5)cc34)cc2c1

>  <Name>  (227) 
nan

>  <Pocket>  (227) 
nan

>  <ATP_Site>  (227) 
nan

>  <Peripheral>  (227) 
nan

>  <Num_H_Atoms_ProtBoundConf>  (227) 
nan

>  <Num_Resolved_Atoms>  (227) 
nan

>  <Num_Not_Resolved_Atoms>  (227) 
nan

$$$$
CHEMBL4218267
     RDKit          3D

  0  0  0  0  0  0  0  0  0  0999 V3000
M  V30 BEGIN CTAB
M  V30 COUNTS 69 73 0 0 0
M  V30 BEGIN ATOM
M  V30 1 C 5.056086 0.326168 4.300035 0
M  V30 2 C 5.469666 -1.099617 4.038961 0
M  V30 3 N 4.373437 -1.745282 3.355258 0
M  V30 4 C 3.222788 -1.907497 4.190746 0
M  V30 5 C 2.174187 -2.727938 3.539695 0
M  V30 6 N 2.367606 -3.092190 2.183229 0
M  V30 7 C 1.398977 -2.640675 1.263895 0
M  V30 8 C 1.252541 -1.174306 1.131926 0
M  V30 9 C 1.985007 -0.512029 0.150545 0
M  V30 10 N 1.856109 0.840535 0.025621 0
M  V30 11 C 1.016183 1.520736 0.860473 0
M  V30 12 N 1.099820 2.903479 0.463149 0
M  V30 13 C 0.030258 3.398726 -0.359481 0
M  V30 14 C -1.091722 2.619615 -0.634575 0
M  V30 15 C -2.138471 3.074044 -1.446230 0
M  V30 16 C -3.200623 2.090463 -1.587865 0
M  V30 17 C -4.510650 2.532625 -1.558553 0
M  V30 18 C -5.519926 1.605238 -1.670924 0
M  V30 19 F -6.799442 2.021211 -1.645051 0
M  V30 20 C -5.265217 0.254060 -1.810808 0
M  V30 21 N -5.975163 -0.873618 -1.935590 0
M  V30 22 C -5.121168 -1.935070 -2.033720 0
M  V30 23 C -5.592507 -3.331719 -2.181622 0
M  V30 24 N -3.848504 -1.531127 -1.976350 0
M  V30 25 C -2.633898 -2.282446 -2.028101 0
M  V30 26 C -2.475778 -3.196574 -3.193854 0
M  V30 27 C -2.540678 -3.144328 -0.756415 0
M  V30 28 C -3.946776 -0.178269 -1.839060 0
M  V30 29 C -2.934587 0.747995 -1.727382 0
M  V30 30 C -2.018012 4.341311 -1.973498 0
M  V30 31 F -3.073522 4.695301 -2.742690 0
M  V30 32 C -0.890298 5.066879 -1.669999 0
M  V30 33 N 0.096583 4.638273 -0.904017 0
M  V30 34 C 0.294226 0.863031 1.830017 0
M  V30 35 N 0.431825 -0.469008 1.939080 0
M  V30 36 C 3.681242 -3.327818 1.742005 0
M  V30 37 C 4.736098 -3.048036 2.816408 0
M  V30 38 H 4.641070 0.789945 3.382846 0
M  V30 39 H 4.349374 0.362040 5.149051 0
M  V30 40 H 5.949445 0.898069 4.603831 0
M  V30 41 H 6.336099 -1.101415 3.314494 0
M  V30 42 H 5.728688 -1.618919 4.963292 0
M  V30 43 H 2.820598 -0.887660 4.461651 0
M  V30 44 H 3.505110 -2.368200 5.177206 0
M  V30 45 H 1.190297 -2.179587 3.611055 0
M  V30 46 H 1.994198 -3.675803 4.124860 0
M  V30 47 H 0.436662 -3.158383 1.501314 0
M  V30 48 H 1.694217 -3.060325 0.253403 0
M  V30 49 H 2.633976 -1.119098 -0.473968 0
M  V30 50 H 1.854800 3.560133 0.715536 0
M  V30 51 H -1.091228 1.637328 -0.172425 0
M  V30 52 H -4.763012 3.600150 -1.447430 0
M  V30 53 H -5.871108 -3.794679 -1.212960 0
M  V30 54 H -4.906879 -3.956385 -2.776607 0
M  V30 55 H -6.564457 -3.314635 -2.757962 0
M  V30 56 H -1.759916 -1.592958 -1.942701 0
M  V30 57 H -2.542904 -4.267744 -2.945505 0
M  V30 58 H -3.161044 -2.889725 -4.007316 0
M  V30 59 H -1.427277 -3.075857 -3.597388 0
M  V30 60 H -3.550042 -3.485754 -0.520606 0
M  V30 61 H -2.075368 -2.564192 0.068374 0
M  V30 62 H -1.875993 -4.001369 -0.978015 0
M  V30 63 H -1.873284 0.497609 -1.741431 0
M  V30 64 H -0.894456 6.052875 -2.136751 0
M  V30 65 H -0.300261 1.560744 2.378138 0
M  V30 66 H 3.792697 -4.420000 1.483985 0
M  V30 67 H 3.940320 -2.783226 0.802038 0
M  V30 68 H 4.738099 -3.834512 3.588905 0
M  V30 69 H 5.694723 -2.936386 2.280151 0
M  V30 END ATOM
M  V30 BEGIN BOND
M  V30 1 1 1 2
M  V30 2 1 2 3
M  V30 3 1 3 4
M  V30 4 1 4 5
M  V30 5 1 5 6
M  V30 6 1 6 7
M  V30 7 1 7 8
M  V30 8 2 8 9
M  V30 9 1 9 10
M  V30 10 2 10 11
M  V30 11 1 11 12
M  V30 12 1 12 13
M  V30 13 2 13 14
M  V30 14 1 14 15
M  V30 15 1 15 16
M  V30 16 2 16 17
M  V30 17 1 17 18
M  V30 18 1 18 19
M  V30 19 2 18 20
M  V30 20 1 20 21
M  V30 21 2 21 22
M  V30 22 1 22 23
M  V30 23 1 22 24
M  V30 24 1 24 25
M  V30 25 1 25 26
M  V30 26 1 25 27
M  V30 27 1 24 28
M  V30 28 2 28 29
M  V30 29 2 15 30
M  V30 30 1 30 31
M  V30 31 1 30 32
M  V30 32 2 32 33
M  V30 33 1 11 34
M  V30 34 2 34 35
M  V30 35 1 6 36
M  V30 36 1 36 37
M  V30 37 1 37 3
M  V30 38 1 35 8
M  V30 39 1 33 13
M  V30 40 1 29 16
M  V30 41 1 28 20
M  V30 42 1 1 38
M  V30 43 1 1 39
M  V30 44 1 1 40
M  V30 45 1 2 41
M  V30 46 1 2 42
M  V30 47 1 4 43
M  V30 48 1 4 44
M  V30 49 1 5 45
M  V30 50 1 5 46
M  V30 51 1 7 47
M  V30 52 1 7 48
M  V30 53 1 9 49
M  V30 54 1 12 50
M  V30 55 1 14 51
M  V30 56 1 17 52
M  V30 57 1 23 53
M  V30 58 1 23 54
M  V30 59 1 23 55
M  V30 60 1 25 56
M  V30 61 1 26 57
M  V30 62 1 26 58
M  V30 63 1 26 59
M  V30 64 1 27 60
M  V30 65 1 27 61
M  V30 66 1 27 62
M  V30 67 1 29 63
M  V30 68 1 32 64
M  V30 69 1 34 65
M  V30 70 1 36 66
M  V30 71 1 36 67
M  V30 72 1 37 68
M  V30 73 1 37 69
M  V30 END BOND
M  V30 END CTAB
M  END
>  <Dataset>  (228) 
ChEMBL_Kinases

>  <Ligand_Instance>  (228) 
nan

>  <PDB_ID>  (228) 
nan

>  <Standardized_SMILES>  (228) 
CCN1CCN(Cc2cnc(Nc3cc(-c4cc(F)c5nc(C)n(C(C)C)c5c4)c(F)cn3)cn2)CC1

>  <Name>  (228) 
nan

>  <Pocket>  (228) 
nan

>  <ATP_Site>  (228) 
nan

>  <Peripheral>  (228) 
nan

>  <Num_H_Atoms_ProtBoundConf>  (228) 
nan

>  <Num_Resolved_Atoms>  (228) 
nan

>  <Num_Not_Resolved_Atoms>  (228) 
nan

$$$$
CHEMBL1803072
     RDKit          3D

  0  0  0  0  0  0  0  0  0  0999 V3000
M  V30 BEGIN CTAB
M  V30 COUNTS 42 46 0 0 0
M  V30 BEGIN ATOM
M  V30 1 C 1.740996 -2.016167 5.210553 0
M  V30 2 N 1.758449 -1.338296 3.915436 0
M  V30 3 C 2.902159 -0.763807 3.296212 0
M  V30 4 O 4.089605 -0.720959 3.706737 0
M  V30 5 C 2.425629 -0.212496 2.049288 0
M  V30 6 C 3.122100 0.442527 1.136758 0
M  V30 7 C 2.564802 0.971618 -0.106205 0
M  V30 8 C 1.668961 0.380551 -0.971406 0
M  V30 9 C 1.235422 1.037198 -2.095983 0
M  V30 10 C 1.654399 2.307446 -2.434715 0
M  V30 11 C 2.548486 2.863910 -1.547369 0
M  V30 12 C 3.038977 2.262087 -0.380451 0
M  V30 13 O 2.870967 4.146165 -2.036814 0
M  V30 14 C 2.364986 4.292873 -3.349412 0
M  V30 15 O 1.441548 3.237077 -3.439307 0
M  V30 16 N 1.009045 -0.476517 1.962337 0
M  V30 17 C 0.666657 -1.113245 3.033855 0
M  V30 18 N -0.672908 -1.522461 3.274075 0
M  V30 19 C -1.557606 -2.031206 2.281830 0
M  V30 20 C -2.865134 -2.290981 2.645030 0
M  V30 21 C -3.798586 -2.794147 1.764209 0
M  V30 22 C -3.372390 -3.034359 0.478109 0
M  V30 23 C -2.049156 -2.777779 0.087741 0
M  V30 24 C -1.129935 -2.270228 0.998761 0
M  V30 25 O -1.932799 -3.125881 -1.274875 0
M  V30 26 C -2.974393 -4.085092 -1.515132 0
M  V30 27 O -3.989139 -3.525660 -0.673079 0
M  V30 28 H 2.325103 -1.482210 5.966221 0
M  V30 29 H 0.701967 -2.218885 5.468482 0
M  V30 30 H 2.243093 -3.012654 5.042674 0
M  V30 31 H 4.175169 0.567017 1.372636 0
M  V30 32 H 1.369379 -0.599582 -0.677477 0
M  V30 33 H 0.530791 0.549173 -2.758587 0
M  V30 34 H 3.745493 2.807692 0.241042 0
M  V30 35 H 1.899076 5.295462 -3.501575 0
M  V30 36 H 3.204147 4.197131 -4.088998 0
M  V30 37 H -0.997561 -1.429159 4.286781 0
M  V30 38 H -3.219308 -2.106439 3.658906 0
M  V30 39 H -4.819650 -2.994806 2.056348 0
M  V30 40 H -0.119660 -2.085217 0.664091 0
M  V30 41 H -2.717185 -5.086508 -1.135217 0
M  V30 42 H -3.217104 -4.035731 -2.579794 0
M  V30 END ATOM
M  V30 BEGIN BOND
M  V30 1 1 1 2
M  V30 2 1 2 3
M  V30 3 2 3 4
M  V30 4 1 3 5
M  V30 5 2 5 6
M  V30 6 1 6 7
M  V30 7 2 7 8
M  V30 8 1 8 9
M  V30 9 2 9 10
M  V30 10 1 10 11
M  V30 11 2 11 12
M  V30 12 1 11 13
M  V30 13 1 13 14
M  V30 14 1 14 15
M  V30 15 1 5 16
M  V30 16 2 16 17
M  V30 17 1 17 18
M  V30 18 1 18 19
M  V30 19 2 19 20
M  V30 20 1 20 21
M  V30 21 2 21 22
M  V30 22 1 22 23
M  V30 23 2 23 24
M  V30 24 1 23 25
M  V30 25 1 25 26
M  V30 26 1 26 27
M  V30 27 1 17 2
M  V30 28 1 24 19
M  V30 29 1 12 7
M  V30 30 1 27 22
M  V30 31 1 15 10
M  V30 32 1 1 28
M  V30 33 1 1 29
M  V30 34 1 1 30
M  V30 35 1 6 31
M  V30 36 1 8 32
M  V30 37 1 9 33
M  V30 38 1 12 34
M  V30 39 1 14 35
M  V30 40 1 14 36
M  V30 41 1 18 37
M  V30 42 1 20 38
M  V30 43 1 21 39
M  V30 44 1 24 40
M  V30 45 1 26 41
M  V30 46 1 26 42
M  V30 END BOND
M  V30 END CTAB
M  END
>  <Dataset>  (229) 
ChEMBL_Kinases

>  <Ligand_Instance>  (229) 
nan

>  <PDB_ID>  (229) 
nan

>  <Standardized_SMILES>  (229) 
CN1C(=O)/C(=C/c2ccc3c(c2)OCO3)N=C1Nc1ccc2c(c1)OCO2

>  <Name>  (229) 
nan

>  <Pocket>  (229) 
nan

>  <ATP_Site>  (229) 
nan

>  <Peripheral>  (229) 
nan

>  <Num_H_Atoms_ProtBoundConf>  (229) 
nan

>  <Num_Resolved_Atoms>  (229) 
nan

>  <Num_Not_Resolved_Atoms>  (229) 
nan

$$$$
CHEMBL1803080
     RDKit          3D

  0  0  0  0  0  0  0  0  0  0999 V3000
M  V30 BEGIN CTAB
M  V30 COUNTS 44 46 0 0 0
M  V30 BEGIN ATOM
M  V30 1 C -0.621857 -4.683469 2.727010 0
M  V30 2 C -0.009678 -3.470463 3.398138 0
M  V30 3 C 0.479807 -2.471805 2.346627 0
M  V30 4 N -0.615247 -2.030784 1.515729 0
M  V30 5 C -0.347563 -1.083151 0.461895 0
M  V30 6 N 0.538883 -0.134864 0.509539 0
M  V30 7 C 0.510709 0.599301 -0.726629 0
M  V30 8 C 1.235943 1.644304 -1.121897 0
M  V30 9 C 2.240258 2.191431 -0.215420 0
M  V30 10 C 2.421574 3.577956 -0.207304 0
M  V30 11 C 3.322558 4.253919 0.583007 0
M  V30 12 C 4.090372 3.472150 1.420428 0
M  V30 13 C 3.944255 2.085264 1.446443 0
M  V30 14 C 3.027905 1.446654 0.636684 0
M  V30 15 O 4.868402 1.612664 2.397900 0
M  V30 16 C 5.226758 2.703219 3.251374 0
M  V30 17 O 5.090507 3.806771 2.348027 0
M  V30 18 C -0.515915 0.005808 -1.597205 0
M  V30 19 O -0.875338 0.327502 -2.757188 0
M  V30 20 N -1.038454 -1.060901 -0.805087 0
M  V30 21 C -2.095007 -1.936399 -1.273943 0
M  V30 22 C -3.479580 -1.409825 -0.919825 0
M  V30 23 C -4.555718 -2.342950 -1.421092 0
M  V30 24 H -1.269811 -4.388470 1.850432 0
M  V30 25 H -1.266424 -5.257004 3.394706 0
M  V30 26 H 0.168942 -5.359683 2.342125 0
M  V30 27 H 0.846005 -3.828966 4.004727 0
M  V30 28 H -0.735983 -2.990914 4.084663 0
M  V30 29 H 1.004712 -1.649984 2.873512 0
M  V30 30 H 1.190842 -3.056654 1.713536 0
M  V30 31 H -1.634097 -2.328966 1.586279 0
M  V30 32 H 1.114485 2.101062 -2.076566 0
M  V30 33 H 1.799403 4.183717 -0.882794 0
M  V30 34 H 3.403514 5.328920 0.531453 0
M  V30 35 H 2.901183 0.389412 0.641365 0
M  V30 36 H 6.233830 2.628313 3.656853 0
M  V30 37 H 4.502754 2.774442 4.100556 0
M  V30 38 H -1.996181 -2.159642 -2.336454 0
M  V30 39 H -1.998294 -2.887984 -0.705701 0
M  V30 40 H -3.600587 -1.282959 0.166192 0
M  V30 41 H -3.635353 -0.442897 -1.440054 0
M  V30 42 H -4.451741 -2.452221 -2.513942 0
M  V30 43 H -4.492434 -3.283236 -0.851971 0
M  V30 44 H -5.530453 -1.809437 -1.258539 0
M  V30 END ATOM
M  V30 BEGIN BOND
M  V30 1 1 1 2
M  V30 2 1 2 3
M  V30 3 1 3 4
M  V30 4 1 4 5
M  V30 5 2 5 6
M  V30 6 1 6 7
M  V30 7 2 7 8
M  V30 8 1 8 9
M  V30 9 2 9 10
M  V30 10 1 10 11
M  V30 11 2 11 12
M  V30 12 1 12 13
M  V30 13 2 13 14
M  V30 14 1 13 15
M  V30 15 1 15 16
M  V30 16 1 16 17
M  V30 17 1 7 18
M  V30 18 2 18 19
M  V30 19 1 18 20
M  V30 20 1 20 21
M  V30 21 1 21 22
M  V30 22 1 22 23
M  V30 23 1 20 5
M  V30 24 1 14 9
M  V30 25 1 17 12
M  V30 26 1 1 24
M  V30 27 1 1 25
M  V30 28 1 1 26
M  V30 29 1 2 27
M  V30 30 1 2 28
M  V30 31 1 3 29
M  V30 32 1 3 30
M  V30 33 1 4 31
M  V30 34 1 8 32
M  V30 35 1 10 33
M  V30 36 1 11 34
M  V30 37 1 14 35
M  V30 38 1 16 36
M  V30 39 1 16 37
M  V30 40 1 21 38
M  V30 41 1 21 39
M  V30 42 1 22 40
M  V30 43 1 22 41
M  V30 44 1 23 42
M  V30 45 1 23 43
M  V30 46 1 23 44
M  V30 END BOND
M  V30 END CTAB
M  END
>  <Dataset>  (230) 
ChEMBL_Kinases

>  <Ligand_Instance>  (230) 
nan

>  <PDB_ID>  (230) 
nan

>  <Standardized_SMILES>  (230) 
CCCNC1=N/C(=C\c2ccc3c(c2)OCO3)C(=O)N1CCC

>  <Name>  (230) 
nan

>  <Pocket>  (230) 
nan

>  <ATP_Site>  (230) 
nan

>  <Peripheral>  (230) 
nan

>  <Num_H_Atoms_ProtBoundConf>  (230) 
nan

>  <Num_Resolved_Atoms>  (230) 
nan

>  <Num_Not_Resolved_Atoms>  (230) 
nan

$$$$
CHEMBL4777787
     RDKit          3D

  0  0  0  0  0  0  0  0  0  0999 V3000
M  V30 BEGIN CTAB
M  V30 COUNTS 44 49 0 0 0
M  V30 BEGIN ATOM
M  V30 1 C 0.248325 5.087601 1.285064 0
M  V30 2 C -0.274827 4.332160 2.309397 0
M  V30 3 N -0.341622 2.994093 2.371208 0
M  V30 4 C 0.163726 2.311593 1.303266 0
M  V30 5 C 0.710926 2.974246 0.224749 0
M  V30 6 C 1.221946 2.148423 -0.862424 0
M  V30 7 C 1.801387 2.628424 -2.016830 0
M  V30 8 C 2.274793 1.828022 -3.025939 0
M  V30 9 C 2.162466 0.461365 -2.872560 0
M  V30 10 N 2.491108 -0.628306 -3.602589 0
M  V30 11 N 2.143140 -1.746511 -2.955212 0
M  V30 12 C 1.576278 -1.411963 -1.781398 0
M  V30 13 C 1.074125 -2.383002 -0.811492 0
M  V30 14 N 0.496606 -2.135629 0.379442 0
M  V30 15 C 0.162583 -3.283497 0.996939 0
M  V30 16 C -0.423967 -3.717357 2.168372 0
M  V30 17 C -0.840124 -2.652503 3.075385 0
M  V30 18 C -1.509411 -1.560151 2.565185 0
M  V30 19 C -1.867123 -0.596901 3.497267 0
M  V30 20 C -1.615523 -0.643319 4.845558 0
M  V30 21 N -0.954691 -1.734813 5.308243 0
M  V30 22 C -0.581785 -2.709641 4.429723 0
M  V30 23 C -0.592379 -5.048011 2.437944 0
M  V30 24 C -0.169869 -5.995059 1.524392 0
M  V30 25 N 0.403531 -5.574611 0.378999 0
M  V30 26 C 0.576583 -4.266284 0.098724 0
M  V30 27 N 1.138164 -3.710493 -1.015363 0
M  V30 28 C 1.584316 -0.032997 -1.721564 0
M  V30 29 N 1.132386 0.811071 -0.753840 0
M  V30 30 C 0.752738 4.344413 0.215641 0
M  V30 31 H 0.261526 6.168298 1.318183 0
M  V30 32 H -0.680740 4.854463 3.165783 0
M  V30 33 H 0.095462 1.216996 1.381603 0
M  V30 34 H 1.887390 3.699490 -2.132877 0
M  V30 35 H 2.725064 2.224780 -3.921702 0
M  V30 36 H 2.950841 -0.597741 -4.537876 0
M  V30 37 H -1.756977 -1.428615 1.511202 0
M  V30 38 H -2.398107 0.281228 3.129091 0
M  V30 39 H -1.941376 0.169581 5.489731 0
M  V30 40 H -0.050559 -3.566729 4.866355 0
M  V30 41 H -1.055004 -5.340979 3.364588 0
M  V30 42 H -0.282850 -7.064680 1.695427 0
M  V30 43 H 1.519780 -4.247956 -1.822959 0
M  V30 44 H 1.179631 4.870682 -0.625248 0
M  V30 END ATOM
M  V30 BEGIN BOND
M  V30 1 2 1 2
M  V30 2 1 2 3
M  V30 3 2 3 4
M  V30 4 1 4 5
M  V30 5 1 5 6
M  V30 6 2 6 7
M  V30 7 1 7 8
M  V30 8 2 8 9
M  V30 9 1 9 10
M  V30 10 1 10 11
M  V30 11 2 11 12
M  V30 12 1 12 13
M  V30 13 2 13 14
M  V30 14 1 14 15
M  V30 15 2 15 16
M  V30 16 1 16 17
M  V30 17 2 17 18
M  V30 18 1 18 19
M  V30 19 2 19 20
M  V30 20 1 20 21
M  V30 21 2 21 22
M  V30 22 1 16 23
M  V30 23 2 23 24
M  V30 24 1 24 25
M  V30 25 2 25 26
M  V30 26 1 26 27
M  V30 27 1 12 28
M  V30 28 2 28 29
M  V30 29 2 5 30
M  V30 30 1 30 1
M  V30 31 1 29 6
M  V30 32 1 28 9
M  V30 33 1 27 13
M  V30 34 1 26 15
M  V30 35 1 22 17
M  V30 36 1 1 31
M  V30 37 1 2 32
M  V30 38 1 4 33
M  V30 39 1 7 34
M  V30 40 1 8 35
M  V30 41 1 10 36
M  V30 42 1 18 37
M  V30 43 1 19 38
M  V30 44 1 20 39
M  V30 45 1 22 40
M  V30 46 1 23 41
M  V30 47 1 24 42
M  V30 48 1 27 43
M  V30 49 1 30 44
M  V30 END BOND
M  V30 END CTAB
M  END
>  <Dataset>  (231) 
ChEMBL_Kinases

>  <Ligand_Instance>  (231) 
nan

>  <PDB_ID>  (231) 
nan

>  <Standardized_SMILES>  (231) 
c1cncc(-c2ccc3[nH]nc(-c4nc5c(-c6cccnc6)ccnc5[nH]4)c3n2)c1

>  <Name>  (231) 
nan

>  <Pocket>  (231) 
nan

>  <ATP_Site>  (231) 
nan

>  <Peripheral>  (231) 
nan

>  <Num_H_Atoms_ProtBoundConf>  (231) 
nan

>  <Num_Resolved_Atoms>  (231) 
nan

>  <Num_Not_Resolved_Atoms>  (231) 
nan

$$$$
CHEMBL4777730
     RDKit          3D

  0  0  0  0  0  0  0  0  0  0999 V3000
M  V30 BEGIN CTAB
M  V30 COUNTS 53 59 0 0 0
M  V30 BEGIN ATOM
M  V30 1 O 1.547890 -5.118930 -0.361018 0
M  V30 2 C 2.200695 -4.124614 -0.768331 0
M  V30 3 N 2.923977 -2.909555 -0.678244 0
M  V30 4 C 3.052578 -2.425246 0.652278 0
M  V30 5 C 4.207408 -2.915320 1.263607 0
M  V30 6 N 4.437785 -2.516182 2.549376 0
M  V30 7 C 3.545915 -1.680153 3.148751 0
M  V30 8 C 2.394719 -1.178475 2.570190 0
M  V30 9 C 1.536853 -0.295625 3.328052 0
M  V30 10 C 0.381454 0.223193 2.789006 0
M  V30 11 C -0.325409 1.046598 3.639370 0
M  V30 12 C -1.502693 1.745487 3.486766 0
M  V30 13 C -2.375307 1.812832 2.324928 0
M  V30 14 N -2.272532 1.226649 1.119663 0
M  V30 15 C -3.308347 1.565599 0.346288 0
M  V30 16 C -3.609653 1.207135 -0.938686 0
M  V30 17 C -2.725811 0.323981 -1.652851 0
M  V30 18 C -1.530300 -0.321904 -1.343438 0
M  V30 19 C -0.968858 -1.099805 -2.299699 0
M  V30 20 C -1.529984 -1.266533 -3.535575 0
M  V30 21 S -3.091380 -0.200321 -3.423069 0
M  V30 22 N -4.716235 1.669803 -1.531559 0
M  V30 23 C -5.573461 2.506349 -0.881719 0
M  V30 24 C -5.246418 2.850572 0.409107 0
M  V30 25 C -4.122421 2.406796 1.071891 0
M  V30 26 N -3.517238 2.528459 2.265447 0
M  V30 27 N -1.779347 2.411271 4.620181 0
M  V30 28 N -0.819709 2.174623 5.521366 0
M  V30 29 C 0.061508 1.348988 4.930330 0
M  V30 30 C 1.227794 0.793238 5.399794 0
M  V30 31 N 1.936503 -0.013655 4.590837 0
M  V30 32 C 2.172317 -1.580183 1.290727 0
M  V30 33 C 1.946991 -4.815625 -2.049293 0
M  V30 34 C 2.943369 -4.707052 -3.163028 0
M  V30 35 C 1.678406 -3.889508 -3.226348 0
M  V30 36 H 3.253375 -2.552814 -1.601075 0
M  V30 37 H 4.927260 -3.575599 0.814435 0
M  V30 38 H 3.834798 -1.434399 4.164214 0
M  V30 39 H 0.042575 0.015898 1.792238 0
M  V30 40 H -1.102113 -0.180246 -0.367037 0
M  V30 41 H -0.046263 -1.648251 -2.176149 0
M  V30 42 H -1.320985 -1.779979 -4.411421 0
M  V30 43 H -6.452941 2.865221 -1.372876 0
M  V30 44 H -5.898766 3.522875 0.986369 0
M  V30 45 H -3.957529 3.130208 2.998596 0
M  V30 46 H -0.723145 2.533466 6.504299 0
M  V30 47 H 1.586897 0.990161 6.402856 0
M  V30 48 H 1.305868 -1.244995 0.756070 0
M  V30 49 H 1.361197 -5.749458 -2.030697 0
M  V30 50 H 2.998740 -5.527911 -3.882987 0
M  V30 51 H 3.882858 -4.159326 -2.875422 0
M  V30 52 H 0.898393 -4.197195 -3.968635 0
M  V30 53 H 1.814789 -2.804525 -3.130273 0
M  V30 END ATOM
M  V30 BEGIN BOND
M  V30 1 2 1 2
M  V30 2 1 2 3
M  V30 3 1 3 4
M  V30 4 2 4 5
M  V30 5 1 5 6
M  V30 6 2 6 7
M  V30 7 1 7 8
M  V30 8 1 8 9
M  V30 9 2 9 10
M  V30 10 1 10 11
M  V30 11 1 11 12
M  V30 12 1 12 13
M  V30 13 2 13 14
M  V30 14 1 14 15
M  V30 15 2 15 16
M  V30 16 1 16 17
M  V30 17 2 17 18
M  V30 18 1 18 19
M  V30 19 2 19 20
M  V30 20 1 20 21
M  V30 21 1 16 22
M  V30 22 2 22 23
M  V30 23 1 23 24
M  V30 24 2 24 25
M  V30 25 1 25 26
M  V30 26 2 12 27
M  V30 27 1 27 28
M  V30 28 1 28 29
M  V30 29 1 29 30
M  V30 30 2 30 31
M  V30 31 2 8 32
M  V30 32 1 2 33
M  V30 33 1 33 34
M  V30 34 1 34 35
M  V30 35 1 32 4
M  V30 36 1 35 33
M  V30 37 1 31 9
M  V30 38 2 29 11
M  V30 39 1 26 13
M  V30 40 1 25 15
M  V30 41 1 21 17
M  V30 42 1 3 36
M  V30 43 1 5 37
M  V30 44 1 7 38
M  V30 45 1 10 39
M  V30 46 1 18 40
M  V30 47 1 19 41
M  V30 48 1 20 42
M  V30 49 1 23 43
M  V30 50 1 24 44
M  V30 51 1 26 45
M  V30 52 1 28 46
M  V30 53 1 30 47
M  V30 54 1 32 48
M  V30 55 1 33 49
M  V30 56 1 34 50
M  V30 57 1 34 51
M  V30 58 1 35 52
M  V30 59 1 35 53
M  V30 END BOND
M  V30 END CTAB
M  END
>  <Dataset>  (232) 
ChEMBL_Kinases

>  <Ligand_Instance>  (232) 
nan

>  <PDB_ID>  (232) 
nan

>  <Standardized_SMILES>  (232) 
O=C(Nc1cncc(-c2cc3c(-c4nc5c(-c6cccs6)nccc5[nH]4)n[nH]c3cn2)c1)C1CC1

>  <Name>  (232) 
nan

>  <Pocket>  (232) 
nan

>  <ATP_Site>  (232) 
nan

>  <Peripheral>  (232) 
nan

>  <Num_H_Atoms_ProtBoundConf>  (232) 
nan

>  <Num_Resolved_Atoms>  (232) 
nan

>  <Num_Not_Resolved_Atoms>  (232) 
nan

$$$$
CHEMBL4777667
     RDKit          3D

  0  0  0  0  0  0  0  0  0  0999 V3000
M  V30 BEGIN CTAB
M  V30 COUNTS 53 57 0 0 0
M  V30 BEGIN ATOM
M  V30 1 C 2.323145 -1.380329 9.192163 0
M  V30 2 C 2.620760 -1.326009 7.718791 0
M  V30 3 N 3.366083 -1.742299 6.924546 0
M  V30 4 C 3.322253 -1.462960 5.632390 0
M  V30 5 C 2.380675 -0.649890 5.126837 0
M  V30 6 N 2.171251 -0.242773 3.824628 0
M  V30 7 C 2.809228 0.927195 3.370727 0
M  V30 8 O 3.479224 1.347940 4.375910 0
M  V30 9 C 2.875942 1.689414 2.149472 0
M  V30 10 N 3.649317 2.789054 2.168363 0
M  V30 11 N 3.589856 3.365062 0.956803 0
M  V30 12 C 2.803111 2.700825 0.105242 0
M  V30 13 C 2.402409 2.838543 -1.200033 0
M  V30 14 C 1.534866 1.877960 -1.720408 0
M  V30 15 C 1.107302 0.835720 -0.934968 0
M  V30 16 C 0.192090 -0.171638 -1.494274 0
M  V30 17 C 0.178152 -1.510813 -1.095356 0
M  V30 18 N -0.785735 -2.112177 -1.825958 0
M  V30 19 N -1.356987 -1.248775 -2.634351 0
M  V30 20 C -2.435398 -1.586738 -3.554576 0
M  V30 21 C -3.695656 -0.871566 -3.157705 0
M  V30 22 C -4.702221 -1.712486 -2.464874 0
M  V30 23 N -4.239048 -2.892154 -1.836512 0
M  V30 24 C -4.113858 -2.861668 -0.413857 0
M  V30 25 C -3.323704 -3.707073 -2.537222 0
M  V30 26 C -2.599345 -3.071047 -3.683587 0
M  V30 27 C -0.793998 -0.048216 -2.469037 0
M  V30 28 C 1.511111 0.703853 0.367673 0
M  V30 29 C 2.365381 1.651143 0.877467 0
M  V30 30 S 1.452266 -0.240398 6.689255 0
M  V30 31 H 2.541037 -2.393152 9.559950 0
M  V30 32 H 1.223340 -1.230639 9.377607 0
M  V30 33 H 2.822989 -0.565204 9.749768 0
M  V30 34 H 4.089023 -1.923896 4.987355 0
M  V30 35 H 1.589565 -0.679966 3.083129 0
M  V30 36 H 4.121424 4.244340 0.743425 0
M  V30 37 H 2.789178 3.694481 -1.750989 0
M  V30 38 H 1.241343 2.015593 -2.743784 0
M  V30 39 H 0.852979 -1.915583 -0.329795 0
M  V30 40 H -2.133675 -1.198587 -4.550326 0
M  V30 41 H -3.409421 -0.031830 -2.459736 0
M  V30 42 H -4.174973 -0.349447 -4.029679 0
M  V30 43 H -5.249686 -1.116850 -1.700891 0
M  V30 44 H -5.489424 -1.997727 -3.215348 0
M  V30 45 H -4.864245 -3.586182 0.013966 0
M  V30 46 H -4.358477 -1.879549 0.040586 0
M  V30 47 H -3.126289 -3.199217 -0.047902 0
M  V30 48 H -3.853961 -4.611184 -2.934799 0
M  V30 49 H -2.601807 -4.120003 -1.775074 0
M  V30 50 H -3.073286 -3.306856 -4.665556 0
M  V30 51 H -1.576840 -3.515210 -3.726018 0
M  V30 52 H -1.021865 0.885093 -2.972591 0
M  V30 53 H 1.160667 -0.120107 0.956754 0
M  V30 END ATOM
M  V30 BEGIN BOND
M  V30 1 1 1 2
M  V30 2 2 2 3
M  V30 3 1 3 4
M  V30 4 2 4 5
M  V30 5 1 5 6
M  V30 6 1 6 7
M  V30 7 2 7 8
M  V30 8 1 7 9
M  V30 9 2 9 10
M  V30 10 1 10 11
M  V30 11 1 11 12
M  V30 12 2 12 13
M  V30 13 1 13 14
M  V30 14 2 14 15
M  V30 15 1 15 16
M  V30 16 1 16 17
M  V30 17 2 17 18
M  V30 18 1 18 19
M  V30 19 1 19 20
M  V30 20 1 20 21
M  V30 21 1 21 22
M  V30 22 1 22 23
M  V30 23 1 23 24
M  V30 24 1 23 25
M  V30 25 1 25 26
M  V30 26 1 19 27
M  V30 27 1 15 28
M  V30 28 2 28 29
M  V30 29 1 5 30
M  V30 30 1 30 2
M  V30 31 1 29 9
M  V30 32 1 29 12
M  V30 33 2 27 16
M  V30 34 1 26 20
M  V30 35 1 1 31
M  V30 36 1 1 32
M  V30 37 1 1 33
M  V30 38 1 4 34
M  V30 39 1 6 35
M  V30 40 1 11 36
M  V30 41 1 13 37
M  V30 42 1 14 38
M  V30 43 1 17 39
M  V30 44 1 20 40
M  V30 45 1 21 41
M  V30 46 1 21 42
M  V30 47 1 22 43
M  V30 48 1 22 44
M  V30 49 1 24 45
M  V30 50 1 24 46
M  V30 51 1 24 47
M  V30 52 1 25 48
M  V30 53 1 25 49
M  V30 54 1 26 50
M  V30 55 1 26 51
M  V30 56 1 27 52
M  V30 57 1 28 53
M  V30 END BOND
M  V30 END CTAB
M  END
>  <Dataset>  (233) 
ChEMBL_Kinases

>  <Ligand_Instance>  (233) 
nan

>  <PDB_ID>  (233) 
nan

>  <Standardized_SMILES>  (233) 
Cc1ncc(NC(=O)c2n[nH]c3ccc(-c4cnn(C5CCN(C)CC5)c4)cc23)s1

>  <Name>  (233) 
nan

>  <Pocket>  (233) 
nan

>  <ATP_Site>  (233) 
nan

>  <Peripheral>  (233) 
nan

>  <Num_H_Atoms_ProtBoundConf>  (233) 
nan

>  <Num_Resolved_Atoms>  (233) 
nan

>  <Num_Not_Resolved_Atoms>  (233) 
nan

$$$$
CHEMBL4777663
     RDKit          3D

  0  0  0  0  0  0  0  0  0  0999 V3000
M  V30 BEGIN CTAB
M  V30 COUNTS 52 56 0 0 0
M  V30 BEGIN ATOM
M  V30 1 C 3.717714 -7.403567 2.066089 0
M  V30 2 N 4.372670 -6.430725 2.901668 0
M  V30 3 C 3.581048 -6.021555 4.028663 0
M  V30 4 C 3.118529 -4.604221 3.978013 0
M  V30 5 C 2.924424 -4.070841 2.602255 0
M  V30 6 C 1.857066 -3.237635 2.271175 0
M  V30 7 C 1.756115 -2.790538 0.971101 0
M  V30 8 C 0.628047 -1.918823 0.651850 0
M  V30 9 O -0.176502 -1.630875 1.574222 0
M  V30 10 N 0.378095 -1.374844 -0.627758 0
M  V30 11 C -0.762613 -0.535755 -0.804491 0
M  V30 12 C -0.689858 0.834338 -0.620281 0
M  V30 13 C -1.875720 1.478925 -0.831654 0
M  V30 14 C -1.953239 2.851483 -0.683833 0
M  V30 15 C -3.133685 3.528120 -0.889971 0
M  V30 16 C -3.171360 4.976268 -0.723225 0
M  V30 17 C -4.263359 5.802811 -0.889496 0
M  V30 18 N -3.909531 7.081511 -0.647690 0
M  V30 19 C -4.886862 8.149170 -0.756639 0
M  V30 20 N -2.637278 7.060799 -0.339472 0
M  V30 21 N -2.172093 5.803866 -0.378595 0
M  V30 22 C -4.281578 2.865661 -1.250851 0
M  V30 23 C -4.243685 1.498735 -1.407666 0
M  V30 24 C -3.056376 0.860577 -1.195175 0
M  V30 25 C -3.060453 -0.517831 -1.363619 0
M  V30 26 N -1.901819 -1.173865 -1.160289 0
M  V30 27 C 2.684202 -3.154887 0.018313 0
M  V30 28 C 3.747554 -3.978326 0.325284 0
M  V30 29 C 3.856776 -4.430710 1.623884 0
M  V30 30 C 4.923041 -5.322485 2.159126 0
M  V30 31 H 4.100838 -8.411611 2.397133 0
M  V30 32 H 2.621286 -7.381412 2.306980 0
M  V30 33 H 3.894494 -7.301942 0.995023 0
M  V30 34 H 2.727891 -6.747762 4.106121 0
M  V30 35 H 4.192375 -6.187425 4.951583 0
M  V30 36 H 2.119482 -4.548243 4.480882 0
M  V30 37 H 3.787485 -3.941672 4.579282 0
M  V30 38 H 1.145597 -2.970169 3.042332 0
M  V30 39 H 1.033147 -1.600672 -1.408470 0
M  V30 40 H 0.215694 1.312215 -0.341027 0
M  V30 41 H -1.090598 3.405022 -0.405870 0
M  V30 42 H -5.234681 5.411782 -1.174252 0
M  V30 43 H -5.599443 7.976723 -1.586242 0
M  V30 44 H -5.498056 8.143181 0.184024 0
M  V30 45 H -4.427865 9.144014 -0.830906 0
M  V30 46 H -5.204727 3.385507 -1.413190 0
M  V30 47 H -5.143899 0.969701 -1.691834 0
M  V30 48 H -3.936209 -1.085496 -1.646504 0
M  V30 49 H 2.616540 -2.816107 -0.987815 0
M  V30 50 H 4.513278 -4.308329 -0.359530 0
M  V30 51 H 5.548553 -5.773552 1.360149 0
M  V30 52 H 5.613891 -4.765080 2.824885 0
M  V30 END ATOM
M  V30 BEGIN BOND
M  V30 1 1 1 2
M  V30 2 1 2 3
M  V30 3 1 3 4
M  V30 4 1 4 5
M  V30 5 2 5 6
M  V30 6 1 6 7
M  V30 7 1 7 8
M  V30 8 2 8 9
M  V30 9 1 8 10
M  V30 10 1 10 11
M  V30 11 2 11 12
M  V30 12 1 12 13
M  V30 13 2 13 14
M  V30 14 1 14 15
M  V30 15 1 15 16
M  V30 16 2 16 17
M  V30 17 1 17 18
M  V30 18 1 18 19
M  V30 19 1 18 20
M  V30 20 2 20 21
M  V30 21 2 15 22
M  V30 22 1 22 23
M  V30 23 2 23 24
M  V30 24 1 24 25
M  V30 25 2 25 26
M  V30 26 2 7 27
M  V30 27 1 27 28
M  V30 28 2 28 29
M  V30 29 1 29 30
M  V30 30 1 30 2
M  V30 31 1 29 5
M  V30 32 1 26 11
M  V30 33 1 24 13
M  V30 34 1 21 16
M  V30 35 1 1 31
M  V30 36 1 1 32
M  V30 37 1 1 33
M  V30 38 1 3 34
M  V30 39 1 3 35
M  V30 40 1 4 36
M  V30 41 1 4 37
M  V30 42 1 6 38
M  V30 43 1 10 39
M  V30 44 1 12 40
M  V30 45 1 14 41
M  V30 46 1 17 42
M  V30 47 1 19 43
M  V30 48 1 19 44
M  V30 49 1 19 45
M  V30 50 1 22 46
M  V30 51 1 23 47
M  V30 52 1 25 48
M  V30 53 1 27 49
M  V30 54 1 28 50
M  V30 55 1 30 51
M  V30 56 1 30 52
M  V30 END BOND
M  V30 END CTAB
M  END
>  <Dataset>  (234) 
ChEMBL_Kinases

>  <Ligand_Instance>  (234) 
nan

>  <PDB_ID>  (234) 
nan

>  <Standardized_SMILES>  (234) 
CN1CCc2cc(C(=O)Nc3cc4cc(-c5cn(C)nn5)ccc4cn3)ccc2C1

>  <Name>  (234) 
nan

>  <Pocket>  (234) 
nan

>  <ATP_Site>  (234) 
nan

>  <Peripheral>  (234) 
nan

>  <Num_H_Atoms_ProtBoundConf>  (234) 
nan

>  <Num_Resolved_Atoms>  (234) 
nan

>  <Num_Not_Resolved_Atoms>  (234) 
nan

$$$$
CHEMBL4778331
     RDKit          3D

  0  0  0  0  0  0  0  0  0  0999 V3000
M  V30 BEGIN CTAB
M  V30 COUNTS 40 43 0 0 0
M  V30 BEGIN ATOM
M  V30 1 C -1.676847 -4.244146 0.937912 0
M  V30 2 C -0.416251 -3.476417 0.650434 0
M  V30 3 C 0.680766 -3.848154 1.655903 0
M  V30 4 C 0.143660 -3.846321 -0.720268 0
M  V30 5 N -0.602431 -2.065273 0.698044 0
M  V30 6 N 0.365391 -1.238528 0.303594 0
M  V30 7 C -0.045121 0.039302 0.449234 0
M  V30 8 C 0.817810 1.171071 0.095668 0
M  V30 9 C 0.509378 2.201285 -0.768009 0
M  V30 10 N 1.537896 3.063453 -0.857227 0
M  V30 11 C 2.518906 2.597911 -0.051378 0
M  V30 12 C 3.790505 3.106051 0.223931 0
M  V30 13 C 4.610906 2.403841 1.111351 0
M  V30 14 C 4.138178 1.240439 1.680995 0
M  V30 15 N 2.899750 0.745918 1.412854 0
M  V30 16 C 2.117956 1.411785 0.570719 0
M  V30 17 C -1.330924 0.046520 0.958626 0
M  V30 18 C -2.190684 1.056066 1.285734 0
M  V30 19 N -1.763620 2.399705 1.101991 0
M  V30 20 N -3.372702 0.687238 1.757106 0
M  V30 21 C -3.697472 -0.626334 1.903478 0
M  V30 22 N -2.833216 -1.630836 1.574995 0
M  V30 23 C -1.624456 -1.291605 1.092370 0
M  V30 24 H -2.105335 -3.860282 1.894396 0
M  V30 25 H -1.491339 -5.327040 1.041748 0
M  V30 26 H -2.392669 -3.998262 0.131863 0
M  V30 27 H 0.843522 -4.929357 1.628320 0
M  V30 28 H 1.600178 -3.316681 1.306590 0
M  V30 29 H 0.407051 -3.546962 2.668501 0
M  V30 30 H 0.825810 -3.045023 -1.063091 0
M  V30 31 H -0.721286 -3.903950 -1.395278 0
M  V30 32 H 0.635157 -4.841805 -0.655664 0
M  V30 33 H -0.402022 2.370191 -1.333434 0
M  V30 34 H 1.646724 3.947434 -1.413182 0
M  V30 35 H 4.140831 4.030650 -0.238114 0
M  V30 36 H 5.591313 2.817526 1.306960 0
M  V30 37 H 4.855198 0.764173 2.361070 0
M  V30 38 H -2.062660 3.112033 0.372046 0
M  V30 39 H -1.049475 2.863818 1.724080 0
M  V30 40 H -4.694894 -0.887878 2.300958 0
M  V30 END ATOM
M  V30 BEGIN BOND
M  V30 1 1 1 2
M  V30 2 1 2 3
M  V30 3 1 2 4
M  V30 4 1 2 5
M  V30 5 1 5 6
M  V30 6 2 6 7
M  V30 7 1 7 8
M  V30 8 2 8 9
M  V30 9 1 9 10
M  V30 10 1 10 11
M  V30 11 2 11 12
M  V30 12 1 12 13
M  V30 13 2 13 14
M  V30 14 1 14 15
M  V30 15 2 15 16
M  V30 16 1 7 17
M  V30 17 2 17 18
M  V30 18 1 18 19
M  V30 19 1 18 20
M  V30 20 2 20 21
M  V30 21 1 21 22
M  V30 22 2 22 23
M  V30 23 1 23 5
M  V30 24 1 16 8
M  V30 25 1 23 17
M  V30 26 1 16 11
M  V30 27 1 1 24
M  V30 28 1 1 25
M  V30 29 1 1 26
M  V30 30 1 3 27
M  V30 31 1 3 28
M  V30 32 1 3 29
M  V30 33 1 4 30
M  V30 34 1 4 31
M  V30 35 1 4 32
M  V30 36 1 9 33
M  V30 37 1 10 34
M  V30 38 1 12 35
M  V30 39 1 13 36
M  V30 40 1 14 37
M  V30 41 1 19 38
M  V30 42 1 19 39
M  V30 43 1 21 40
M  V30 END BOND
M  V30 END CTAB
M  END
>  <Dataset>  (235) 
ChEMBL_Kinases

>  <Ligand_Instance>  (235) 
nan

>  <PDB_ID>  (235) 
nan

>  <Standardized_SMILES>  (235) 
CC(C)(C)n1nc(-c2c[nH]c3cccnc23)c2c(N)ncnc21

>  <Name>  (235) 
nan

>  <Pocket>  (235) 
nan

>  <ATP_Site>  (235) 
nan

>  <Peripheral>  (235) 
nan

>  <Num_H_Atoms_ProtBoundConf>  (235) 
nan

>  <Num_Resolved_Atoms>  (235) 
nan

>  <Num_Not_Resolved_Atoms>  (235) 
nan

$$$$
CHEMBL4763390
     RDKit          3D

  0  0  0  0  0  0  0  0  0  0999 V3000
M  V30 BEGIN CTAB
M  V30 COUNTS 51 56 0 0 0
M  V30 BEGIN ATOM
M  V30 1 F 3.167904 -6.159060 0.211470 0
M  V30 2 C 2.537077 -5.056647 -0.332214 0
M  V30 3 F 1.386053 -5.456032 -1.020623 0
M  V30 4 C 3.437369 -4.290844 -1.246241 0
M  V30 5 C 3.611262 -2.905514 -0.636424 0
M  V30 6 N 2.563208 -2.821691 0.318379 0
M  V30 7 C 2.750690 -1.861169 1.378663 0
M  V30 8 C 2.895153 -0.483724 0.901734 0
M  V30 9 C 4.129088 0.063789 0.589201 0
M  V30 10 N 4.186579 1.347439 0.152810 0
M  V30 11 C 3.084345 2.115574 0.010463 0
M  V30 12 C 1.846066 1.618657 0.306483 0
M  V30 13 C 0.594635 2.359803 0.188712 0
M  V30 14 C 0.541700 3.668368 -0.244600 0
M  V30 15 C -0.626259 4.394628 -0.366152 0
M  V30 16 C -1.824759 3.798286 -0.040944 0
M  V30 17 N -3.126204 4.138659 -0.019130 0
M  V30 18 N -3.847933 3.112892 0.400287 0
M  V30 19 C -3.045138 2.056463 0.670710 0
M  V30 20 C -3.407180 0.739936 1.150054 0
M  V30 21 C -4.683852 0.299701 1.431061 0
M  V30 22 C -4.647368 -0.998466 1.862614 0
M  V30 23 C -5.518233 -1.982198 2.283497 0
M  V30 24 N -5.111238 -3.196115 2.648095 0
M  V30 25 C -3.807040 -3.522369 2.621278 0
M  V30 26 C -2.857337 -2.617902 2.218742 0
M  V30 27 C -3.304988 -1.355999 1.842292 0
M  V30 28 N -2.596082 -0.302843 1.415039 0
M  V30 29 C -1.753475 2.489498 0.390540 0
M  V30 30 N -0.594488 1.814403 0.495853 0
M  V30 31 C 1.783031 0.317670 0.749268 0
M  V30 32 C 2.209311 -4.122975 0.785933 0
M  V30 33 H 4.397060 -4.841625 -1.335407 0
M  V30 34 H 3.014411 -4.227901 -2.271343 0
M  V30 35 H 3.626200 -2.118974 -1.389030 0
M  V30 36 H 4.579734 -2.966034 -0.071604 0
M  V30 37 H 1.870010 -1.990939 2.050090 0
M  V30 38 H 3.623442 -2.220502 1.971461 0
M  V30 39 H 5.019349 -0.553760 0.703201 0
M  V30 40 H 3.160476 3.126765 -0.336530 0
M  V30 41 H 1.427321 4.188401 -0.511512 0
M  V30 42 H -0.640854 5.420963 -0.708822 0
M  V30 43 H -3.422740 5.099108 -0.310259 0
M  V30 44 H -5.629071 0.824557 1.353798 0
M  V30 45 H -6.564862 -1.722844 2.305858 0
M  V30 46 H -3.505058 -4.511715 2.921499 0
M  V30 47 H -1.816915 -2.880132 2.198007 0
M  V30 48 H -1.556747 -0.243283 1.286486 0
M  V30 49 H 0.825035 -0.114204 0.994171 0
M  V30 50 H 1.133980 -4.252936 1.014029 0
M  V30 51 H 2.735036 -4.343871 1.743717 0
M  V30 END ATOM
M  V30 BEGIN BOND
M  V30 1 1 1 2
M  V30 2 1 2 3
M  V30 3 1 2 4
M  V30 4 1 4 5
M  V30 5 1 5 6
M  V30 6 1 6 7
M  V30 7 1 7 8
M  V30 8 2 8 9
M  V30 9 1 9 10
M  V30 10 2 10 11
M  V30 11 1 11 12
M  V30 12 1 12 13
M  V30 13 2 13 14
M  V30 14 1 14 15
M  V30 15 2 15 16
M  V30 16 1 16 17
M  V30 17 1 17 18
M  V30 18 2 18 19
M  V30 19 1 19 20
M  V30 20 2 20 21
M  V30 21 1 21 22
M  V30 22 2 22 23
M  V30 23 1 23 24
M  V30 24 2 24 25
M  V30 25 1 25 26
M  V30 26 2 26 27
M  V30 27 1 27 28
M  V30 28 1 19 29
M  V30 29 2 29 30
M  V30 30 2 12 31
M  V30 31 1 6 32
M  V30 32 1 32 2
M  V30 33 1 31 8
M  V30 34 1 30 13
M  V30 35 1 29 16
M  V30 36 1 28 20
M  V30 37 1 27 22
M  V30 38 1 4 33
M  V30 39 1 4 34
M  V30 40 1 5 35
M  V30 41 1 5 36
M  V30 42 1 7 37
M  V30 43 1 7 38
M  V30 44 1 9 39
M  V30 45 1 11 40
M  V30 46 1 14 41
M  V30 47 1 15 42
M  V30 48 1 17 43
M  V30 49 1 21 44
M  V30 50 1 23 45
M  V30 51 1 25 46
M  V30 52 1 26 47
M  V30 53 1 28 48
M  V30 54 1 31 49
M  V30 55 1 32 50
M  V30 56 1 32 51
M  V30 END BOND
M  V30 END CTAB
M  END
>  <Dataset>  (236) 
ChEMBL_Kinases

>  <Ligand_Instance>  (236) 
nan

>  <PDB_ID>  (236) 
nan

>  <Standardized_SMILES>  (236) 
FC1(F)CCN(Cc2cncc(-c3ccc4[nH]nc(-c5cc6cnccc6[nH]5)c4n3)c2)C1

>  <Name>  (236) 
nan

>  <Pocket>  (236) 
nan

>  <ATP_Site>  (236) 
nan

>  <Peripheral>  (236) 
nan

>  <Num_H_Atoms_ProtBoundConf>  (236) 
nan

>  <Num_Resolved_Atoms>  (236) 
nan

>  <Num_Not_Resolved_Atoms>  (236) 
nan

$$$$
CHEMBL311959
     RDKit          3D

  0  0  0  0  0  0  0  0  0  0999 V3000
M  V30 BEGIN CTAB
M  V30 COUNTS 49 51 0 0 0
M  V30 BEGIN ATOM
M  V30 1 C 3.234744 -5.702717 2.328534 0
M  V30 2 O 1.990408 -5.083140 2.074113 0
M  V30 3 C 1.926249 -3.949414 1.276127 0
M  V30 4 C 3.118075 -3.473202 0.756177 0
M  V30 5 C 3.122720 -2.335491 -0.054501 0
M  V30 6 N 4.247841 -1.832951 -0.590307 0
M  V30 7 C 4.132748 -0.747935 -1.352037 0
M  V30 8 C 2.936145 -0.108815 -1.625052 0
M  V30 9 C 1.764629 -0.633443 -1.065574 0
M  V30 10 N 0.609682 0.106713 -1.414378 0
M  V30 11 C -0.268580 0.800252 -0.539279 0
M  V30 12 C -0.053579 0.970761 0.812642 0
M  V30 13 C -0.910344 1.645683 1.657170 0
M  V30 14 O -0.607355 1.765994 3.012286 0
M  V30 15 C 0.581981 1.199936 3.544726 0
M  V30 16 C -2.066771 2.197814 1.145044 0
M  V30 17 O -2.897844 2.867332 2.031000 0
M  V30 18 C -3.948041 2.276169 2.761767 0
M  V30 19 C -2.304214 2.036338 -0.224266 0
M  V30 20 O -3.462499 2.599697 -0.689155 0
M  V30 21 C -3.948191 2.594727 -1.994750 0
M  V30 22 C -1.426327 1.355209 -1.041022 0
M  V30 23 C 1.891123 -1.758684 -0.277887 0
M  V30 24 C 0.713043 -2.222427 0.230427 0
M  V30 25 C 0.708033 -3.345086 1.030469 0
M  V30 26 O -0.401865 -3.914649 1.604061 0
M  V30 27 C -1.724237 -3.477541 1.493315 0
M  V30 28 H 3.914002 -5.000155 2.894372 0
M  V30 29 H 3.721422 -6.114876 1.443071 0
M  V30 30 H 3.048749 -6.545530 3.028205 0
M  V30 31 H 4.069477 -3.944339 0.947290 0
M  V30 32 H 5.066042 -0.362824 -1.773885 0
M  V30 33 H 2.974431 0.760114 -2.255482 0
M  V30 34 H 0.427368 0.113290 -2.439606 0
M  V30 35 H 0.868572 0.524535 1.189155 0
M  V30 36 H 0.732155 0.158913 3.191623 0
M  V30 37 H 1.430325 1.803003 3.165067 0
M  V30 38 H 0.572574 1.165606 4.638639 0
M  V30 39 H -4.406176 3.086758 3.364977 0
M  V30 40 H -4.686168 1.785562 2.100090 0
M  V30 41 H -3.532501 1.505942 3.438563 0
M  V30 42 H -5.073081 2.530442 -1.918496 0
M  V30 43 H -3.657425 1.677566 -2.571824 0
M  V30 44 H -3.669760 3.534806 -2.531961 0
M  V30 45 H -1.661237 1.260209 -2.097095 0
M  V30 46 H -0.244841 -1.766742 0.041528 0
M  V30 47 H -2.229510 -3.692839 2.478626 0
M  V30 48 H -1.723299 -2.390590 1.299428 0
M  V30 49 H -2.305792 -4.027432 0.723662 0
M  V30 END ATOM
M  V30 BEGIN BOND
M  V30 1 1 1 2
M  V30 2 1 2 3
M  V30 3 2 3 4
M  V30 4 1 4 5
M  V30 5 2 5 6
M  V30 6 1 6 7
M  V30 7 2 7 8
M  V30 8 1 8 9
M  V30 9 1 9 10
M  V30 10 1 10 11
M  V30 11 2 11 12
M  V30 12 1 12 13
M  V30 13 1 13 14
M  V30 14 1 14 15
M  V30 15 2 13 16
M  V30 16 1 16 17
M  V30 17 1 17 18
M  V30 18 1 16 19
M  V30 19 1 19 20
M  V30 20 1 20 21
M  V30 21 2 19 22
M  V30 22 2 9 23
M  V30 23 1 23 24
M  V30 24 2 24 25
M  V30 25 1 25 26
M  V30 26 1 26 27
M  V30 27 1 25 3
M  V30 28 1 23 5
M  V30 29 1 22 11
M  V30 30 1 1 28
M  V30 31 1 1 29
M  V30 32 1 1 30
M  V30 33 1 4 31
M  V30 34 1 7 32
M  V30 35 1 8 33
M  V30 36 1 10 34
M  V30 37 1 12 35
M  V30 38 1 15 36
M  V30 39 1 15 37
M  V30 40 1 15 38
M  V30 41 1 18 39
M  V30 42 1 18 40
M  V30 43 1 18 41
M  V30 44 1 21 42
M  V30 45 1 21 43
M  V30 46 1 21 44
M  V30 47 1 22 45
M  V30 48 1 24 46
M  V30 49 1 27 47
M  V30 50 1 27 48
M  V30 51 1 27 49
M  V30 END BOND
M  V30 END CTAB
M  END
>  <Dataset>  (237) 
ChEMBL_Kinases

>  <Ligand_Instance>  (237) 
nan

>  <PDB_ID>  (237) 
nan

>  <Standardized_SMILES>  (237) 
COc1cc2nccc(Nc3cc(OC)c(OC)c(OC)c3)c2cc1OC

>  <Name>  (237) 
nan

>  <Pocket>  (237) 
nan

>  <ATP_Site>  (237) 
nan

>  <Peripheral>  (237) 
nan

>  <Num_H_Atoms_ProtBoundConf>  (237) 
nan

>  <Num_Resolved_Atoms>  (237) 
nan

>  <Num_Not_Resolved_Atoms>  (237) 
nan

$$$$
CHEMBL4763219
     RDKit          3D

  0  0  0  0  0  0  0  0  0  0999 V3000
M  V30 BEGIN CTAB
M  V30 COUNTS 58 63 0 0 0
M  V30 BEGIN ATOM
M  V30 1 F 3.461665 -1.742345 0.228650 0
M  V30 2 C 2.697724 -0.861593 0.913398 0
M  V30 3 C 1.940450 -1.294531 1.974448 0
M  V30 4 C 1.161831 -0.362550 2.668830 0
M  V30 5 C 1.182230 0.960725 2.256322 0
M  V30 6 C 1.951440 1.399112 1.175230 0
M  V30 7 C 1.805082 2.834648 0.944241 0
M  V30 8 C 2.934934 3.613296 0.861322 0
M  V30 9 N 2.853303 4.960367 0.678312 0
M  V30 10 C 1.618135 5.500356 0.581231 0
M  V30 11 C 0.497848 4.699700 0.664944 0
M  V30 12 N -0.795093 5.028160 0.594189 0
M  V30 13 C -1.597362 3.989012 0.718246 0
M  V30 14 C -2.983494 3.588356 0.759539 0
M  V30 15 N -3.889245 4.600667 0.620068 0
M  V30 16 N -5.094751 4.071428 0.690180 0
M  V30 17 C -5.043780 2.746265 0.871584 0
M  V30 18 C -3.713301 2.450060 0.914925 0
M  V30 19 C -3.066297 1.206661 1.120372 0
M  V30 20 C -2.516506 0.111698 1.287009 0
M  V30 21 C -1.898769 -1.174310 1.487829 0
M  V30 22 C -2.018011 -1.726639 2.756083 0
M  V30 23 N -1.470692 -2.954397 2.874237 0
M  V30 24 C -0.867318 -3.576483 1.850024 0
M  V30 25 C -0.735911 -3.047027 0.583762 0
M  V30 26 O -0.125848 -3.672785 -0.488425 0
M  V30 27 C 0.316283 -4.998388 -0.486409 0
M  V30 28 C -0.389795 -5.641866 -1.696506 0
M  V30 29 C 0.483808 -6.718183 -2.266840 0
M  V30 30 N 1.682404 -6.166313 -2.817681 0
M  V30 31 C 2.251827 -5.102976 -2.013154 0
M  V30 32 C 1.762247 -5.253855 -0.602664 0
M  V30 33 C -1.287781 -1.770278 0.406465 0
M  V30 34 N -0.732693 2.944775 0.875182 0
M  V30 35 C 0.537356 3.354127 0.846483 0
M  V30 36 C 2.695532 0.457478 0.528524 0
M  V30 37 H 1.926073 -2.332471 2.289974 0
M  V30 38 H 0.579829 -0.709928 3.505208 0
M  V30 39 H 0.545980 1.599411 2.858794 0
M  V30 40 H 3.917219 3.136866 0.936694 0
M  V30 41 H 1.491539 6.566157 0.435714 0
M  V30 42 H -1.293516 5.955709 0.462346 0
M  V30 43 H -6.049347 4.532681 0.624096 0
M  V30 44 H -5.777782 1.979755 0.976645 0
M  V30 45 H -2.515471 -1.174697 3.540541 0
M  V30 46 H -0.480386 -4.535866 2.093965 0
M  V30 47 H -0.031547 -5.533793 0.439183 0
M  V30 48 H -1.341771 -6.016894 -1.334316 0
M  V30 49 H -0.469790 -4.859855 -2.491422 0
M  V30 50 H 0.672838 -7.539941 -1.531541 0
M  V30 51 H -0.118155 -7.178616 -3.098960 0
M  V30 52 H 1.421793 -5.732287 -3.742467 0
M  V30 53 H 3.370790 -5.144267 -2.057728 0
M  V30 54 H 1.954415 -4.103171 -2.377503 0
M  V30 55 H 2.389831 -4.684972 0.123443 0
M  V30 56 H 1.927716 -6.326828 -0.287458 0
M  V30 57 H -1.243916 -1.250130 -0.540315 0
M  V30 58 H 3.260819 0.862913 -0.297581 0
M  V30 END ATOM
M  V30 BEGIN BOND
M  V30 1 1 1 2
M  V30 2 2 2 3
M  V30 3 1 3 4
M  V30 4 2 4 5
M  V30 5 1 5 6
M  V30 6 1 6 7
M  V30 7 2 7 8
M  V30 8 1 8 9
M  V30 9 2 9 10
M  V30 10 1 10 11
M  V30 11 1 11 12
M  V30 12 1 12 13
M  V30 13 1 13 14
M  V30 14 2 14 15
M  V30 15 1 15 16
M  V30 16 1 16 17
M  V30 17 2 17 18
M  V30 18 1 18 19
M  V30 19 3 19 20
M  V30 20 1 20 21
M  V30 21 2 21 22
M  V30 22 1 22 23
M  V30 23 2 23 24
M  V30 24 1 24 25
M  V30 25 1 25 26
M  V30 26 1 26 27
M  V30 27 1 27 28
M  V30 28 1 28 29
M  V30 29 1 29 30
M  V30 30 1 30 31
M  V30 31 1 31 32
M  V30 32 2 25 33
M  V30 33 2 13 34
M  V30 34 1 34 35
M  V30 35 2 6 36
M  V30 36 1 36 2
M  V30 37 1 35 7
M  V30 38 2 35 11
M  V30 39 1 18 14
M  V30 40 1 33 21
M  V30 41 1 32 27
M  V30 42 1 3 37
M  V30 43 1 4 38
M  V30 44 1 5 39
M  V30 45 1 8 40
M  V30 46 1 10 41
M  V30 47 1 12 42
M  V30 48 1 16 43
M  V30 49 1 17 44
M  V30 50 1 22 45
M  V30 51 1 24 46
M  V30 52 1 27 47
M  V30 53 1 28 48
M  V30 54 1 28 49
M  V30 55 1 29 50
M  V30 56 1 29 51
M  V30 57 1 30 52
M  V30 58 1 31 53
M  V30 59 1 31 54
M  V30 60 1 32 55
M  V30 61 1 32 56
M  V30 62 1 33 57
M  V30 63 1 36 58
M  V30 END BOND
M  V30 END CTAB
M  END
>  <Dataset>  (238) 
ChEMBL_Kinases

>  <Ligand_Instance>  (238) 
nan

>  <PDB_ID>  (238) 
nan

>  <Standardized_SMILES>  (238) 
Fc1cccc(-c2cncc3[nH]c(-c4n[nH]cc4C#Cc4cncc(OC5CCNCC5)c4)nc23)c1

>  <Name>  (238) 
nan

>  <Pocket>  (238) 
nan

>  <ATP_Site>  (238) 
nan

>  <Peripheral>  (238) 
nan

>  <Num_H_Atoms_ProtBoundConf>  (238) 
nan

>  <Num_Resolved_Atoms>  (238) 
nan

>  <Num_Not_Resolved_Atoms>  (238) 
nan

$$$$
CHEMBL4763204
     RDKit          3D

  0  0  0  0  0  0  0  0  0  0999 V3000
M  V30 BEGIN CTAB
M  V30 COUNTS 60 66 0 0 0
M  V30 BEGIN ATOM
M  V30 1 F 5.534722 -1.768500 5.368983 0
M  V30 2 C 4.974088 -0.971263 4.387073 0
M  V30 3 F 3.607209 -1.157969 4.324711 0
M  V30 4 C 5.585507 -1.327826 3.053920 0
M  V30 5 C 6.601560 -0.197678 2.829057 0
M  V30 6 N 5.991472 0.897598 3.465605 0
M  V30 7 C 5.415288 1.933499 2.706003 0
M  V30 8 C 4.346525 1.392030 1.833396 0
M  V30 9 C 4.536939 0.999263 0.524581 0
M  V30 10 N 3.586496 0.500079 -0.284254 0
M  V30 11 C 2.310568 0.348785 0.177245 0
M  V30 12 C 2.029682 0.717214 1.476676 0
M  V30 13 C 0.653205 0.537240 1.922645 0
M  V30 14 C 0.168544 0.841594 3.176173 0
M  V30 15 C -1.147031 0.649723 3.542711 0
M  V30 16 C -2.050654 0.131992 2.643494 0
M  V30 17 N -3.343516 -0.147187 2.733176 0
M  V30 18 N -3.708704 -0.629001 1.556723 0
M  V30 19 C -2.652865 -0.663819 0.699617 0
M  V30 20 C -2.651126 -1.126791 -0.682566 0
M  V30 21 C -3.762958 -1.612643 -1.338764 0
M  V30 22 C -3.398930 -1.956456 -2.623836 0
M  V30 23 C -4.156865 -2.482268 -3.651040 0
M  V30 24 C -5.581128 -2.790505 -3.557468 0
M  V30 25 C -6.611937 -2.042353 -3.024622 0
M  V30 26 C -7.893303 -2.568400 -3.059198 0
M  V30 27 C -8.162109 -3.808471 -3.607208 0
M  V30 28 N -7.141343 -4.547279 -4.133894 0
M  V30 29 C -5.871966 -4.043213 -4.107797 0
M  V30 30 C -3.470905 -2.713286 -4.828470 0
M  V30 31 N -2.150220 -2.452434 -4.992162 0
M  V30 32 C -1.427393 -1.934875 -3.964655 0
M  V30 33 C -2.054514 -1.678126 -2.752412 0
M  V30 34 N -1.637852 -1.176203 -1.552580 0
M  V30 35 C -1.547357 -0.166491 1.394232 0
M  V30 36 N -0.240022 0.031934 1.053090 0
M  V30 37 C 3.038677 1.223715 2.265921 0
M  V30 38 C 5.341062 0.488791 4.658013 0
M  V30 39 H 6.116456 -2.308875 3.115460 0
M  V30 40 H 4.859304 -1.320196 2.218442 0
M  V30 41 H 7.585978 -0.494900 3.267442 0
M  V30 42 H 6.667346 -0.047658 1.744258 0
M  V30 43 H 6.150336 2.435673 2.033779 0
M  V30 44 H 4.989502 2.739808 3.354043 0
M  V30 45 H 5.501742 1.084136 0.055696 0
M  V30 46 H 1.580005 -0.056573 -0.508918 0
M  V30 47 H 0.847351 1.244882 3.894636 0
M  V30 48 H -1.451129 0.919195 4.563501 0
M  V30 49 H -3.982708 -0.032682 3.530742 0
M  V30 50 H -4.754054 -1.697479 -0.884484 0
M  V30 51 H -6.285868 -1.109581 -2.633749 0
M  V30 52 H -8.639692 -1.911519 -2.618266 0
M  V30 53 H -9.200709 -4.124010 -3.582228 0
M  V30 54 H -5.159540 -4.730750 -4.557677 0
M  V30 55 H -4.048006 -3.129816 -5.658710 0
M  V30 56 H -0.377608 -1.713300 -4.052415 0
M  V30 57 H -0.665988 -0.879435 -1.360623 0
M  V30 58 H 2.753622 1.488265 3.251443 0
M  V30 59 H 5.999739 0.551643 5.566684 0
M  V30 60 H 4.411753 1.017792 4.893694 0
M  V30 END ATOM
M  V30 BEGIN BOND
M  V30 1 1 1 2
M  V30 2 1 2 3
M  V30 3 1 2 4
M  V30 4 1 4 5
M  V30 5 1 5 6
M  V30 6 1 6 7
M  V30 7 1 7 8
M  V30 8 2 8 9
M  V30 9 1 9 10
M  V30 10 2 10 11
M  V30 11 1 11 12
M  V30 12 1 12 13
M  V30 13 2 13 14
M  V30 14 1 14 15
M  V30 15 2 15 16
M  V30 16 1 16 17
M  V30 17 1 17 18
M  V30 18 2 18 19
M  V30 19 1 19 20
M  V30 20 2 20 21
M  V30 21 1 21 22
M  V30 22 2 22 23
M  V30 23 1 23 24
M  V30 24 2 24 25
M  V30 25 1 25 26
M  V30 26 2 26 27
M  V30 27 1 27 28
M  V30 28 2 28 29
M  V30 29 1 23 30
M  V30 30 2 30 31
M  V30 31 1 31 32
M  V30 32 2 32 33
M  V30 33 1 33 34
M  V30 34 1 19 35
M  V30 35 2 35 36
M  V30 36 2 12 37
M  V30 37 1 6 38
M  V30 38 1 38 2
M  V30 39 1 37 8
M  V30 40 1 36 13
M  V30 41 1 35 16
M  V30 42 1 34 20
M  V30 43 1 33 22
M  V30 44 1 29 24
M  V30 45 1 4 39
M  V30 46 1 4 40
M  V30 47 1 5 41
M  V30 48 1 5 42
M  V30 49 1 7 43
M  V30 50 1 7 44
M  V30 51 1 9 45
M  V30 52 1 11 46
M  V30 53 1 14 47
M  V30 54 1 15 48
M  V30 55 1 17 49
M  V30 56 1 21 50
M  V30 57 1 25 51
M  V30 58 1 26 52
M  V30 59 1 27 53
M  V30 60 1 29 54
M  V30 61 1 30 55
M  V30 62 1 32 56
M  V30 63 1 34 57
M  V30 64 1 37 58
M  V30 65 1 38 59
M  V30 66 1 38 60
M  V30 END BOND
M  V30 END CTAB
M  END
>  <Dataset>  (239) 
ChEMBL_Kinases

>  <Ligand_Instance>  (239) 
nan

>  <PDB_ID>  (239) 
nan

>  <Standardized_SMILES>  (239) 
FC1(F)CCN(Cc2cncc(-c3ccc4[nH]nc(-c5cc6c(-c7cccnc7)cncc6[nH]5)c4n3)c2)C1

>  <Name>  (239) 
nan

>  <Pocket>  (239) 
nan

>  <ATP_Site>  (239) 
nan

>  <Peripheral>  (239) 
nan

>  <Num_H_Atoms_ProtBoundConf>  (239) 
nan

>  <Num_Resolved_Atoms>  (239) 
nan

>  <Num_Not_Resolved_Atoms>  (239) 
nan

$$$$
CHEMBL4763112
     RDKit          3D

  0  0  0  0  0  0  0  0  0  0999 V3000
M  V30 BEGIN CTAB
M  V30 COUNTS 62 66 0 0 0
M  V30 BEGIN ATOM
M  V30 1 O -0.713603 -3.859173 -2.448979 0
M  V30 2 C -1.095677 -4.437408 -1.386657 0
M  V30 3 N -0.267235 -4.337175 -0.235687 0
M  V30 4 C 0.987562 -3.652045 -0.086736 0
M  V30 5 C 1.003854 -2.322294 0.323059 0
M  V30 6 C 2.195448 -1.646687 0.474169 0
M  V30 7 C 2.287558 -0.340001 0.874388 0
M  V30 8 C 3.452180 0.375714 1.040547 0
M  V30 9 C 3.466072 1.764761 1.472414 0
M  V30 10 C 4.657465 2.439745 1.621688 0
M  V30 11 N 4.602052 3.719193 2.021956 0
M  V30 12 C 3.434668 4.323345 2.269116 0
M  V30 13 C 2.202032 3.674738 2.130007 0
M  V30 14 N 0.969728 4.319932 2.392114 0
M  V30 15 C -0.334659 3.757194 2.285361 0
M  V30 16 C -0.569548 2.556117 3.201067 0
M  V30 17 C -1.391664 1.515424 2.457343 0
M  V30 18 N -2.521859 2.054490 1.800615 0
M  V30 19 C -2.186678 3.048244 0.842227 0
M  V30 20 C -0.715649 3.356023 0.858454 0
M  V30 21 N 2.312045 2.398049 1.727690 0
M  V30 22 C 4.588090 -0.348368 0.762328 0
M  V30 23 C 4.612815 -1.665990 0.353557 0
M  V30 24 C 3.395738 -2.320128 0.208577 0
M  V30 25 C 3.347663 -3.646878 -0.198774 0
M  V30 26 N 2.160671 -4.302652 -0.344238 0
M  V30 27 C -2.353060 -5.213762 -1.264182 0
M  V30 28 C -3.052849 -5.181592 -2.580898 0
M  V30 29 C -4.332628 -4.418640 -2.625442 0
M  V30 30 C -4.166367 -3.176377 -1.751616 0
M  V30 31 C -4.186460 -3.727684 -0.337095 0
M  V30 32 C -3.190509 -4.798463 -0.094601 0
M  V30 33 H -0.457530 -4.753503 0.681471 0
M  V30 34 H 0.074011 -1.811995 0.525310 0
M  V30 35 H 1.332171 0.112929 1.060677 0
M  V30 36 H 5.620032 2.022182 1.442824 0
M  V30 37 H 3.416114 5.348376 2.589443 0
M  V30 38 H 1.069294 5.327409 2.697744 0
M  V30 39 H -1.082008 4.519885 2.574578 0
M  V30 40 H 0.405685 2.188801 3.508445 0
M  V30 41 H -1.126873 2.888797 4.094379 0
M  V30 42 H -1.725354 0.776867 3.242449 0
M  V30 43 H -0.808392 0.915475 1.745052 0
M  V30 44 H -3.171966 1.311669 1.500143 0
M  V30 45 H -2.773954 3.968417 1.090747 0
M  V30 46 H -2.497476 2.692220 -0.170602 0
M  V30 47 H -0.538312 4.192500 0.154347 0
M  V30 48 H -0.161963 2.442800 0.542728 0
M  V30 49 H 5.565977 0.097358 0.853730 0
M  V30 50 H 5.539271 -2.197224 0.146066 0
M  V30 51 H 4.279026 -4.183468 -0.408794 0
M  V30 52 H -2.036923 -6.265156 -1.076932 0
M  V30 53 H -3.295580 -6.217766 -2.960748 0
M  V30 54 H -2.391180 -4.773612 -3.393211 0
M  V30 55 H -5.214932 -4.970689 -2.251232 0
M  V30 56 H -4.518049 -4.080310 -3.667629 0
M  V30 57 H -3.251999 -2.623131 -1.985155 0
M  V30 58 H -5.053685 -2.500527 -1.840209 0
M  V30 59 H -5.240871 -4.100621 -0.181378 0
M  V30 60 H -4.108179 -2.875789 0.386403 0
M  V30 61 H -3.723220 -5.703388 0.302083 0
M  V30 62 H -2.521514 -4.478398 0.719208 0
M  V30 END ATOM
M  V30 BEGIN BOND
M  V30 1 2 1 2
M  V30 2 1 2 3
M  V30 3 1 3 4
M  V30 4 2 4 5
M  V30 5 1 5 6
M  V30 6 2 6 7
M  V30 7 1 7 8
M  V30 8 1 8 9
M  V30 9 2 9 10
M  V30 10 1 10 11
M  V30 11 2 11 12
M  V30 12 1 12 13
M  V30 13 1 13 14
M  V30 14 1 14 15
M  V30 15 1 15 16
M  V30 16 1 16 17
M  V30 17 1 17 18
M  V30 18 1 18 19
M  V30 19 1 19 20
M  V30 20 2 13 21
M  V30 21 2 8 22
M  V30 22 1 22 23
M  V30 23 2 23 24
M  V30 24 1 24 25
M  V30 25 2 25 26
M  V30 26 1 2 27
M  V30 27 1 27 28
M  V30 28 1 28 29
M  V30 29 1 29 30
M  V30 30 1 30 31
M  V30 31 1 31 32
M  V30 32 1 26 4
M  V30 33 1 32 27
M  V30 34 1 24 6
M  V30 35 1 21 9
M  V30 36 1 20 15
M  V30 37 1 3 33
M  V30 38 1 5 34
M  V30 39 1 7 35
M  V30 40 1 10 36
M  V30 41 1 12 37
M  V30 42 1 14 38
M  V30 43 1 15 39
M  V30 44 1 16 40
M  V30 45 1 16 41
M  V30 46 1 17 42
M  V30 47 1 17 43
M  V30 48 1 18 44
M  V30 49 1 19 45
M  V30 50 1 19 46
M  V30 51 1 20 47
M  V30 52 1 20 48
M  V30 53 1 22 49
M  V30 54 1 23 50
M  V30 55 1 25 51
M  V30 56 1 27 52
M  V30 57 1 28 53
M  V30 58 1 28 54
M  V30 59 1 29 55
M  V30 60 1 29 56
M  V30 61 1 30 57
M  V30 62 1 30 58
M  V30 63 1 31 59
M  V30 64 1 31 60
M  V30 65 1 32 61
M  V30 66 1 32 62
M  V30 END BOND
M  V30 END CTAB
M  END
>  <Dataset>  (240) 
ChEMBL_Kinases

>  <Ligand_Instance>  (240) 
nan

>  <PDB_ID>  (240) 
nan

>  <Standardized_SMILES>  (240) 
O=C(Nc1cc2cc(-c3cncc(NC4CCNCC4)n3)ccc2cn1)C1CCCCC1

>  <Name>  (240) 
nan

>  <Pocket>  (240) 
nan

>  <ATP_Site>  (240) 
nan

>  <Peripheral>  (240) 
nan

>  <Num_H_Atoms_ProtBoundConf>  (240) 
nan

>  <Num_Resolved_Atoms>  (240) 
nan

>  <Num_Not_Resolved_Atoms>  (240) 
nan

$$$$
CHEMBL426587
     RDKit          3D

  0  0  0  0  0  0  0  0  0  0999 V3000
M  V30 BEGIN CTAB
M  V30 COUNTS 67 73 0 0 0
M  V30 BEGIN ATOM
M  V30 1 C 1.825970 -4.724857 4.495332 0
M  V30 2 N 2.011011 -5.174940 3.191251 0
M  V30 3 C 1.204621 -6.229777 2.691579 0
M  V30 4 C 2.980008 -4.627705 2.351029 0
M  V30 5 C 2.622885 -3.189632 1.972748 0
M  V30 6 C 3.674390 -2.611406 1.038815 0
M  V30 7 N 3.257773 -1.258209 0.749191 0
M  V30 8 N 2.477606 -0.747147 -0.190695 0
M  V30 9 C 2.369966 0.594373 -0.062971 0
M  V30 10 C 1.633557 1.621655 -0.783656 0
M  V30 11 C 0.360124 1.696566 -1.116934 0
M  V30 12 C -0.823450 0.866764 -0.942266 0
M  V30 13 C -1.809289 0.635104 -1.880272 0
M  V30 14 N -2.763466 -0.165181 -1.361721 0
M  V30 15 C -3.901330 -0.503001 -2.137309 0
M  V30 16 C -3.935243 -1.853951 -2.646744 0
M  V30 17 S -5.576217 -1.891430 -3.594786 0
M  V30 18 C -6.032731 -0.119973 -3.211746 0
M  V30 19 C -7.140342 0.591636 -3.581465 0
M  V30 20 C -7.212732 1.890593 -3.149527 0
M  V30 21 C -6.175422 2.352624 -2.391448 0
M  V30 22 C -5.081727 1.638418 -2.030162 0
M  V30 23 C -4.939431 0.335058 -2.424060 0
M  V30 24 C -2.466125 -0.490957 -0.102822 0
M  V30 25 C -3.121811 -1.266946 0.829892 0
M  V30 26 C -2.556976 -1.414647 2.084537 0
M  V30 27 C -1.351846 -0.789231 2.387621 0
M  V30 28 C -0.756977 -0.031495 1.405322 0
M  V30 29 C -1.265422 0.147251 0.159949 0
M  V30 30 C 0.176679 2.968645 -1.864001 0
M  V30 31 O -0.874245 3.459612 -2.376272 0
M  V30 32 N 1.418722 3.676425 -1.973505 0
M  V30 33 C 2.337685 2.820521 -1.289104 0
M  V30 34 O 3.551114 3.189846 -1.218425 0
M  V30 35 C 3.152475 0.920150 1.052845 0
M  V30 36 C 3.450716 2.095943 1.706703 0
M  V30 37 C 4.254840 2.170954 2.807198 0
M  V30 38 C 4.803840 1.008681 3.301023 0
M  V30 39 C 4.510285 -0.164551 2.657201 0
M  V30 40 C 3.693511 -0.234940 1.542131 0
M  V30 41 H 1.230920 -5.462532 5.110467 0
M  V30 42 H 1.200469 -3.784341 4.565974 0
M  V30 43 H 2.779993 -4.480685 5.042186 0
M  V30 44 H 1.333903 -7.162868 3.289867 0
M  V30 45 H 0.121756 -5.952094 2.746645 0
M  V30 46 H 1.428301 -6.416116 1.617010 0
M  V30 47 H 4.005617 -4.625057 2.830283 0
M  V30 48 H 3.075982 -5.164244 1.389508 0
M  V30 49 H 1.680864 -3.175450 1.391956 0
M  V30 50 H 2.576390 -2.552342 2.880143 0
M  V30 51 H 4.669102 -2.628897 1.509887 0
M  V30 52 H 3.764866 -3.231007 0.121663 0
M  V30 53 H -1.752316 1.070731 -2.873596 0
M  V30 54 H -3.282785 -2.627696 -2.556853 0
M  V30 55 H -7.847030 0.055894 -4.177466 0
M  V30 56 H -8.078105 2.468055 -3.429920 0
M  V30 57 H -6.254589 3.397149 -2.056782 0
M  V30 58 H -4.345217 2.151166 -1.428083 0
M  V30 59 H -4.052549 -1.742955 0.579067 0
M  V30 60 H -3.032860 -2.018254 2.864280 0
M  V30 61 H -0.916653 -0.906416 3.365331 0
M  V30 62 H 0.162724 0.430886 1.692849 0
M  V30 63 H 1.583858 4.594982 -2.444706 0
M  V30 64 H 3.062973 3.055587 1.402440 0
M  V30 65 H 4.503283 3.076023 3.331870 0
M  V30 66 H 5.453288 1.018652 4.179318 0
M  V30 67 H 4.955574 -1.079230 3.066963 0
M  V30 END ATOM
M  V30 BEGIN BOND
M  V30 1 1 1 2
M  V30 2 1 2 3
M  V30 3 1 2 4
M  V30 4 1 4 5
M  V30 5 1 5 6
M  V30 6 1 6 7
M  V30 7 1 7 8
M  V30 8 2 8 9
M  V30 9 1 9 10
M  V30 10 2 10 11
M  V30 11 1 11 12
M  V30 12 2 12 13
M  V30 13 1 13 14
M  V30 14 1 14 15
M  V30 15 2 15 16
M  V30 16 1 16 17
M  V30 17 1 17 18
M  V30 18 2 18 19
M  V30 19 1 19 20
M  V30 20 2 20 21
M  V30 21 1 21 22
M  V30 22 2 22 23
M  V30 23 1 14 24
M  V30 24 2 24 25
M  V30 25 1 25 26
M  V30 26 2 26 27
M  V30 27 1 27 28
M  V30 28 2 28 29
M  V30 29 1 11 30
M  V30 30 2 30 31
M  V30 31 1 30 32
M  V30 32 1 32 33
M  V30 33 2 33 34
M  V30 34 1 9 35
M  V30 35 2 35 36
M  V30 36 1 36 37
M  V30 37 2 37 38
M  V30 38 1 38 39
M  V30 39 2 39 40
M  V30 40 1 40 7
M  V30 41 1 33 10
M  V30 42 1 40 35
M  V30 43 1 29 12
M  V30 44 1 23 15
M  V30 45 1 29 24
M  V30 46 1 23 18
M  V30 47 1 1 41
M  V30 48 1 1 42
M  V30 49 1 1 43
M  V30 50 1 3 44
M  V30 51 1 3 45
M  V30 52 1 3 46
M  V30 53 1 4 47
M  V30 54 1 4 48
M  V30 55 1 5 49
M  V30 56 1 5 50
M  V30 57 1 6 51
M  V30 58 1 6 52
M  V30 59 1 13 53
M  V30 60 1 16 54
M  V30 61 1 19 55
M  V30 62 1 20 56
M  V30 63 1 21 57
M  V30 64 1 22 58
M  V30 65 1 25 59
M  V30 66 1 26 60
M  V30 67 1 27 61
M  V30 68 1 28 62
M  V30 69 1 32 63
M  V30 70 1 36 64
M  V30 71 1 37 65
M  V30 72 1 38 66
M  V30 73 1 39 67
M  V30 END BOND
M  V30 END CTAB
M  END
>  <Dataset>  (241) 
ChEMBL_Kinases

>  <Ligand_Instance>  (241) 
nan

>  <PDB_ID>  (241) 
nan

>  <Standardized_SMILES>  (241) 
CN(C)CCCn1nc(C2=C(c3cn(-c4csc5ccccc45)c4ccccc34)C(=O)NC2=O)c2ccccc21

>  <Name>  (241) 
nan

>  <Pocket>  (241) 
nan

>  <ATP_Site>  (241) 
nan

>  <Peripheral>  (241) 
nan

>  <Num_H_Atoms_ProtBoundConf>  (241) 
nan

>  <Num_Resolved_Atoms>  (241) 
nan

>  <Num_Not_Resolved_Atoms>  (241) 
nan

$$$$
CHEMBL427058
     RDKit          3D

  0  0  0  0  0  0  0  0  0  0999 V3000
M  V30 BEGIN CTAB
M  V30 COUNTS 47 50 0 0 0
M  V30 BEGIN ATOM
M  V30 1 C -1.923857 1.440292 2.977168 0
M  V30 2 C -1.511181 0.027808 3.035068 0
M  V30 3 C -0.482621 -0.483032 2.359854 0
M  V30 4 C 0.232307 0.480306 1.531281 0
M  V30 5 O -0.048885 1.721543 1.416483 0
M  V30 6 N 1.361595 0.192004 0.714613 0
M  V30 7 C 1.775554 1.403982 0.057311 0
M  V30 8 C 1.254417 1.748465 -1.177089 0
M  V30 9 C 1.703256 2.929701 -1.743258 0
M  V30 10 Cl 1.114616 3.460824 -3.294115 0
M  V30 11 C 2.632750 3.704890 -1.073548 0
M  V30 12 N 3.220785 4.886795 -1.412180 0
M  V30 13 N 4.061128 5.263217 -0.449053 0
M  V30 14 C 4.049750 4.340392 0.549641 0
M  V30 15 C 3.151704 3.356281 0.161819 0
M  V30 16 C 2.700389 2.161518 0.738840 0
M  V30 17 C -0.010020 -1.867182 2.364246 0
M  V30 18 C -0.510055 -2.704908 1.258925 0
M  V30 19 C 0.399778 -3.366032 0.443128 0
M  V30 20 C 0.006443 -4.174850 -0.622648 0
M  V30 21 C -1.335231 -4.345628 -0.904275 0
M  V30 22 C -1.681961 -5.216241 -2.047992 0
M  V30 23 F -3.008967 -5.019982 -2.445696 0
M  V30 24 F -1.531927 -6.559980 -1.781145 0
M  V30 25 F -0.882290 -4.928816 -3.142445 0
M  V30 26 C -2.263704 -3.696471 -0.104866 0
M  V30 27 C -1.830603 -2.906171 0.938668 0
M  V30 28 C -0.398385 -2.539249 3.674831 0
M  V30 29 C -1.838013 -2.281444 3.918281 0
M  V30 30 O -2.720805 -3.147080 4.168833 0
M  V30 31 N -2.224699 -0.921586 3.856213 0
M  V30 32 H -2.313949 1.730166 1.957796 0
M  V30 33 H -2.844426 1.547243 3.623756 0
M  V30 34 H -1.217906 2.163997 3.381537 0
M  V30 35 H 1.727136 -0.805363 0.695256 0
M  V30 36 H 0.536892 1.130277 -1.672264 0
M  V30 37 H 3.081044 5.461834 -2.275293 0
M  V30 38 H 4.612118 4.340534 1.471724 0
M  V30 39 H 3.117515 1.916828 1.692657 0
M  V30 40 H 1.115817 -1.897904 2.282300 0
M  V30 41 H 1.471515 -3.288920 0.591235 0
M  V30 42 H 0.756633 -4.675657 -1.237878 0
M  V30 43 H -3.294515 -3.831468 -0.326147 0
M  V30 44 H -2.573612 -2.426347 1.525246 0
M  V30 45 H 0.205466 -2.105760 4.496814 0
M  V30 46 H -0.199666 -3.624826 3.541999 0
M  V30 47 H -3.051245 -0.538274 4.405964 0
M  V30 END ATOM
M  V30 BEGIN BOND
M  V30 1 1 1 2
M  V30 2 2 2 3
M  V30 3 1 3 4
M  V30 4 2 4 5
M  V30 5 1 4 6
M  V30 6 1 6 7
M  V30 7 2 7 8
M  V30 8 1 8 9
M  V30 9 1 9 10
M  V30 10 2 9 11
M  V30 11 1 11 12
M  V30 12 1 12 13
M  V30 13 2 13 14
M  V30 14 1 14 15
M  V30 15 2 15 16
M  V30 16 1 3 17
M  V30 17 1 17 18
M  V30 18 2 18 19
M  V30 19 1 19 20
M  V30 20 2 20 21
M  V30 21 1 21 22
M  V30 22 1 22 23
M  V30 23 1 22 24
M  V30 24 1 22 25
M  V30 25 1 21 26
M  V30 26 2 26 27
M  V30 27 1 17 28
M  V30 28 1 28 29
M  V30 29 2 29 30
M  V30 30 1 29 31
M  V30 31 1 31 2
M  V30 32 1 16 7
M  V30 33 1 27 18
M  V30 34 1 15 11
M  V30 35 1 1 32
M  V30 36 1 1 33
M  V30 37 1 1 34
M  V30 38 1 6 35
M  V30 39 1 8 36
M  V30 40 1 12 37
M  V30 41 1 14 38
M  V30 42 1 16 39
M  V30 43 1 17 40
M  V30 44 1 19 41
M  V30 45 1 20 42
M  V30 46 1 26 43
M  V30 47 1 27 44
M  V30 48 1 28 45
M  V30 49 1 28 46
M  V30 50 1 31 47
M  V30 END BOND
M  V30 END CTAB
M  END
>  <Dataset>  (242) 
ChEMBL_Kinases

>  <Ligand_Instance>  (242) 
nan

>  <PDB_ID>  (242) 
nan

>  <Standardized_SMILES>  (242) 
CC1=C(C(=O)Nc2cc(Cl)c3[nH]ncc3c2)C(c2ccc(C(F)(F)F)cc2)CC(=O)N1

>  <Name>  (242) 
GSK-466317A

>  <Pocket>  (242) 
nan

>  <ATP_Site>  (242) 
nan

>  <Peripheral>  (242) 
nan

>  <Num_H_Atoms_ProtBoundConf>  (242) 
nan

>  <Num_Resolved_Atoms>  (242) 
nan

>  <Num_Not_Resolved_Atoms>  (242) 
nan

$$$$
CHEMBL4763084
     RDKit          3D

  0  0  0  0  0  0  0  0  0  0999 V3000
M  V30 BEGIN CTAB
M  V30 COUNTS 69 73 0 0 0
M  V30 BEGIN ATOM
M  V30 1 C 2.467470 -5.003856 4.763486 0
M  V30 2 O 3.250325 -3.889420 4.946471 0
M  V30 3 C 2.730744 -2.709685 4.461323 0 CFG=1
M  V30 4 C 2.513047 -1.735340 5.597017 0
M  V30 5 C 2.040354 -0.435439 4.987840 0
M  V30 6 C 3.232695 0.182218 4.296436 0 CFG=2
M  V30 7 C 2.722447 1.076045 3.221341 0
M  V30 8 O 3.038564 0.744249 2.047124 0
M  V30 9 N 1.930707 2.254378 3.305247 0
M  V30 10 C 1.805390 2.603793 1.924717 0
M  V30 11 C 0.687975 2.079352 1.322516 0
M  V30 12 C 0.549990 2.385721 -0.022089 0
M  V30 13 C -0.555527 1.882527 -0.679160 0
M  V30 14 C -0.776765 2.126800 -2.003102 0
M  V30 15 C -1.887297 1.639949 -2.837845 0
M  V30 16 C -2.556812 2.622498 -3.572372 0
M  V30 17 N -3.517097 1.970618 -4.251995 0
M  V30 18 N -3.477409 0.684714 -3.985555 0
M  V30 19 C -4.381941 -0.268375 -4.592851 0
M  V30 20 C -2.486667 0.402907 -3.111105 0
M  V30 21 C -1.962721 -0.791503 -2.485318 0
M  V30 22 N -2.792155 -1.958452 -2.564383 0
M  V30 23 C -3.960265 -1.865045 -1.749608 0
M  V30 24 C -4.871728 -3.053707 -2.052466 0
M  V30 25 C -4.151496 -4.363970 -1.844202 0
M  V30 26 C -2.789470 -4.059798 -1.258356 0
M  V30 27 C -1.989088 -3.091060 -2.071996 0
M  V30 28 C 0.203436 2.920712 -2.619402 0
M  V30 29 C 1.331110 3.459779 -2.037495 0
M  V30 30 C 1.473977 3.159727 -0.690446 0
M  V30 31 C 2.587630 3.664546 -0.027912 0
M  V30 32 N 2.721354 3.361788 1.297577 0
M  V30 33 C 4.222184 -0.813542 3.795147 0
M  V30 34 C 3.585803 -2.112945 3.364815 0
M  V30 35 H 2.249215 -5.244708 3.701827 0
M  V30 36 H 1.506266 -4.986428 5.326731 0
M  V30 37 H 3.048347 -5.874326 5.173204 0
M  V30 38 H 1.740378 -2.925603 4.018765 0
M  V30 39 H 3.460124 -1.518567 6.138638 0
M  V30 40 H 1.738142 -2.106791 6.280409 0
M  V30 41 H 1.249215 -0.606174 4.220607 0
M  V30 42 H 1.713891 0.306700 5.758308 0
M  V30 43 H 3.780640 0.856142 5.016806 0
M  V30 44 H 1.681991 2.514468 4.278316 0
M  V30 45 H -0.039524 1.478383 1.821039 0
M  V30 46 H -1.257379 1.298045 -0.146684 0
M  V30 47 H -2.435182 3.689489 -3.666077 0
M  V30 48 H -5.380273 -0.305348 -4.110060 0
M  V30 49 H -3.880528 -1.256539 -4.667114 0
M  V30 50 H -4.553569 0.054902 -5.661139 0
M  V30 51 H -0.955417 -1.096887 -2.855162 0
M  V30 52 H -1.907710 -0.578140 -1.368761 0
M  V30 53 H -3.739170 -1.934885 -0.658337 0
M  V30 54 H -4.487988 -0.929958 -1.897723 0
M  V30 55 H -5.233799 -3.005437 -3.120081 0
M  V30 56 H -5.774795 -2.949803 -1.422027 0
M  V30 57 H -4.677934 -5.054218 -1.187192 0
M  V30 58 H -3.928477 -4.880091 -2.825091 0
M  V30 59 H -2.209922 -5.031904 -1.231846 0
M  V30 60 H -2.900310 -3.695402 -0.236396 0
M  V30 61 H -1.530369 -3.584535 -2.978585 0
M  V30 62 H -1.155448 -2.711655 -1.438896 0
M  V30 63 H 0.062836 3.136831 -3.675080 0
M  V30 64 H 2.005858 4.052338 -2.618173 0
M  V30 65 H 3.308227 4.273603 -0.569883 0
M  V30 66 H 4.740703 -0.386379 2.917415 0
M  V30 67 H 4.992854 -1.073734 4.540820 0
M  V30 68 H 3.038387 -1.963914 2.413310 0
M  V30 69 H 4.400796 -2.835436 3.159040 0
M  V30 END ATOM
M  V30 BEGIN BOND
M  V30 1 1 1 2
M  V30 2 1 2 3
M  V30 3 1 3 4
M  V30 4 1 4 5
M  V30 5 1 5 6
M  V30 6 1 6 7
M  V30 7 2 7 8
M  V30 8 1 7 9
M  V30 9 1 9 10
M  V30 10 2 10 11
M  V30 11 1 11 12
M  V30 12 2 12 13
M  V30 13 1 13 14
M  V30 14 1 14 15
M  V30 15 1 15 16
M  V30 16 2 16 17
M  V30 17 1 17 18
M  V30 18 1 18 19
M  V30 19 1 18 20
M  V30 20 1 20 21
M  V30 21 1 21 22
M  V30 22 1 22 23
M  V30 23 1 23 24
M  V30 24 1 24 25
M  V30 25 1 25 26
M  V30 26 1 26 27
M  V30 27 2 14 28
M  V30 28 1 28 29
M  V30 29 2 29 30
M  V30 30 1 30 31
M  V30 31 2 31 32
M  V30 32 1 6 33
M  V30 33 1 33 34
M  V30 34 1 34 3
M  V30 35 1 32 10
M  V30 36 1 30 12
M  V30 37 2 20 15
M  V30 38 1 27 22
M  V30 39 1 1 35
M  V30 40 1 1 36
M  V30 41 1 1 37
M  V30 42 1 3 38 CFG=3
M  V30 43 1 4 39
M  V30 44 1 4 40
M  V30 45 1 5 41
M  V30 46 1 5 42
M  V30 47 1 6 43 CFG=1
M  V30 48 1 9 44
M  V30 49 1 11 45
M  V30 50 1 13 46
M  V30 51 1 16 47
M  V30 52 1 19 48
M  V30 53 1 19 49
M  V30 54 1 19 50
M  V30 55 1 21 51
M  V30 56 1 21 52
M  V30 57 1 23 53
M  V30 58 1 23 54
M  V30 59 1 24 55
M  V30 60 1 24 56
M  V30 61 1 25 57
M  V30 62 1 25 58
M  V30 63 1 26 59
M  V30 64 1 26 60
M  V30 65 1 27 61
M  V30 66 1 27 62
M  V30 67 1 28 63
M  V30 68 1 29 64
M  V30 69 1 31 65
M  V30 70 1 33 66
M  V30 71 1 33 67
M  V30 72 1 34 68
M  V30 73 1 34 69
M  V30 END BOND
M  V30 END CTAB
M  END
>  <Dataset>  (243) 
ChEMBL_Kinases

>  <Ligand_Instance>  (243) 
nan

>  <PDB_ID>  (243) 
nan

>  <Standardized_SMILES>  (243) 
CO[C@H]1CC[C@H](C(=O)Nc2cc3cc(-c4cnn(C)c4CN4CCCCC4)ccc3cn2)CC1

>  <Name>  (243) 
nan

>  <Pocket>  (243) 
nan

>  <ATP_Site>  (243) 
nan

>  <Peripheral>  (243) 
nan

>  <Num_H_Atoms_ProtBoundConf>  (243) 
nan

>  <Num_Resolved_Atoms>  (243) 
nan

>  <Num_Not_Resolved_Atoms>  (243) 
nan

$$$$
CHEMBL4762971
     RDKit          3D

  0  0  0  0  0  0  0  0  0  0999 V3000
M  V30 BEGIN CTAB
M  V30 COUNTS 63 67 0 0 0
M  V30 BEGIN ATOM
M  V30 1 O 1.885083 -4.613297 2.083032 0
M  V30 2 C 1.558257 -3.893218 1.130427 0
M  V30 3 N 2.221781 -3.360111 0.043561 0
M  V30 4 C 3.582338 -3.475091 -0.349425 0
M  V30 5 C 4.392735 -4.374492 -1.040553 0
M  V30 6 N 5.672301 -3.961161 -1.144680 0
M  V30 7 N 5.703608 -2.769574 -0.511116 0
M  V30 8 C 4.487366 -2.483456 -0.048547 0
M  V30 9 C 4.195376 -1.242331 0.653404 0
M  V30 10 O 2.972597 -1.054029 1.061784 0
M  V30 11 N 4.826992 -0.069286 1.082212 0
M  V30 12 C 3.780477 0.698436 1.716692 0
M  V30 13 C 3.364335 0.834894 3.014360 0
M  V30 14 C 2.270717 1.636613 3.267621 0
M  V30 15 C 1.624385 2.273786 2.242480 0
M  V30 16 N 0.465129 3.111475 2.462475 0
M  V30 17 C -0.444497 3.530651 1.405417 0
M  V30 18 C -1.736580 2.931494 1.972313 0
M  V30 19 C -1.626324 3.473171 3.400831 0
M  V30 20 C -0.145425 3.751575 3.588141 0
M  V30 21 N 2.023416 2.149360 0.955169 0
M  V30 22 C 3.108143 1.361035 0.667609 0
M  V30 23 C 0.139462 -3.626121 1.345851 0
M  V30 24 C -0.592084 -3.743307 2.505088 0
M  V30 25 N -1.936785 -3.443333 2.507698 0
M  V30 26 C -2.474897 -3.025267 1.273736 0
M  V30 27 C -1.826092 -2.852407 -0.043011 0
M  V30 28 O -3.098747 -2.485332 -0.387979 0
M  V30 29 C -3.459775 -2.135656 -1.712519 0
M  V30 30 C -3.285488 -0.621946 -1.904054 0
M  V30 31 C -3.856489 -0.303809 -3.273370 0
M  V30 32 N -5.263299 -0.570127 -3.335168 0
M  V30 33 C -5.509210 -1.972938 -3.185427 0
M  V30 34 C -4.897682 -2.481110 -1.919244 0
M  V30 35 C -0.590102 -3.210309 0.297791 0
M  V30 36 H 1.749904 -2.760403 -0.672194 0
M  V30 37 H 3.900506 -5.288902 -1.409749 0
M  V30 38 H 6.385732 -4.539448 -1.636686 0
M  V30 39 H 5.820720 -0.105448 0.841548 0
M  V30 40 H 3.976814 0.274783 3.676607 0
M  V30 41 H 1.968295 1.726587 4.292290 0
M  V30 42 H -0.168383 2.987023 0.452957 0
M  V30 43 H -0.462009 4.603873 1.292163 0
M  V30 44 H -2.577272 3.379281 1.413707 0
M  V30 45 H -1.721348 1.846086 1.949490 0
M  V30 46 H -1.943048 2.672725 4.075264 0
M  V30 47 H -2.172551 4.423516 3.499967 0
M  V30 48 H 0.240996 3.400983 4.571947 0
M  V30 49 H 0.035861 4.868999 3.576547 0
M  V30 50 H 3.318350 1.353577 -0.404916 0
M  V30 51 H -0.002607 -4.077549 3.354328 0
M  V30 52 H -3.478061 -2.928353 1.828954 0
M  V30 53 H -2.753100 -2.565815 -2.463286 0
M  V30 54 H -2.195283 -0.442459 -1.960549 0
M  V30 55 H -3.814747 -0.039192 -1.151139 0
M  V30 56 H -3.383349 -0.924777 -4.074074 0
M  V30 57 H -3.683606 0.764288 -3.498836 0
M  V30 58 H -5.748242 -0.057159 -2.584369 0
M  V30 59 H -6.615545 -2.154204 -3.087133 0
M  V30 60 H -5.159589 -2.596754 -4.045339 0
M  V30 61 H -5.003988 -3.610310 -1.869603 0
M  V30 62 H -5.446395 -2.089100 -1.024447 0
M  V30 63 H -0.254540 -3.039200 -0.745755 0
M  V30 END ATOM
M  V30 BEGIN BOND
M  V30 1 2 1 2
M  V30 2 1 2 3
M  V30 3 1 3 4
M  V30 4 2 4 5
M  V30 5 1 5 6
M  V30 6 1 6 7
M  V30 7 2 7 8
M  V30 8 1 8 9
M  V30 9 2 9 10
M  V30 10 1 9 11
M  V30 11 1 11 12
M  V30 12 2 12 13
M  V30 13 1 13 14
M  V30 14 2 14 15
M  V30 15 1 15 16
M  V30 16 1 16 17
M  V30 17 1 17 18
M  V30 18 1 18 19
M  V30 19 1 19 20
M  V30 20 1 15 21
M  V30 21 2 21 22
M  V30 22 1 2 23
M  V30 23 2 23 24
M  V30 24 1 24 25
M  V30 25 2 25 26
M  V30 26 1 26 27
M  V30 27 1 27 28
M  V30 28 1 28 29
M  V30 29 1 29 30
M  V30 30 1 30 31
M  V30 31 1 31 32
M  V30 32 1 32 33
M  V30 33 1 33 34
M  V30 34 2 27 35
M  V30 35 1 8 4
M  V30 36 1 22 12
M  V30 37 1 35 23
M  V30 38 1 20 16
M  V30 39 1 34 29
M  V30 40 1 3 36
M  V30 41 1 5 37
M  V30 42 1 6 38
M  V30 43 1 11 39
M  V30 44 1 13 40
M  V30 45 1 14 41
M  V30 46 1 17 42
M  V30 47 1 17 43
M  V30 48 1 18 44
M  V30 49 1 18 45
M  V30 50 1 19 46
M  V30 51 1 19 47
M  V30 52 1 20 48
M  V30 53 1 20 49
M  V30 54 1 22 50
M  V30 55 1 24 51
M  V30 56 1 26 52
M  V30 57 1 29 53
M  V30 58 1 30 54
M  V30 59 1 30 55
M  V30 60 1 31 56
M  V30 61 1 31 57
M  V30 62 1 32 58
M  V30 63 1 33 59
M  V30 64 1 33 60
M  V30 65 1 34 61
M  V30 66 1 34 62
M  V30 67 1 35 63
M  V30 END BOND
M  V30 END CTAB
M  END
>  <Dataset>  (244) 
ChEMBL_Kinases

>  <Ligand_Instance>  (244) 
nan

>  <PDB_ID>  (244) 
nan

>  <Standardized_SMILES>  (244) 
O=C(Nc1c[nH]nc1C(=O)Nc1ccc(N2CCCC2)nc1)c1cncc(OC2CCNCC2)c1

>  <Name>  (244) 
nan

>  <Pocket>  (244) 
nan

>  <ATP_Site>  (244) 
nan

>  <Peripheral>  (244) 
nan

>  <Num_H_Atoms_ProtBoundConf>  (244) 
nan

>  <Num_Resolved_Atoms>  (244) 
nan

>  <Num_Not_Resolved_Atoms>  (244) 
nan

$$$$
CHEMBL4762965
     RDKit          3D

  0  0  0  0  0  0  0  0  0  0999 V3000
M  V30 BEGIN CTAB
M  V30 COUNTS 50 53 0 0 0
M  V30 BEGIN ATOM
M  V30 1 O -2.050236 -2.698748 0.335743 0
M  V30 2 C -2.929074 -3.174982 1.093247 0
M  V30 3 N -3.631851 -2.242811 1.906255 0
M  V30 4 C -3.451952 -0.830410 1.958850 0
M  V30 5 C -4.127883 0.075754 2.742342 0
M  V30 6 N -3.649557 1.285259 2.480332 0
M  V30 7 N -2.692823 1.242337 1.567218 0
M  V30 8 C -1.938230 2.340643 1.026132 0
M  V30 9 C -2.635751 3.467751 0.672760 0
M  V30 10 S -1.253130 4.603224 0.030958 0
M  V30 11 C -0.010196 3.440379 0.323795 0
M  V30 12 C 1.432965 3.694370 0.024974 0
M  V30 13 O 1.673539 4.831068 -0.460637 0
M  V30 14 N 2.360059 2.670232 0.305816 0
M  V30 15 C 3.775679 2.683970 0.106522 0
M  V30 16 C 4.470017 2.444303 1.432178 0
M  V30 17 C 3.943247 1.143880 1.980794 0
M  V30 18 O 3.703867 0.176459 1.038909 0
M  V30 19 C 4.464732 0.290621 -0.098460 0
M  V30 20 C 4.249764 1.595388 -0.835067 0
M  V30 21 C -0.580299 2.371159 0.827846 0
M  V30 22 C -2.565643 -0.064044 1.240324 0
M  V30 23 N -3.186583 -4.551423 1.119981 0
M  V30 24 C -2.330334 -5.258268 0.197218 0
M  V30 25 C -2.630705 -5.519802 -1.127651 0
M  V30 26 C -1.724497 -6.207877 -1.910268 0
M  V30 27 C -0.530572 -6.627658 -1.366277 0
M  V30 28 C -0.188868 -6.384402 -0.034711 0
M  V30 29 C -1.115992 -5.692322 0.727556 0
M  V30 30 Cl -0.662166 -5.401366 2.392363 0
M  V30 31 H -4.365065 -2.666576 2.533957 0
M  V30 32 H -4.909208 -0.165506 3.444346 0
M  V30 33 H -3.707921 3.699340 0.727475 0
M  V30 34 H 2.023879 1.768329 0.710954 0
M  V30 35 H 4.133181 3.658685 -0.329277 0
M  V30 36 H 4.253509 3.223918 2.176121 0
M  V30 37 H 5.554035 2.297606 1.237784 0
M  V30 38 H 2.961537 1.377308 2.487112 0
M  V30 39 H 4.599051 0.802364 2.809785 0
M  V30 40 H 4.100054 -0.509876 -0.801513 0
M  V30 41 H 5.535725 0.060980 0.074584 0
M  V30 42 H 3.620473 1.491506 -1.732365 0
M  V30 43 H 5.256767 1.910241 -1.203258 0
M  V30 44 H 0.038284 1.496501 1.091449 0
M  V30 45 H -1.852271 -0.380270 0.514573 0
M  V30 46 H -3.918319 -4.950869 1.750200 0
M  V30 47 H -3.584407 -5.160999 -1.486198 0
M  V30 48 H -1.966554 -6.408907 -2.946419 0
M  V30 49 H 0.180231 -7.162674 -1.964960 0
M  V30 50 H 0.761010 -6.725218 0.375873 0
M  V30 END ATOM
M  V30 BEGIN BOND
M  V30 1 2 1 2
M  V30 2 1 2 3
M  V30 3 1 3 4
M  V30 4 1 4 5
M  V30 5 2 5 6
M  V30 6 1 6 7
M  V30 7 1 7 8
M  V30 8 2 8 9
M  V30 9 1 9 10
M  V30 10 1 10 11
M  V30 11 1 11 12
M  V30 12 2 12 13
M  V30 13 1 12 14
M  V30 14 1 14 15
M  V30 15 1 15 16
M  V30 16 1 16 17
M  V30 17 1 17 18
M  V30 18 1 18 19
M  V30 19 1 19 20
M  V30 20 2 11 21
M  V30 21 1 7 22
M  V30 22 1 2 23
M  V30 23 1 23 24
M  V30 24 2 24 25
M  V30 25 1 25 26
M  V30 26 2 26 27
M  V30 27 1 27 28
M  V30 28 2 28 29
M  V30 29 1 29 30
M  V30 30 2 22 4
M  V30 31 1 29 24
M  V30 32 1 21 8
M  V30 33 1 20 15
M  V30 34 1 3 31
M  V30 35 1 5 32
M  V30 36 1 9 33
M  V30 37 1 14 34
M  V30 38 1 15 35
M  V30 39 1 16 36
M  V30 40 1 16 37
M  V30 41 1 17 38
M  V30 42 1 17 39
M  V30 43 1 19 40
M  V30 44 1 19 41
M  V30 45 1 20 42
M  V30 46 1 20 43
M  V30 47 1 21 44
M  V30 48 1 22 45
M  V30 49 1 23 46
M  V30 50 1 25 47
M  V30 51 1 26 48
M  V30 52 1 27 49
M  V30 53 1 28 50
M  V30 END BOND
M  V30 END CTAB
M  END
>  <Dataset>  (245) 
ChEMBL_Kinases

>  <Ligand_Instance>  (245) 
nan

>  <PDB_ID>  (245) 
nan

>  <Standardized_SMILES>  (245) 
O=C(Nc1cnn(-c2csc(C(=O)NC3CCOCC3)c2)c1)Nc1ccccc1Cl

>  <Name>  (245) 
nan

>  <Pocket>  (245) 
nan

>  <ATP_Site>  (245) 
nan

>  <Peripheral>  (245) 
nan

>  <Num_H_Atoms_ProtBoundConf>  (245) 
nan

>  <Num_Resolved_Atoms>  (245) 
nan

>  <Num_Not_Resolved_Atoms>  (245) 
nan

$$$$
CHEMBL4762838
     RDKit          3D

  0  0  0  0  0  0  0  0  0  0999 V3000
M  V30 BEGIN CTAB
M  V30 COUNTS 54 58 0 0 0
M  V30 BEGIN ATOM
M  V30 1 C 1.746870 1.089659 5.426049 0
M  V30 2 N 2.737505 1.631898 6.293239 0
M  V30 3 C 2.746635 1.049771 7.611499 0
M  V30 4 C 4.054982 1.749065 5.719346 0
M  V30 5 C 4.161590 2.605064 4.501016 0
M  V30 6 N 4.341987 1.405310 3.709138 0
M  V30 7 C 4.445630 1.044809 2.303060 0
M  V30 8 N 5.050821 0.932459 1.369161 0
M  V30 9 C 4.772149 0.521875 0.164169 0
M  V30 10 C 3.501455 0.147425 -0.032199 0
M  V30 11 C 2.781206 -0.388212 -1.258583 0
M  V30 12 O 3.313147 -0.572163 -2.393716 0
M  V30 13 N 1.425401 -0.699905 -1.106020 0
M  V30 14 C 0.584748 -1.211186 -2.144953 0
M  V30 15 C -0.755074 -1.495314 -1.871344 0
M  V30 16 C -1.561142 -1.991626 -2.877954 0
M  V30 17 C -2.872817 -2.239868 -2.506802 0
M  V30 18 C -3.721828 -2.742555 -3.500761 0
M  V30 19 C -5.125699 -3.005447 -3.117035 0
M  V30 20 C -6.074377 -3.921231 -3.524331 0
M  V30 21 N -7.205149 -3.693108 -2.821003 0
M  V30 22 N -7.059167 -2.697736 -1.988868 0
M  V30 23 C -7.992107 -2.110670 -1.049854 0
M  V30 24 C -5.789458 -2.263376 -2.156515 0
M  V30 25 C -3.266908 -2.982050 -4.802397 0
M  V30 26 C -1.923679 -2.697589 -5.073071 0
M  V30 27 C -1.042668 -2.202182 -4.137564 0
M  V30 28 C 0.280086 -1.918479 -4.396580 0
M  V30 29 N 1.061290 -1.427969 -3.387255 0
M  V30 30 S 2.800043 0.422190 1.561739 0
M  V30 31 C 4.377943 0.540938 4.899851 0
M  V30 32 H 2.076150 1.191061 4.372676 0
M  V30 33 H 1.650908 0.000141 5.633059 0
M  V30 34 H 0.738892 1.524226 5.591930 0
M  V30 35 H 2.019547 1.518274 8.312893 0
M  V30 36 H 2.362922 -0.004896 7.474783 0
M  V30 37 H 3.753762 0.950388 8.049965 0
M  V30 38 H 4.847393 1.882042 6.505508 0
M  V30 39 H 5.119077 3.202985 4.455681 0
M  V30 40 H 3.293304 3.230008 4.249257 0
M  V30 41 H 5.505940 0.473762 -0.657967 0
M  V30 42 H 0.985476 -0.549241 -0.158699 0
M  V30 43 H -1.118229 -1.317889 -0.882267 0
M  V30 44 H -3.233389 -2.059333 -1.503085 0
M  V30 45 H -5.832463 -4.657993 -4.293862 0
M  V30 46 H -8.105417 -2.791830 -0.170608 0
M  V30 47 H -8.996768 -1.956008 -1.478798 0
M  V30 48 H -7.632263 -1.103635 -0.720935 0
M  V30 49 H -5.345759 -1.428419 -1.599390 0
M  V30 50 H -3.937790 -3.369537 -5.553630 0
M  V30 51 H -1.561968 -2.883624 -6.093214 0
M  V30 52 H 0.662944 -2.093727 -5.401470 0
M  V30 53 H 3.517542 -0.184902 4.784014 0
M  V30 54 H 5.327733 0.024898 5.081398 0
M  V30 END ATOM
M  V30 BEGIN BOND
M  V30 1 1 1 2
M  V30 2 1 2 3
M  V30 3 1 2 4
M  V30 4 1 4 5
M  V30 5 1 5 6
M  V30 6 1 6 7
M  V30 7 2 7 8
M  V30 8 1 8 9
M  V30 9 2 9 10
M  V30 10 1 10 11
M  V30 11 2 11 12
M  V30 12 1 11 13
M  V30 13 1 13 14
M  V30 14 2 14 15
M  V30 15 1 15 16
M  V30 16 2 16 17
M  V30 17 1 17 18
M  V30 18 1 18 19
M  V30 19 1 19 20
M  V30 20 2 20 21
M  V30 21 1 21 22
M  V30 22 1 22 23
M  V30 23 1 22 24
M  V30 24 2 18 25
M  V30 25 1 25 26
M  V30 26 2 26 27
M  V30 27 1 27 28
M  V30 28 2 28 29
M  V30 29 1 10 30
M  V30 30 1 6 31
M  V30 31 1 31 4
M  V30 32 1 30 7
M  V30 33 1 29 14
M  V30 34 1 27 16
M  V30 35 2 24 19
M  V30 36 1 1 32
M  V30 37 1 1 33
M  V30 38 1 1 34
M  V30 39 1 3 35
M  V30 40 1 3 36
M  V30 41 1 3 37
M  V30 42 1 4 38
M  V30 43 1 5 39
M  V30 44 1 5 40
M  V30 45 1 9 41
M  V30 46 1 13 42
M  V30 47 1 15 43
M  V30 48 1 17 44
M  V30 49 1 20 45
M  V30 50 1 23 46
M  V30 51 1 23 47
M  V30 52 1 23 48
M  V30 53 1 24 49
M  V30 54 1 25 50
M  V30 55 1 26 51
M  V30 56 1 28 52
M  V30 57 1 31 53
M  V30 58 1 31 54
M  V30 END BOND
M  V30 END CTAB
M  END
>  <Dataset>  (246) 
ChEMBL_Kinases

>  <Ligand_Instance>  (246) 
nan

>  <PDB_ID>  (246) 
nan

>  <Standardized_SMILES>  (246) 
CN(C)C1CN(c2ncc(C(=O)Nc3cc4cc(-c5cnn(C)c5)ccc4cn3)s2)C1

>  <Name>  (246) 
nan

>  <Pocket>  (246) 
nan

>  <ATP_Site>  (246) 
nan

>  <Peripheral>  (246) 
nan

>  <Num_H_Atoms_ProtBoundConf>  (246) 
nan

>  <Num_Resolved_Atoms>  (246) 
nan

>  <Num_Not_Resolved_Atoms>  (246) 
nan

$$$$
CHEMBL4277690
     RDKit          3D

  0  0  0  0  0  0  0  0  0  0999 V3000
M  V30 BEGIN CTAB
M  V30 COUNTS 45 48 0 0 0
M  V30 BEGIN ATOM
M  V30 1 O 2.184634 0.283621 -1.527984 0
M  V30 2 C 1.136604 0.974388 -1.345049 0
M  V30 3 N 0.372014 1.456923 -2.444327 0
M  V30 4 C 0.793653 1.157487 -3.756079 0
M  V30 5 C 0.294543 -0.004965 -4.297650 0
M  V30 6 C 0.651731 -0.381211 -5.578072 0
M  V30 7 C 1.521794 0.456169 -6.275590 0
M  V30 8 C 1.997336 1.606692 -5.700279 0
M  V30 9 Cl 3.101973 2.683594 -6.566850 0
M  V30 10 C 1.657531 2.002139 -4.430385 0
M  V30 11 N 0.763888 1.242287 -0.000366 0
M  V30 12 C 1.480720 0.792508 1.179885 0
M  V30 13 N 1.771758 1.901231 2.073582 0
M  V30 14 C 1.590758 1.694582 3.446825 0
M  V30 15 C 0.830433 0.665763 3.790491 0
M  V30 16 C 0.401375 0.118303 5.101804 0
M  V30 17 C 0.852779 -1.308055 5.299756 0
M  V30 18 N 0.344529 -2.220910 4.311707 0
M  V30 19 C -1.042509 -2.448576 4.099006 0
M  V30 20 N -1.892281 -1.765837 4.870877 0
M  V30 21 C -3.207301 -1.824344 4.841859 0
M  V30 22 N -3.741204 -2.656437 3.943124 0
M  V30 23 C -2.925708 -3.374340 3.133588 0
M  V30 24 S -3.305812 -4.568951 1.833018 0
M  V30 25 C -1.549248 -4.915600 1.405681 0
M  V30 26 C -0.809488 -4.083921 2.298411 0
M  V30 27 C -1.543277 -3.318092 3.158323 0
M  V30 28 S 0.307246 -0.094824 2.254349 0
M  V30 29 H -0.481751 2.021659 -2.180261 0
M  V30 30 H -0.382738 -0.661696 -3.761443 0
M  V30 31 H 0.296395 -1.267529 -6.044732 0
M  V30 32 H 1.830238 0.201787 -7.283919 0
M  V30 33 H 1.983815 2.887980 -3.902499 0
M  V30 34 H -0.092096 1.807489 0.208505 0
M  V30 35 H 2.372923 0.203053 0.940144 0
M  V30 36 H 2.097825 2.778925 1.618871 0
M  V30 37 H 2.043618 2.335488 4.191682 0
M  V30 38 H -0.660289 0.220043 5.318347 0
M  V30 39 H 0.933831 0.707683 5.897671 0
M  V30 40 H 0.603183 -1.604154 6.335593 0
M  V30 41 H 1.958661 -1.297123 5.247644 0
M  V30 42 H 1.012558 -2.769658 3.691744 0
M  V30 43 H -3.900209 -1.280635 5.456974 0
M  V30 44 H -1.091698 -5.599597 0.643100 0
M  V30 45 H 0.266095 -4.126342 2.223072 0
M  V30 END ATOM
M  V30 BEGIN BOND
M  V30 1 2 1 2
M  V30 2 1 2 3
M  V30 3 1 3 4
M  V30 4 2 4 5
M  V30 5 1 5 6
M  V30 6 2 6 7
M  V30 7 1 7 8
M  V30 8 1 8 9
M  V30 9 2 8 10
M  V30 10 1 2 11
M  V30 11 1 11 12
M  V30 12 1 12 13
M  V30 13 1 13 14
M  V30 14 2 14 15
M  V30 15 1 15 16
M  V30 16 1 16 17
M  V30 17 1 17 18
M  V30 18 1 18 19
M  V30 19 2 19 20
M  V30 20 1 20 21
M  V30 21 2 21 22
M  V30 22 1 22 23
M  V30 23 1 23 24
M  V30 24 1 24 25
M  V30 25 2 25 26
M  V30 26 1 26 27
M  V30 27 1 15 28
M  V30 28 1 10 4
M  V30 29 1 28 12
M  V30 30 1 27 19
M  V30 31 2 27 23
M  V30 32 1 3 29
M  V30 33 1 5 30
M  V30 34 1 6 31
M  V30 35 1 7 32
M  V30 36 1 10 33
M  V30 37 1 11 34
M  V30 38 1 12 35
M  V30 39 1 13 36
M  V30 40 1 14 37
M  V30 41 1 16 38
M  V30 42 1 16 39
M  V30 43 1 17 40
M  V30 44 1 17 41
M  V30 45 1 18 42
M  V30 46 1 21 43
M  V30 47 1 25 44
M  V30 48 1 26 45
M  V30 END BOND
M  V30 END CTAB
M  END
>  <Dataset>  (247) 
ChEMBL_Kinases

>  <Ligand_Instance>  (247) 
nan

>  <PDB_ID>  (247) 
nan

>  <Standardized_SMILES>  (247) 
O=C(Nc1cccc(Cl)c1)NC1NC=C(CCNc2ncnc3sccc23)S1

>  <Name>  (247) 
nan

>  <Pocket>  (247) 
nan

>  <ATP_Site>  (247) 
nan

>  <Peripheral>  (247) 
nan

>  <Num_H_Atoms_ProtBoundConf>  (247) 
nan

>  <Num_Resolved_Atoms>  (247) 
nan

>  <Num_Not_Resolved_Atoms>  (247) 
nan

$$$$
CHEMBL4762778
     RDKit          3D

  0  0  0  0  0  0  0  0  0  0999 V3000
M  V30 BEGIN CTAB
M  V30 COUNTS 58 63 0 0 0
M  V30 BEGIN ATOM
M  V30 1 C 7.151885 1.466937 4.710000 0
M  V30 2 C 7.389695 1.422605 3.198016 0
M  V30 3 C 8.270462 0.208890 2.939340 0
M  V30 4 C 6.076431 1.296894 2.559726 0
M  V30 5 O 5.084878 1.254537 3.330761 0
M  V30 6 N 5.847501 1.221107 1.162199 0
M  V30 7 C 4.629115 1.099736 0.447676 0
M  V30 8 C 4.686046 1.043020 -0.925447 0
M  V30 9 N 3.588555 0.929178 -1.687055 0
M  V30 10 C 2.357576 0.863108 -1.151136 0
M  V30 11 C 2.215756 0.913528 0.220083 0
M  V30 12 C 0.905382 0.846716 0.870795 0
M  V30 13 C 0.765488 1.529172 2.063883 0
M  V30 14 C -0.464528 1.476909 2.691334 0
M  V30 15 C -1.505030 0.764906 2.133945 0
M  V30 16 N -2.781129 0.526357 2.484123 0
M  V30 17 N -3.388206 -0.233077 1.598149 0
M  V30 18 C -2.558864 -0.558288 0.588076 0
M  V30 19 C -2.887769 -1.380686 -0.561004 0
M  V30 20 N -4.131483 -1.907954 -0.700254 0
M  V30 21 C -4.249060 -2.627955 -1.805057 0
M  V30 22 C -5.292888 -3.349619 -2.376310 0
M  V30 23 C -6.579418 -3.397199 -1.710385 0
M  V30 24 C -7.131480 -4.666957 -1.664938 0
M  V30 25 C -8.356404 -4.901547 -1.067472 0
M  V30 26 C -8.979270 -3.783651 -0.525771 0
M  V30 27 N -8.443878 -2.551750 -0.569782 0
M  V30 28 C -7.257994 -2.340137 -1.151173 0
M  V30 29 C -5.101401 -4.008982 -3.560885 0
M  V30 30 N -3.894303 -3.949799 -4.162928 0
M  V30 31 C -2.866725 -3.253708 -3.623922 0
M  V30 32 C -3.025901 -2.579492 -2.433885 0
M  V30 33 N -2.271105 -1.824174 -1.640287 0
M  V30 34 C -1.390103 0.075763 0.944476 0
M  V30 35 C -0.156387 0.143821 0.340607 0
M  V30 36 C 3.368084 1.030822 0.969134 0
M  V30 37 H 6.255348 0.844389 4.991913 0
M  V30 38 H 6.876682 2.497949 5.031147 0
M  V30 39 H 8.021861 1.158458 5.291677 0
M  V30 40 H 7.940357 2.343230 2.956759 0
M  V30 41 H 8.955893 0.111357 3.824741 0
M  V30 42 H 8.825382 0.273567 1.994445 0
M  V30 43 H 7.669697 -0.722787 2.913244 0
M  V30 44 H 6.746572 1.266773 0.641514 0
M  V30 45 H 5.632198 1.088380 -1.459653 0
M  V30 46 H 1.486774 0.771124 -1.792560 0
M  V30 47 H 1.534041 2.106531 2.559494 0
M  V30 48 H -0.631241 1.996764 3.635270 0
M  V30 49 H -3.276461 0.876053 3.340558 0
M  V30 50 H -6.668005 -5.569233 -2.081609 0
M  V30 51 H -8.818201 -5.890262 -1.015349 0
M  V30 52 H -9.928995 -3.898848 -0.049678 0
M  V30 53 H -6.709933 -1.405300 -1.258851 0
M  V30 54 H -5.863208 -4.581955 -4.053361 0
M  V30 55 H -1.891310 -3.191169 -4.086423 0
M  V30 56 H -1.300360 -1.630562 -1.886742 0
M  V30 57 H 0.029716 -0.349291 -0.570712 0
M  V30 58 H 3.234273 1.067951 2.026808 0
M  V30 END ATOM
M  V30 BEGIN BOND
M  V30 1 1 1 2
M  V30 2 1 2 3
M  V30 3 1 2 4
M  V30 4 2 4 5
M  V30 5 1 4 6
M  V30 6 1 6 7
M  V30 7 2 7 8
M  V30 8 1 8 9
M  V30 9 2 9 10
M  V30 10 1 10 11
M  V30 11 1 11 12
M  V30 12 2 12 13
M  V30 13 1 13 14
M  V30 14 2 14 15
M  V30 15 1 15 16
M  V30 16 1 16 17
M  V30 17 2 17 18
M  V30 18 1 18 19
M  V30 19 2 19 20
M  V30 20 1 20 21
M  V30 21 2 21 22
M  V30 22 1 22 23
M  V30 23 2 23 24
M  V30 24 1 24 25
M  V30 25 2 25 26
M  V30 26 1 26 27
M  V30 27 2 27 28
M  V30 28 1 22 29
M  V30 29 2 29 30
M  V30 30 1 30 31
M  V30 31 2 31 32
M  V30 32 1 32 33
M  V30 33 1 18 34
M  V30 34 2 34 35
M  V30 35 2 11 36
M  V30 36 1 36 7
M  V30 37 1 35 12
M  V30 38 1 34 15
M  V30 39 1 33 19
M  V30 40 1 32 21
M  V30 41 1 28 23
M  V30 42 1 1 37
M  V30 43 1 1 38
M  V30 44 1 1 39
M  V30 45 1 2 40
M  V30 46 1 3 41
M  V30 47 1 3 42
M  V30 48 1 3 43
M  V30 49 1 6 44
M  V30 50 1 8 45
M  V30 51 1 10 46
M  V30 52 1 13 47
M  V30 53 1 14 48
M  V30 54 1 16 49
M  V30 55 1 24 50
M  V30 56 1 25 51
M  V30 57 1 26 52
M  V30 58 1 28 53
M  V30 59 1 29 54
M  V30 60 1 31 55
M  V30 61 1 33 56
M  V30 62 1 35 57
M  V30 63 1 36 58
M  V30 END BOND
M  V30 END CTAB
M  END
>  <Dataset>  (248) 
ChEMBL_Kinases

>  <Ligand_Instance>  (248) 
nan

>  <PDB_ID>  (248) 
nan

>  <Standardized_SMILES>  (248) 
CC(C)C(=O)Nc1cncc(-c2ccc3[nH]nc(-c4nc5c(-c6cccnc6)cncc5[nH]4)c3c2)c1

>  <Name>  (248) 
nan

>  <Pocket>  (248) 
nan

>  <ATP_Site>  (248) 
nan

>  <Peripheral>  (248) 
nan

>  <Num_H_Atoms_ProtBoundConf>  (248) 
nan

>  <Num_Resolved_Atoms>  (248) 
nan

>  <Num_Not_Resolved_Atoms>  (248) 
nan

$$$$
CHEMBL4762727
     RDKit          3D

  0  0  0  0  0  0  0  0  0  0999 V3000
M  V30 BEGIN CTAB
M  V30 COUNTS 44 49 0 0 0
M  V30 BEGIN ATOM
M  V30 1 F 5.896143 -2.174581 1.133746 0
M  V30 2 C 5.633107 -1.139077 2.000570 0
M  V30 3 C 6.399825 -1.221494 3.142054 0
M  V30 4 C 6.229305 -0.238444 4.093553 0
M  V30 5 C 5.326787 0.823632 3.955720 0
M  V30 6 C 4.595843 0.839186 2.788722 0
M  V30 7 C 4.713671 -0.101569 1.804922 0
M  V30 8 C 4.047872 -0.260710 0.522688 0
M  V30 9 N 4.702322 -0.387890 -0.640568 0
M  V30 10 C 4.127647 -0.540673 -1.827367 0
M  V30 11 C 2.734823 -0.575079 -1.898272 0
M  V30 12 C 2.043170 -0.445183 -0.707641 0
M  V30 13 N 0.716792 -0.444885 -0.460679 0
M  V30 14 C 0.403682 -0.299062 0.828010 0
M  V30 15 C -0.800680 -0.244711 1.628319 0
M  V30 16 N -0.877732 -0.079097 2.979664 0
M  V30 17 N -2.121683 -0.080122 3.391670 0
M  V30 18 C -2.965070 -0.243339 2.370708 0
M  V30 19 C -4.336006 -0.307877 2.319031 0
M  V30 20 N -4.884266 -0.482677 1.101456 0
M  V30 21 C -4.139827 -0.590396 -0.016644 0
M  V30 22 C -4.772915 -0.771615 -1.316537 0
M  V30 23 C -4.175277 -0.903184 -2.560311 0
M  V30 24 N -5.116154 -1.042471 -3.486235 0
M  V30 25 N -6.330678 -1.010852 -2.920726 0
M  V30 26 C -6.109589 -0.847844 -1.617440 0
M  V30 27 C -2.768817 -0.520676 0.080896 0
M  V30 28 C -2.126240 -0.343738 1.283538 0
M  V30 29 C 1.645762 -0.202114 1.419660 0
M  V30 30 C 2.669771 -0.288111 0.507401 0
M  V30 31 H 7.124155 -1.989912 3.359052 0
M  V30 32 H 6.804518 -0.237229 5.029828 0
M  V30 33 H 5.159137 1.613146 4.670831 0
M  V30 34 H 3.845831 1.595813 2.517080 0
M  V30 35 H 4.698410 -0.640309 -2.741561 0
M  V30 36 H 2.220522 -0.695274 -2.829950 0
M  V30 37 H 0.022210 -0.546763 -1.204797 0
M  V30 38 H -2.340470 0.037562 4.403531 0
M  V30 39 H -4.922665 -0.222880 3.206283 0
M  V30 40 H -3.098289 -0.893038 -2.746099 0
M  V30 41 H -7.253553 -1.099159 -3.433267 0
M  V30 42 H -6.927670 -0.787104 -0.907417 0
M  V30 43 H -2.197737 -0.609917 -0.822788 0
M  V30 44 H 1.901900 -0.071102 2.476953 0
M  V30 END ATOM
M  V30 BEGIN BOND
M  V30 1 1 1 2
M  V30 2 2 2 3
M  V30 3 1 3 4
M  V30 4 2 4 5
M  V30 5 1 5 6
M  V30 6 2 6 7
M  V30 7 1 7 8
M  V30 8 2 8 9
M  V30 9 1 9 10
M  V30 10 2 10 11
M  V30 11 1 11 12
M  V30 12 1 12 13
M  V30 13 1 13 14
M  V30 14 1 14 15
M  V30 15 2 15 16
M  V30 16 1 16 17
M  V30 17 1 17 18
M  V30 18 2 18 19
M  V30 19 1 19 20
M  V30 20 2 20 21
M  V30 21 1 21 22
M  V30 22 1 22 23
M  V30 23 2 23 24
M  V30 24 1 24 25
M  V30 25 1 25 26
M  V30 26 1 21 27
M  V30 27 2 27 28
M  V30 28 2 14 29
M  V30 29 1 29 30
M  V30 30 1 7 2
M  V30 31 1 30 8
M  V30 32 2 30 12
M  V30 33 1 28 15
M  V30 34 1 28 18
M  V30 35 2 26 22
M  V30 36 1 3 31
M  V30 37 1 4 32
M  V30 38 1 5 33
M  V30 39 1 6 34
M  V30 40 1 10 35
M  V30 41 1 11 36
M  V30 42 1 13 37
M  V30 43 1 17 38
M  V30 44 1 19 39
M  V30 45 1 23 40
M  V30 46 1 25 41
M  V30 47 1 26 42
M  V30 48 1 27 43
M  V30 49 1 29 44
M  V30 END BOND
M  V30 END CTAB
M  END
>  <Dataset>  (249) 
ChEMBL_Kinases

>  <Ligand_Instance>  (249) 
nan

>  <PDB_ID>  (249) 
nan

>  <Standardized_SMILES>  (249) 
Fc1ccccc1-c1nccc2[nH]c(-c3n[nH]c4cnc(-c5cn[nH]c5)cc34)cc12

>  <Name>  (249) 
nan

>  <Pocket>  (249) 
nan

>  <ATP_Site>  (249) 
nan

>  <Peripheral>  (249) 
nan

>  <Num_H_Atoms_ProtBoundConf>  (249) 
nan

>  <Num_Resolved_Atoms>  (249) 
nan

>  <Num_Not_Resolved_Atoms>  (249) 
nan

$$$$
CHEMBL3109952
     RDKit          3D

  0  0  0  0  0  0  0  0  0  0999 V3000
M  V30 BEGIN CTAB
M  V30 COUNTS 54 58 0 0 0
M  V30 BEGIN ATOM
M  V30 1 C -0.531824 -0.077010 2.176883 0
M  V30 2 C 0.411579 0.425851 3.083007 0
M  V30 3 C 1.333095 1.400808 2.653956 0
M  V30 4 O 2.139031 1.740098 3.693200 0
M  V30 5 C 3.197521 2.586036 3.839607 0
M  V30 6 C 4.478203 2.311269 3.199242 0
M  V30 7 N 4.759487 2.122854 1.878057 0
M  V30 8 C 4.461293 0.986256 1.129701 0
M  V30 9 C 4.371598 1.402795 -0.346423 0
M  V30 10 O 5.621911 1.797589 -0.814638 0
M  V30 11 C 6.381268 2.416594 0.163588 0
M  V30 12 C 5.535624 3.128807 1.198194 0
M  V30 13 C 1.232308 1.798530 1.331859 0
M  V30 14 C 0.304973 1.300091 0.453442 0
M  V30 15 C -0.600869 0.342578 0.870227 0
M  V30 16 N -1.514973 -0.139013 -0.094922 0
M  V30 17 C -2.240788 -1.381273 -0.020082 0
M  V30 18 C -3.160645 -1.665499 -1.011804 0
M  V30 19 C -3.886972 -2.843117 -1.023077 0
M  V30 20 N -4.826589 -3.352215 -1.857339 0
M  V30 21 C -5.204313 -4.561454 -1.379850 0
M  V30 22 C -6.208603 -5.405630 -2.026303 0
M  V30 23 C -6.871686 -5.040174 -3.181245 0
M  V30 24 N -7.699785 -6.089641 -3.440029 0
M  V30 25 N -7.536634 -7.008247 -2.504554 0
M  V30 26 C -6.617812 -6.659455 -1.576449 0
M  V30 27 C -4.490689 -4.822619 -0.222089 0
M  V30 28 C -3.650954 -3.725444 0.004113 0
M  V30 29 C -2.738733 -3.463769 1.004053 0
M  V30 30 N -2.077987 -2.299455 0.939429 0
M  V30 31 H -1.243222 -0.823136 2.513504 0
M  V30 32 H 0.337433 -0.010080 4.089784 0
M  V30 33 H 2.876656 3.680670 3.707418 0
M  V30 34 H 3.418888 2.591839 4.977510 0
M  V30 35 H 5.238908 3.106456 3.578409 0
M  V30 36 H 4.916545 1.398816 3.767941 0
M  V30 37 H 3.626893 0.350959 1.369149 0
M  V30 38 H 5.416687 0.335035 1.151062 0
M  V30 39 H 4.090054 0.490180 -0.915741 0
M  V30 40 H 3.650731 2.205384 -0.481006 0
M  V30 41 H 6.938181 1.613614 0.703469 0
M  V30 42 H 7.154092 3.090650 -0.267472 0
M  V30 43 H 6.249493 3.541105 1.963848 0
M  V30 44 H 4.951703 3.933364 0.742519 0
M  V30 45 H 2.001840 2.550931 1.166928 0
M  V30 46 H 0.384841 1.734836 -0.533360 0
M  V30 47 H -1.690252 0.449882 -0.943276 0
M  V30 48 H -3.341194 -0.974189 -1.809274 0
M  V30 49 H -5.151801 -2.841822 -2.702379 0
M  V30 50 H -6.786762 -4.147413 -3.771600 0
M  V30 51 H -8.077324 -7.917896 -2.496876 0
M  V30 52 H -6.293680 -7.219986 -0.712021 0
M  V30 53 H -4.589614 -5.723690 0.375998 0
M  V30 54 H -2.556169 -4.165104 1.814409 0
M  V30 END ATOM
M  V30 BEGIN BOND
M  V30 1 2 1 2
M  V30 2 1 2 3
M  V30 3 1 3 4
M  V30 4 1 4 5
M  V30 5 1 5 6
M  V30 6 1 6 7
M  V30 7 1 7 8
M  V30 8 1 8 9
M  V30 9 1 9 10
M  V30 10 1 10 11
M  V30 11 1 11 12
M  V30 12 2 3 13
M  V30 13 1 13 14
M  V30 14 2 14 15
M  V30 15 1 15 16
M  V30 16 1 16 17
M  V30 17 2 17 18
M  V30 18 1 18 19
M  V30 19 1 19 20
M  V30 20 1 20 21
M  V30 21 1 21 22
M  V30 22 1 22 23
M  V30 23 2 23 24
M  V30 24 1 24 25
M  V30 25 1 25 26
M  V30 26 2 21 27
M  V30 27 1 27 28
M  V30 28 1 28 29
M  V30 29 2 29 30
M  V30 30 1 15 1
M  V30 31 1 30 17
M  V30 32 1 12 7
M  V30 33 2 28 19
M  V30 34 2 26 22
M  V30 35 1 1 31
M  V30 36 1 2 32
M  V30 37 1 5 33
M  V30 38 1 5 34
M  V30 39 1 6 35
M  V30 40 1 6 36
M  V30 41 1 8 37
M  V30 42 1 8 38
M  V30 43 1 9 39
M  V30 44 1 9 40
M  V30 45 1 11 41
M  V30 46 1 11 42
M  V30 47 1 12 43
M  V30 48 1 12 44
M  V30 49 1 13 45
M  V30 50 1 14 46
M  V30 51 1 16 47
M  V30 52 1 18 48
M  V30 53 1 20 49
M  V30 54 1 23 50
M  V30 55 1 25 51
M  V30 56 1 26 52
M  V30 57 1 27 53
M  V30 58 1 29 54
M  V30 END BOND
M  V30 END CTAB
M  END
>  <Dataset>  (250) 
ChEMBL_Kinases

>  <Ligand_Instance>  (250) 
nan

>  <PDB_ID>  (250) 
nan

>  <Standardized_SMILES>  (250) 
c1cc(OCCN2CCOCC2)ccc1Nc1cc2[nH]c(-c3cn[nH]c3)cc2cn1

>  <Name>  (250) 
nan

>  <Pocket>  (250) 
nan

>  <ATP_Site>  (250) 
nan

>  <Peripheral>  (250) 
nan

>  <Num_H_Atoms_ProtBoundConf>  (250) 
nan

>  <Num_Resolved_Atoms>  (250) 
nan

>  <Num_Not_Resolved_Atoms>  (250) 
nan

$$$$
CHEMBL4764842
     RDKit          3D

  0  0  0  0  0  0  0  0  0  0999 V3000
M  V30 BEGIN CTAB
M  V30 COUNTS 59 63 0 0 0
M  V30 BEGIN ATOM
M  V30 1 O 1.461671 -0.617183 1.584358 0
M  V30 2 C 2.005918 0.095862 2.491785 0
M  V30 3 N 3.397278 -0.109599 2.594339 0
M  V30 4 C 4.240467 -1.000383 1.823025 0
M  V30 5 C 4.485092 -0.423611 0.474217 0
M  V30 6 C 5.527990 0.456345 0.281699 0
M  V30 7 C 5.889127 1.060947 -0.904220 0
M  V30 8 F 6.935704 1.916272 -0.994234 0
M  V30 9 C 5.119723 0.748979 -2.020415 0
M  V30 10 C 4.056991 -0.131427 -1.886509 0
M  V30 11 F 3.268437 -0.473099 -2.948560 0
M  V30 12 C 3.734282 -0.716298 -0.659964 0
M  V30 13 C 1.290573 1.048619 3.365707 0
M  V30 14 N 1.725251 1.826808 4.343291 0
M  V30 15 N 0.706073 2.493888 4.829139 0
M  V30 16 C -0.451040 2.196939 4.205972 0
M  V30 17 C -1.784291 2.557482 4.272663 0
M  V30 18 C -2.745198 2.017435 3.427317 0
M  V30 19 C -2.399975 1.085626 2.473731 0
M  V30 20 C -3.310685 0.453699 1.525613 0
M  V30 21 C -4.431559 0.986587 0.944249 0
M  V30 22 N -5.201341 0.306946 0.079887 0
M  V30 23 C -4.924830 -0.959128 -0.280977 0
M  V30 24 C -3.807484 -1.616070 0.243689 0
M  V30 25 C -3.358605 -2.986129 -0.041654 0
M  V30 26 N -2.453389 -3.159150 -1.099490 0
M  V30 27 C -1.960481 -4.440561 -1.395811 0
M  V30 28 C -0.462939 -4.456807 -1.638584 0
M  V30 29 C -0.187308 -3.506097 -2.760758 0
M  V30 30 C -0.802938 -2.161370 -2.629992 0
M  V30 31 C -2.137422 -2.101027 -1.953894 0
M  V30 32 C -3.057777 -0.864679 1.124786 0
M  V30 33 C -1.060329 0.745168 2.431813 0
M  V30 34 C -0.068741 1.250293 3.246313 0
M  V30 35 H 3.866468 0.477013 3.339339 0
M  V30 36 H 5.196375 -1.164426 2.352334 0
M  V30 37 H 3.751364 -2.007674 1.742007 0
M  V30 38 H 6.136370 0.711092 1.132313 0
M  V30 39 H 5.336983 1.182045 -2.991144 0
M  V30 40 H 2.910778 -1.401116 -0.576810 0
M  V30 41 H 0.729548 3.183163 5.604942 0
M  V30 42 H -2.046542 3.286906 5.021747 0
M  V30 43 H -3.785498 2.301466 3.482747 0
M  V30 44 H -4.657350 2.023006 1.240915 0
M  V30 45 H -5.511067 -1.548821 -0.971797 0
M  V30 46 H -2.940347 -3.392413 0.925797 0
M  V30 47 H -4.259777 -3.612407 -0.220943 0
M  V30 48 H -2.502365 -4.859950 -2.270520 0
M  V30 49 H -2.139748 -5.099333 -0.509500 0
M  V30 50 H 0.007189 -4.099669 -0.697839 0
M  V30 51 H -0.134678 -5.456150 -1.919430 0
M  V30 52 H -0.399663 -4.020168 -3.737160 0
M  V30 53 H 0.934786 -3.370689 -2.779957 0
M  V30 54 H -0.948783 -1.778516 -3.683930 0
M  V30 55 H -0.065394 -1.439526 -2.185972 0
M  V30 56 H -2.961511 -2.005700 -2.717788 0
M  V30 57 H -2.164663 -1.131165 -1.386923 0
M  V30 58 H -2.171904 -1.349187 1.566295 0
M  V30 59 H -0.749945 0.032004 1.702295 0
M  V30 END ATOM
M  V30 BEGIN BOND
M  V30 1 2 1 2
M  V30 2 1 2 3
M  V30 3 1 3 4
M  V30 4 1 4 5
M  V30 5 2 5 6
M  V30 6 1 6 7
M  V30 7 1 7 8
M  V30 8 2 7 9
M  V30 9 1 9 10
M  V30 10 1 10 11
M  V30 11 2 10 12
M  V30 12 1 2 13
M  V30 13 2 13 14
M  V30 14 1 14 15
M  V30 15 1 15 16
M  V30 16 2 16 17
M  V30 17 1 17 18
M  V30 18 2 18 19
M  V30 19 1 19 20
M  V30 20 2 20 21
M  V30 21 1 21 22
M  V30 22 2 22 23
M  V30 23 1 23 24
M  V30 24 1 24 25
M  V30 25 1 25 26
M  V30 26 1 26 27
M  V30 27 1 27 28
M  V30 28 1 28 29
M  V30 29 1 29 30
M  V30 30 1 30 31
M  V30 31 2 24 32
M  V30 32 1 19 33
M  V30 33 2 33 34
M  V30 34 1 12 5
M  V30 35 1 34 13
M  V30 36 1 34 16
M  V30 37 1 32 20
M  V30 38 1 31 26
M  V30 39 1 3 35
M  V30 40 1 4 36
M  V30 41 1 4 37
M  V30 42 1 6 38
M  V30 43 1 9 39
M  V30 44 1 12 40
M  V30 45 1 15 41
M  V30 46 1 17 42
M  V30 47 1 18 43
M  V30 48 1 21 44
M  V30 49 1 23 45
M  V30 50 1 25 46
M  V30 51 1 25 47
M  V30 52 1 27 48
M  V30 53 1 27 49
M  V30 54 1 28 50
M  V30 55 1 28 51
M  V30 56 1 29 52
M  V30 57 1 29 53
M  V30 58 1 30 54
M  V30 59 1 30 55
M  V30 60 1 31 56
M  V30 61 1 31 57
M  V30 62 1 32 58
M  V30 63 1 33 59
M  V30 END BOND
M  V30 END CTAB
M  END
>  <Dataset>  (251) 
ChEMBL_Kinases

>  <Ligand_Instance>  (251) 
nan

>  <PDB_ID>  (251) 
nan

>  <Standardized_SMILES>  (251) 
O=C(NCc1cc(F)cc(F)c1)c1n[nH]c2ccc(-c3cncc(CN4CCCCC4)c3)cc12

>  <Name>  (251) 
nan

>  <Pocket>  (251) 
nan

>  <ATP_Site>  (251) 
nan

>  <Peripheral>  (251) 
nan

>  <Num_H_Atoms_ProtBoundConf>  (251) 
nan

>  <Num_Resolved_Atoms>  (251) 
nan

>  <Num_Not_Resolved_Atoms>  (251) 
nan

$$$$
CHEMBL3109950
     RDKit          3D

  0  0  0  0  0  0  0  0  0  0999 V3000
M  V30 BEGIN CTAB
M  V30 COUNTS 45 48 0 0 0
M  V30 BEGIN ATOM
M  V30 1 C 1.566816 -5.668432 0.090616 0
M  V30 2 N 2.143639 -5.767197 -1.241481 0
M  V30 3 C 1.143205 -5.756337 -2.265334 0
M  V30 4 S 3.351323 -4.556245 -1.484330 0
M  V30 5 O 4.419885 -4.710443 -0.439499 0
M  V30 6 O 3.946026 -4.693382 -2.854397 0
M  V30 7 C 2.683546 -2.950661 -1.355292 0
M  V30 8 C 2.556883 -2.242682 -0.153660 0
M  V30 9 C 2.017097 -0.975524 -0.172510 0
M  V30 10 C 1.596986 -0.380606 -1.341203 0
M  V30 11 N 1.050023 0.931074 -1.290508 0
M  V30 12 C 0.812985 1.606928 -0.064363 0
M  V30 13 C -0.502116 1.483998 0.399594 0
M  V30 14 C -0.827918 2.114604 1.601261 0
M  V30 15 N -1.984914 2.166195 2.262796 0
M  V30 16 C -1.916342 2.882566 3.400867 0
M  V30 17 C -2.959562 3.170279 4.377815 0
M  V30 18 C -2.841919 3.898926 5.542495 0
M  V30 19 N -4.062223 3.914135 6.132091 0
M  V30 20 N -4.943277 3.240707 5.412907 0
M  V30 21 C -4.280932 2.778119 4.332321 0
M  V30 22 C -0.611070 3.316689 3.460857 0
M  V30 23 C 0.080372 2.856485 2.362698 0
M  V30 24 C 1.347034 2.916615 1.821070 0
M  V30 25 N 1.690240 2.320506 0.666045 0
M  V30 26 C 1.694738 -1.026151 -2.561250 0
M  V30 27 C 2.238378 -2.291629 -2.506844 0
M  V30 28 H 2.381789 -5.712881 0.869344 0
M  V30 29 H 0.930487 -4.780064 0.225466 0
M  V30 30 H 0.943567 -6.562942 0.293339 0
M  V30 31 H 1.134031 -4.827678 -2.877179 0
M  V30 32 H 0.131682 -5.848516 -1.828376 0
M  V30 33 H 1.304810 -6.658834 -2.916684 0
M  V30 34 H 2.909894 -2.778700 0.719935 0
M  V30 35 H 1.931991 -0.453513 0.773041 0
M  V30 36 H 0.800546 1.446752 -2.179040 0
M  V30 37 H -1.261839 0.922481 -0.138484 0
M  V30 38 H -2.871741 1.697207 1.937292 0
M  V30 39 H -1.932268 4.363417 5.899998 0
M  V30 40 H -5.964069 3.083359 5.619465 0
M  V30 41 H -4.696032 2.178717 3.518570 0
M  V30 42 H -0.120541 3.933674 4.225807 0
M  V30 43 H 2.083494 3.480949 2.380270 0
M  V30 44 H 1.379988 -0.602478 -3.502991 0
M  V30 45 H 2.334139 -2.832492 -3.432389 0
M  V30 END ATOM
M  V30 BEGIN BOND
M  V30 1 1 1 2
M  V30 2 1 2 3
M  V30 3 1 2 4
M  V30 4 2 4 5
M  V30 5 2 4 6
M  V30 6 1 4 7
M  V30 7 2 7 8
M  V30 8 1 8 9
M  V30 9 2 9 10
M  V30 10 1 10 11
M  V30 11 1 11 12
M  V30 12 2 12 13
M  V30 13 1 13 14
M  V30 14 1 14 15
M  V30 15 1 15 16
M  V30 16 1 16 17
M  V30 17 1 17 18
M  V30 18 2 18 19
M  V30 19 1 19 20
M  V30 20 1 20 21
M  V30 21 2 16 22
M  V30 22 1 22 23
M  V30 23 1 23 24
M  V30 24 2 24 25
M  V30 25 1 10 26
M  V30 26 2 26 27
M  V30 27 1 27 7
M  V30 28 1 25 12
M  V30 29 2 23 14
M  V30 30 2 21 17
M  V30 31 1 1 28
M  V30 32 1 1 29
M  V30 33 1 1 30
M  V30 34 1 3 31
M  V30 35 1 3 32
M  V30 36 1 3 33
M  V30 37 1 8 34
M  V30 38 1 9 35
M  V30 39 1 11 36
M  V30 40 1 13 37
M  V30 41 1 15 38
M  V30 42 1 18 39
M  V30 43 1 20 40
M  V30 44 1 21 41
M  V30 45 1 22 42
M  V30 46 1 24 43
M  V30 47 1 26 44
M  V30 48 1 27 45
M  V30 END BOND
M  V30 END CTAB
M  END
>  <Dataset>  (252) 
ChEMBL_Kinases

>  <Ligand_Instance>  (252) 
nan

>  <PDB_ID>  (252) 
nan

>  <Standardized_SMILES>  (252) 
CN(C)S(=O)(=O)c1ccc(Nc2cc3[nH]c(-c4cn[nH]c4)cc3cn2)cc1

>  <Name>  (252) 
nan

>  <Pocket>  (252) 
nan

>  <ATP_Site>  (252) 
nan

>  <Peripheral>  (252) 
nan

>  <Num_H_Atoms_ProtBoundConf>  (252) 
nan

>  <Num_Resolved_Atoms>  (252) 
nan

>  <Num_Not_Resolved_Atoms>  (252) 
nan

$$$$
CHEMBL4762665
     RDKit          3D

  0  0  0  0  0  0  0  0  0  0999 V3000
M  V30 BEGIN CTAB
M  V30 COUNTS 70 75 0 0 0
M  V30 BEGIN ATOM
M  V30 1 C 6.578398 4.461724 2.585236 0
M  V30 2 C 6.734484 3.056775 2.014924 0
M  V30 3 C 8.208732 2.702803 2.164767 0
M  V30 4 C 5.866126 2.087371 2.747427 0
M  V30 5 O 5.080475 2.237761 3.728189 0
M  V30 6 N 5.938211 0.775069 2.269785 0
M  V30 7 C 5.190467 -0.283385 2.854425 0
M  V30 8 C 5.911478 -0.923251 3.858723 0
M  V30 9 N 5.381745 -1.975516 4.548991 0
M  V30 10 C 4.133757 -2.374311 4.227720 0
M  V30 11 C 3.413403 -1.752554 3.247048 0
M  V30 12 C 2.077928 -2.216210 2.914127 0
M  V30 13 C 1.250869 -1.709504 1.975560 0
M  V30 14 C -0.014708 -2.188593 1.659541 0
M  V30 15 C -0.986094 -1.810335 0.754943 0
M  V30 16 C -0.948244 -0.743024 -0.236015 0
M  V30 17 C -2.044001 -0.559673 -1.044774 0
M  V30 18 C -1.807416 0.503037 -1.905370 0
M  V30 19 C -2.536171 1.094369 -2.900555 0
M  V30 20 C -3.878937 0.662167 -3.274659 0
M  V30 21 C -4.915962 1.556940 -3.454208 0
M  V30 22 C -6.240741 1.375628 -3.808680 0
M  V30 23 F -7.059664 2.426280 -3.932432 0
M  V30 24 C -6.497865 0.015600 -3.999778 0
M  V30 25 C -5.501117 -0.925520 -3.834786 0
M  V30 26 C -6.056484 -2.348195 -4.080367 0
M  V30 27 N -5.675545 -2.853380 -5.370919 0
M  V30 28 S -6.331348 -4.386933 -5.651111 0
M  V30 29 C -8.044559 -4.528184 -6.127032 0
M  V30 30 O -5.432370 -5.268407 -6.489296 0
M  V30 31 O -6.356432 -5.018927 -4.169362 0
M  V30 32 C -4.206842 -0.689694 -3.486947 0
M  V30 33 N -2.034148 2.110367 -3.563934 0
M  V30 34 C -0.811864 2.632419 -3.328810 0
M  V30 35 C -0.093703 2.022083 -2.326212 0
M  V30 36 C -0.552876 0.950820 -1.585773 0
M  V30 37 N -0.082706 0.189698 -0.598166 0
M  V30 38 N -1.916981 -2.712903 1.026280 0
M  V30 39 N -1.609586 -3.562009 1.963219 0
M  V30 40 C -0.376897 -3.275529 2.418435 0
M  V30 41 C 0.420696 -3.839277 3.389396 0
M  V30 42 N 1.619183 -3.291772 3.611422 0
M  V30 43 C 3.882738 -0.695906 2.514600 0
M  V30 44 H 6.709782 5.234429 1.770819 0
M  V30 45 H 5.545551 4.612480 2.951282 0
M  V30 46 H 7.333452 4.695857 3.406624 0
M  V30 47 H 6.462407 3.034330 0.978942 0
M  V30 48 H 8.761187 3.521720 2.753703 0
M  V30 49 H 8.396331 1.708354 2.584090 0
M  V30 50 H 8.692801 2.667462 1.173451 0
M  V30 51 H 6.504969 0.409360 1.480911 0
M  V30 52 H 6.870769 -0.641264 4.129010 0
M  V30 53 H 3.699825 -3.157416 4.735923 0
M  V30 54 H 1.621371 -0.853448 1.447837 0
M  V30 55 H -2.970576 -1.086373 -1.068710 0
M  V30 56 H -4.630587 2.577983 -3.299981 0
M  V30 57 H -7.588164 -0.036700 -4.268045 0
M  V30 58 H -5.246678 -2.950770 -3.404906 0
M  V30 59 H -6.932872 -2.506640 -3.575392 0
M  V30 60 H -4.678873 -2.823322 -5.634806 0
M  V30 61 H -7.979221 -4.682615 -7.298548 0
M  V30 62 H -8.443070 -5.517842 -5.786353 0
M  V30 63 H -8.703490 -3.679134 -5.939597 0
M  V30 64 H -3.424984 -1.444737 -3.373795 0
M  V30 65 H -0.259537 3.468222 -3.750665 0
M  V30 66 H 0.972161 2.363296 -2.059479 0
M  V30 67 H 0.839897 0.352384 -0.218579 0
M  V30 68 H -2.188546 -4.337431 2.338472 0
M  V30 69 H 0.154703 -4.682771 3.995228 0
M  V30 70 H 3.425483 -0.131063 1.749440 0
M  V30 END ATOM
M  V30 BEGIN BOND
M  V30 1 1 1 2
M  V30 2 1 2 3
M  V30 3 1 2 4
M  V30 4 2 4 5
M  V30 5 1 4 6
M  V30 6 1 6 7
M  V30 7 2 7 8
M  V30 8 1 8 9
M  V30 9 2 9 10
M  V30 10 1 10 11
M  V30 11 1 11 12
M  V30 12 2 12 13
M  V30 13 1 13 14
M  V30 14 1 14 15
M  V30 15 1 15 16
M  V30 16 2 16 17
M  V30 17 1 17 18
M  V30 18 2 18 19
M  V30 19 1 19 20
M  V30 20 2 20 21
M  V30 21 1 21 22
M  V30 22 1 22 23
M  V30 23 2 22 24
M  V30 24 1 24 25
M  V30 25 1 25 26
M  V30 26 1 26 27
M  V30 27 1 27 28
M  V30 28 1 28 29
M  V30 29 2 28 30
M  V30 30 2 28 31
M  V30 31 2 25 32
M  V30 32 1 19 33
M  V30 33 2 33 34
M  V30 34 1 34 35
M  V30 35 2 35 36
M  V30 36 1 36 37
M  V30 37 2 15 38
M  V30 38 1 38 39
M  V30 39 1 39 40
M  V30 40 1 40 41
M  V30 41 2 41 42
M  V30 42 2 11 43
M  V30 43 1 43 7
M  V30 44 1 42 12
M  V30 45 2 40 14
M  V30 46 1 37 16
M  V30 47 1 36 18
M  V30 48 1 32 20
M  V30 49 1 1 44
M  V30 50 1 1 45
M  V30 51 1 1 46
M  V30 52 1 2 47
M  V30 53 1 3 48
M  V30 54 1 3 49
M  V30 55 1 3 50
M  V30 56 1 6 51
M  V30 57 1 8 52
M  V30 58 1 10 53
M  V30 59 1 13 54
M  V30 60 1 17 55
M  V30 61 1 21 56
M  V30 62 1 24 57
M  V30 63 1 26 58
M  V30 64 1 26 59
M  V30 65 1 27 60
M  V30 66 1 29 61
M  V30 67 1 29 62
M  V30 68 1 29 63
M  V30 69 1 32 64
M  V30 70 1 34 65
M  V30 71 1 35 66
M  V30 72 1 37 67
M  V30 73 1 39 68
M  V30 74 1 41 69
M  V30 75 1 43 70
M  V30 END BOND
M  V30 END CTAB
M  END
>  <Dataset>  (253) 
ChEMBL_Kinases

>  <Ligand_Instance>  (253) 
nan

>  <PDB_ID>  (253) 
nan

>  <Standardized_SMILES>  (253) 
CC(C)C(=O)Nc1cncc(-c2cc3c(-c4cc5c(-c6cc(F)cc(CNS(C)(=O)=O)c6)nccc5[nH]4)n[nH]c3cn2)c1

>  <Name>  (253) 
nan

>  <Pocket>  (253) 
nan

>  <ATP_Site>  (253) 
nan

>  <Peripheral>  (253) 
nan

>  <Num_H_Atoms_ProtBoundConf>  (253) 
nan

>  <Num_Resolved_Atoms>  (253) 
nan

>  <Num_Not_Resolved_Atoms>  (253) 
nan

$$$$
CHEMBL4278200
     RDKit          3D

  0  0  0  0  0  0  0  0  0  0999 V3000
M  V30 BEGIN CTAB
M  V30 COUNTS 140 143 0 0 0
M  V30 BEGIN ATOM
M  V30 1 C -3.167899 -4.985785 -2.639883 0
M  V30 2 C -2.317113 -5.768691 -3.540889 0
M  V30 3 O -2.369816 -7.020131 -3.276947 0
M  V30 4 N -1.404589 -5.930424 -4.617736 0
M  V30 5 C -0.955945 -7.287342 -4.938980 0
M  V30 6 C -1.420482 -7.344668 -6.406467 0
M  V30 7 C -1.258937 -5.902151 -6.892973 0
M  V30 8 C -0.655313 -5.266219 -5.652298 0 CFG=1
M  V30 9 C -0.592169 -3.838677 -5.705104 0
M  V30 10 O 0.005492 -3.399637 -6.757973 0
M  V30 11 N -1.026681 -2.787172 -4.885519 0
M  V30 12 C -1.226112 -1.439607 -4.487064 0 CFG=1
M  V30 13 C -2.685726 -1.147677 -4.315374 0
M  V30 14 C -3.537635 -1.323978 -5.516290 0
M  V30 15 C -3.585054 -2.687711 -6.117557 0
M  V30 16 C -4.971693 -0.930515 -5.134279 0
M  V30 17 C -0.472697 -1.129483 -3.248030 0
M  V30 18 O -0.951915 0.011465 -2.881647 0
M  V30 19 N 0.526927 -1.650320 -2.410825 0
M  V30 20 C 0.765623 -0.794578 -1.319080 0 CFG=1
M  V30 21 C 1.551020 -1.416681 -0.195134 0
M  V30 22 C 0.843166 -2.526049 0.445979 0
M  V30 23 C -0.506442 -2.562273 0.750533 0
M  V30 24 N -0.834357 -3.741874 1.378831 0 CHG=1 VAL=4
M  V30 25 C 0.303239 -4.431739 1.456363 0
M  V30 26 N 1.274751 -3.710877 0.910706 0
M  V30 27 C 2.679403 -4.118623 0.885268 0
M  V30 28 C 3.299020 -3.790612 2.221266 0
M  V30 29 C 3.211432 -2.333970 2.607350 0
M  V30 30 C 3.826864 -2.090520 3.956975 0
M  V30 31 C 3.717732 -0.674586 4.406846 0
M  V30 32 C 4.398383 0.326138 3.525926 0
M  V30 33 C 4.237072 1.742278 4.110156 0
M  V30 34 C 4.958997 2.694346 3.221018 0
M  V30 35 C 4.876183 4.105201 3.733903 0
M  V30 36 C 3.937854 5.064457 3.445437 0
M  V30 37 C 3.891688 6.346804 3.937909 0
M  V30 38 C 4.922053 6.651588 4.812501 0
M  V30 39 C 5.891486 5.736945 5.142315 0
M  V30 40 C 5.914713 4.446328 4.629357 0
M  V30 41 C -2.267103 -3.504381 1.632763 0
M  V30 42 C -2.353566 -2.277304 2.531616 0
M  V30 43 C -3.708175 -1.758908 2.845655 0
M  V30 44 C -3.455783 -0.482364 3.694179 0
M  V30 45 C -2.654603 0.532828 2.987501 0
M  V30 46 C -2.448767 1.841390 3.745668 0
M  V30 47 N -1.633540 2.724134 2.887373 0
M  V30 48 C -1.107301 4.022310 2.933831 0
M  V30 49 O -1.750029 3.746992 3.967798 0
M  V30 50 C -0.296504 4.805241 1.974358 0 CFG=2
M  V30 51 C -1.251991 5.840553 1.315041 0 CFG=1
M  V30 52 C -1.827574 6.616545 2.478353 0
M  V30 53 O -0.599039 6.591213 0.396779 0
M  V30 54 P -1.399181 6.683191 -1.087625 0
M  V30 55 O -2.519490 7.704107 -1.091570 0
M  V30 56 O -0.294781 7.202400 -2.248227 0
M  V30 57 O -2.046173 5.219369 -1.575729 0
M  V30 58 N 0.212892 3.967192 0.907741 0
M  V30 59 C 1.288312 3.805819 0.028377 0
M  V30 60 O 1.893631 4.853776 0.331318 0
M  V30 61 C 1.939994 3.022311 -1.001018 0 CFG=2
M  V30 62 C 1.701835 3.746558 -2.372285 0
M  V30 63 O 0.372563 3.705338 -2.699770 0
M  V30 64 N 1.489512 1.659429 -1.171557 0
M  V30 65 C 1.584248 0.404280 -1.831787 0
M  V30 66 O 2.374825 0.970613 -2.606348 0
M  V30 67 H -3.925384 -4.454831 -3.252814 0
M  V30 68 H -3.722624 -5.607897 -1.944026 0
M  V30 69 H -2.547912 -4.211900 -2.127338 0
M  V30 70 H -1.379044 -8.088466 -4.357022 0
M  V30 71 H 0.169142 -7.314098 -4.902040 0
M  V30 72 H -0.740856 -8.044480 -6.927941 0
M  V30 73 H -2.477168 -7.664519 -6.380839 0
M  V30 74 H -2.287341 -5.513198 -7.063399 0
M  V30 75 H -0.595348 -5.815215 -7.748368 0
M  V30 76 H 0.402594 -5.678138 -5.598524 0
M  V30 77 H -1.471786 -3.274235 -4.049793 0
M  V30 78 H -0.838518 -0.721543 -5.298601 0
M  V30 79 H -3.085588 -1.678942 -3.441031 0
M  V30 80 H -2.735505 -0.044955 -4.059442 0
M  V30 81 H -3.239224 -0.593647 -6.310528 0
M  V30 82 H -3.455070 -3.497254 -5.399970 0
M  V30 83 H -2.927948 -2.764667 -7.021933 0
M  V30 84 H -4.618478 -2.839256 -6.548293 0
M  V30 85 H -5.564579 -1.815036 -4.818531 0
M  V30 86 H -5.505108 -0.498126 -6.015632 0
M  V30 87 H -4.992358 -0.179810 -4.318073 0
M  V30 88 H 0.810756 -2.546530 -2.860433 0
M  V30 89 H -0.147505 -0.343702 -0.937923 0
M  V30 90 H 1.914394 -0.664185 0.529099 0
M  V30 91 H 2.458016 -1.871811 -0.700115 0
M  V30 92 H -0.980928 -1.626388 0.389115 0
M  V30 93 H 0.196476 -5.390263 1.929195 0
M  V30 94 H 2.809960 -5.204232 0.685076 0
M  V30 95 H 3.267862 -3.600892 0.130168 0
M  V30 96 H 4.397074 -4.065303 2.194363 0
M  V30 97 H 2.813447 -4.413756 3.005310 0
M  V30 98 H 2.134966 -2.037036 2.708406 0
M  V30 99 H 3.662183 -1.734438 1.810474 0
M  V30 100 H 3.192446 -2.691943 4.678072 0
M  V30 101 H 4.885825 -2.462251 4.000438 0
M  V30 102 H 2.618475 -0.406925 4.511715 0
M  V30 103 H 4.092590 -0.593273 5.472878 0
M  V30 104 H 3.964840 0.336052 2.511503 0
M  V30 105 H 5.480444 0.064575 3.480130 0
M  V30 106 H 4.573052 1.785120 5.165437 0
M  V30 107 H 3.153921 1.992106 4.131888 0
M  V30 108 H 6.002825 2.408883 3.100260 0
M  V30 109 H 4.406160 2.726710 2.239154 0
M  V30 110 H 3.171051 4.745169 2.760392 0
M  V30 111 H 3.084881 6.986103 3.611810 0
M  V30 112 H 4.918800 7.652688 5.216391 0
M  V30 113 H 6.638958 6.096924 5.831955 0
M  V30 114 H 6.717637 3.815407 4.955383 0
M  V30 115 H -2.809131 -3.398439 0.689767 0
M  V30 116 H -2.653958 -4.367796 2.184480 0
M  V30 117 H -1.904955 -2.603688 3.521537 0
M  V30 118 H -1.779429 -1.447469 2.120487 0
M  V30 119 H -4.286347 -2.440572 3.474374 0
M  V30 120 H -4.239394 -1.437648 1.904654 0
M  V30 121 H -2.903808 -0.829991 4.615916 0
M  V30 122 H -4.433743 -0.137083 4.031112 0
M  V30 123 H -3.145196 0.761363 2.008336 0
M  V30 124 H -1.615851 0.226519 2.736408 0
M  V30 125 H -2.040227 1.704354 4.741371 0
M  V30 126 H -3.433206 2.338375 3.824512 0
M  V30 127 H -1.323483 2.328805 1.948103 0
M  V30 128 H 0.488988 5.349992 2.517163 0
M  V30 129 H -2.087033 5.291410 0.867888 0
M  V30 130 H -2.409410 7.502186 2.078349 0
M  V30 131 H -1.118726 6.865145 3.265664 0
M  V30 132 H -2.621979 5.979794 2.930013 0
M  V30 133 H -0.672504 6.958217 -3.154542 0
M  V30 134 H -2.848603 5.335760 -2.159546 0
M  V30 135 H -0.227954 3.132387 0.489994 0
M  V30 136 H 3.028572 3.040038 -0.926594 0
M  V30 137 H 2.377439 3.256644 -3.081753 0
M  V30 138 H 2.062352 4.774875 -2.196126 0
M  V30 139 H 0.240895 3.272132 -3.595200 0
M  V30 140 H 0.733398 1.563513 -0.467812 0
M  V30 END ATOM
M  V30 BEGIN BOND
M  V30 1 1 1 2
M  V30 2 2 2 3
M  V30 3 1 2 4
M  V30 4 1 4 5
M  V30 5 1 5 6
M  V30 6 1 6 7
M  V30 7 1 7 8
M  V30 8 1 8 9
M  V30 9 2 9 10
M  V30 10 1 9 11
M  V30 11 1 11 12
M  V30 12 1 12 13
M  V30 13 1 13 14
M  V30 14 1 14 15
M  V30 15 1 14 16
M  V30 16 1 12 17
M  V30 17 2 17 18
M  V30 18 1 17 19
M  V30 19 1 19 20
M  V30 20 1 20 21
M  V30 21 1 21 22
M  V30 22 2 22 23
M  V30 23 1 23 24
M  V30 24 2 24 25
M  V30 25 1 25 26
M  V30 26 1 26 27
M  V30 27 1 27 28
M  V30 28 1 28 29
M  V30 29 1 29 30
M  V30 30 1 30 31
M  V30 31 1 31 32
M  V30 32 1 32 33
M  V30 33 1 33 34
M  V30 34 1 34 35
M  V30 35 2 35 36
M  V30 36 1 36 37
M  V30 37 2 37 38
M  V30 38 1 38 39
M  V30 39 2 39 40
M  V30 40 1 24 41
M  V30 41 1 41 42
M  V30 42 1 42 43
M  V30 43 1 43 44
M  V30 44 1 44 45
M  V30 45 1 45 46
M  V30 46 1 46 47
M  V30 47 1 47 48
M  V30 48 2 48 49
M  V30 49 1 48 50
M  V30 50 1 50 51
M  V30 51 1 51 52
M  V30 52 1 51 53
M  V30 53 1 53 54
M  V30 54 2 54 55
M  V30 55 1 54 56
M  V30 56 1 54 57
M  V30 57 1 50 58
M  V30 58 1 58 59
M  V30 59 2 59 60
M  V30 60 1 59 61
M  V30 61 1 61 62
M  V30 62 1 62 63
M  V30 63 1 61 64
M  V30 64 1 64 65
M  V30 65 2 65 66
M  V30 66 1 8 4
M  V30 67 1 65 20
M  V30 68 1 26 22
M  V30 69 1 40 35
M  V30 70 1 1 67
M  V30 71 1 1 68
M  V30 72 1 1 69
M  V30 73 1 5 70
M  V30 74 1 5 71
M  V30 75 1 6 72
M  V30 76 1 6 73
M  V30 77 1 7 74
M  V30 78 1 7 75
M  V30 79 1 8 76 CFG=1
M  V30 80 1 11 77
M  V30 81 1 12 78 CFG=3
M  V30 82 1 13 79
M  V30 83 1 13 80
M  V30 84 1 14 81
M  V30 85 1 15 82
M  V30 86 1 15 83
M  V30 87 1 15 84
M  V30 88 1 16 85
M  V30 89 1 16 86
M  V30 90 1 16 87
M  V30 91 1 19 88
M  V30 92 1 20 89 CFG=1
M  V30 93 1 21 90
M  V30 94 1 21 91
M  V30 95 1 23 92
M  V30 96 1 25 93
M  V30 97 1 27 94
M  V30 98 1 27 95
M  V30 99 1 28 96
M  V30 100 1 28 97
M  V30 101 1 29 98
M  V30 102 1 29 99
M  V30 103 1 30 100
M  V30 104 1 30 101
M  V30 105 1 31 102
M  V30 106 1 31 103
M  V30 107 1 32 104
M  V30 108 1 32 105
M  V30 109 1 33 106
M  V30 110 1 33 107
M  V30 111 1 34 108
M  V30 112 1 34 109
M  V30 113 1 36 110
M  V30 114 1 37 111
M  V30 115 1 38 112
M  V30 116 1 39 113
M  V30 117 1 40 114
M  V30 118 1 41 115
M  V30 119 1 41 116
M  V30 120 1 42 117
M  V30 121 1 42 118
M  V30 122 1 43 119
M  V30 123 1 43 120
M  V30 124 1 44 121
M  V30 125 1 44 122
M  V30 126 1 45 123
M  V30 127 1 45 124
M  V30 128 1 46 125
M  V30 129 1 46 126
M  V30 130 1 47 127
M  V30 131 1 50 128 CFG=1
M  V30 132 1 51 129 CFG=3
M  V30 133 1 52 130
M  V30 134 1 52 131
M  V30 135 1 52 132
M  V30 136 1 56 133
M  V30 137 1 57 134
M  V30 138 1 58 135
M  V30 139 1 61 136 CFG=1
M  V30 140 1 62 137
M  V30 141 1 62 138
M  V30 142 1 63 139
M  V30 143 1 64 140
M  V30 END BOND
M  V30 END CTAB
M  END
>  <Dataset>  (254) 
ChEMBL_Kinases

>  <Ligand_Instance>  (254) 
nan

>  <PDB_ID>  (254) 
nan

>  <Standardized_SMILES>  (254) 
CC(=O)N1CCC[C@H]1C(=O)N[C@@H](CC(C)C)C(=O)N[C@H]1Cc2c[n+](cn2CCCCCCCCc2ccccc2)CCCCCCNC(=O)[C@H]([C@@H](C)OP(=O)(O)O)NC(=O)[C@H](CO)NC1=O

>  <Name>  (254) 
nan

>  <Pocket>  (254) 
nan

>  <ATP_Site>  (254) 
nan

>  <Peripheral>  (254) 
nan

>  <Num_H_Atoms_ProtBoundConf>  (254) 
nan

>  <Num_Resolved_Atoms>  (254) 
nan

>  <Num_Not_Resolved_Atoms>  (254) 
nan

$$$$
CHEMBL4762624
     RDKit          3D

  0  0  0  0  0  0  0  0  0  0999 V3000
M  V30 BEGIN CTAB
M  V30 COUNTS 68 73 0 0 0
M  V30 BEGIN ATOM
M  V30 1 C 3.741567 -3.145463 5.647297 0
M  V30 2 C 3.748440 -3.231257 4.130029 0
M  V30 3 C 2.430136 -3.636104 3.550101 0
M  V30 4 C 2.460246 -3.715512 2.048576 0
M  V30 5 C 2.804761 -2.391918 1.471724 0
M  V30 6 O 3.067447 -1.224689 1.919940 0
M  V30 7 N 2.890730 -2.293287 0.033706 0
M  V30 8 C 3.234572 -0.940876 -0.339279 0
M  V30 9 C 4.617949 -0.788400 -0.402506 0
M  V30 10 N 5.098630 0.431688 -0.739243 0
M  V30 11 C 4.262618 1.452313 -1.001074 0
M  V30 12 C 2.893863 1.307452 -0.940267 0
M  V30 13 C 1.961344 2.394914 -1.216184 0
M  V30 14 C 2.378091 3.663166 -1.557640 0
M  V30 15 C 1.547530 4.733237 -1.827808 0
M  V30 16 C 0.171567 4.518625 -1.750380 0
M  V30 17 N -0.861117 5.336548 -1.951154 0
M  V30 18 N -1.937155 4.597857 -1.740199 0
M  V30 19 C -1.611638 3.346068 -1.414324 0
M  V30 20 C -2.569188 2.287946 -1.121994 0
M  V30 21 C -2.350287 0.974713 -0.780488 0
M  V30 22 C -3.609520 0.439258 -0.622741 0
M  V30 23 C -3.920603 -0.856976 -0.277289 0
M  V30 24 N -3.040930 -1.939848 -0.009932 0
M  V30 25 C -2.152180 -2.401530 -1.076595 0
M  V30 26 C -1.818770 -3.846745 -0.731327 0
M  V30 27 C -1.307992 -3.895557 0.704981 0
M  V30 28 C -2.484426 -3.721041 1.611126 0
M  V30 29 C -3.180875 -2.427679 1.341645 0
M  V30 30 C -5.263440 -1.222926 -0.161275 0
M  V30 31 C -6.248809 -0.260710 -0.399997 0
M  V30 32 C -5.923451 1.039150 -0.746784 0
M  V30 33 C -4.586772 1.381817 -0.856520 0
M  V30 34 N -3.907805 2.506570 -1.160891 0
M  V30 35 C -0.236274 3.242380 -1.407052 0
M  V30 36 N 0.623561 2.234265 -1.153527 0
M  V30 37 C 2.352065 0.078374 -0.600198 0
M  V30 38 H 2.728277 -3.241266 6.078769 0
M  V30 39 H 4.396244 -3.962048 6.048365 0
M  V30 40 H 4.170256 -2.189909 5.994511 0
M  V30 41 H 4.541726 -3.958669 3.793934 0
M  V30 42 H 4.074373 -2.247528 3.742942 0
M  V30 43 H 1.709912 -2.805063 3.800487 0
M  V30 44 H 2.023694 -4.540031 4.017947 0
M  V30 45 H 3.146266 -4.506771 1.680527 0
M  V30 46 H 1.447414 -3.980353 1.692173 0
M  V30 47 H 2.731225 -3.072072 -0.641251 0
M  V30 48 H 5.353657 -1.545088 -0.210233 0
M  V30 49 H 4.704744 2.391915 -1.260894 0
M  V30 50 H 3.418308 3.906618 -1.637570 0
M  V30 51 H 1.902300 5.710961 -2.090985 0
M  V30 52 H -0.772131 6.350158 -2.220555 0
M  V30 53 H -1.403593 0.500011 -0.667733 0
M  V30 54 H -1.210875 -1.830739 -1.123610 0
M  V30 55 H -2.718787 -2.364733 -2.022600 0
M  V30 56 H -0.992316 -4.222065 -1.367390 0
M  V30 57 H -2.724616 -4.471896 -0.813333 0
M  V30 58 H -0.574890 -3.061837 0.790124 0
M  V30 59 H -0.801463 -4.860005 0.835899 0
M  V30 60 H -3.154653 -4.600928 1.446592 0
M  V30 61 H -2.162790 -3.815996 2.684212 0
M  V30 62 H -2.828386 -1.663271 2.075235 0
M  V30 63 H -4.285361 -2.570413 1.526799 0
M  V30 64 H -5.716954 -2.158922 0.091509 0
M  V30 65 H -7.318660 -0.423829 -0.341347 0
M  V30 66 H -6.649919 1.807264 -0.938039 0
M  V30 67 H -4.444165 3.378442 -1.382352 0
M  V30 68 H 1.320060 -0.158622 -0.519820 0
M  V30 END ATOM
M  V30 BEGIN BOND
M  V30 1 1 1 2
M  V30 2 1 2 3
M  V30 3 1 3 4
M  V30 4 1 4 5
M  V30 5 2 5 6
M  V30 6 1 5 7
M  V30 7 1 7 8
M  V30 8 2 8 9
M  V30 9 1 9 10
M  V30 10 2 10 11
M  V30 11 1 11 12
M  V30 12 1 12 13
M  V30 13 2 13 14
M  V30 14 1 14 15
M  V30 15 2 15 16
M  V30 16 1 16 17
M  V30 17 1 17 18
M  V30 18 2 18 19
M  V30 19 1 19 20
M  V30 20 2 20 21
M  V30 21 1 21 22
M  V30 22 2 22 23
M  V30 23 1 23 24
M  V30 24 1 24 25
M  V30 25 1 25 26
M  V30 26 1 26 27
M  V30 27 1 27 28
M  V30 28 1 28 29
M  V30 29 1 23 30
M  V30 30 2 30 31
M  V30 31 1 31 32
M  V30 32 2 32 33
M  V30 33 1 33 34
M  V30 34 1 19 35
M  V30 35 2 35 36
M  V30 36 2 12 37
M  V30 37 1 37 8
M  V30 38 1 36 13
M  V30 39 1 35 16
M  V30 40 1 34 20
M  V30 41 1 33 22
M  V30 42 1 29 24
M  V30 43 1 1 38
M  V30 44 1 1 39
M  V30 45 1 1 40
M  V30 46 1 2 41
M  V30 47 1 2 42
M  V30 48 1 3 43
M  V30 49 1 3 44
M  V30 50 1 4 45
M  V30 51 1 4 46
M  V30 52 1 7 47
M  V30 53 1 9 48
M  V30 54 1 11 49
M  V30 55 1 14 50
M  V30 56 1 15 51
M  V30 57 1 17 52
M  V30 58 1 21 53
M  V30 59 1 25 54
M  V30 60 1 25 55
M  V30 61 1 26 56
M  V30 62 1 26 57
M  V30 63 1 27 58
M  V30 64 1 27 59
M  V30 65 1 28 60
M  V30 66 1 28 61
M  V30 67 1 29 62
M  V30 68 1 29 63
M  V30 69 1 30 64
M  V30 70 1 31 65
M  V30 71 1 32 66
M  V30 72 1 34 67
M  V30 73 1 37 68
M  V30 END BOND
M  V30 END CTAB
M  END
>  <Dataset>  (255) 
ChEMBL_Kinases

>  <Ligand_Instance>  (255) 
nan

>  <PDB_ID>  (255) 
nan

>  <Standardized_SMILES>  (255) 
CCCCC(=O)Nc1cncc(-c2ccc3[nH]nc(-c4cc5c(N6CCCCC6)cccc5[nH]4)c3n2)c1

>  <Name>  (255) 
nan

>  <Pocket>  (255) 
nan

>  <ATP_Site>  (255) 
nan

>  <Peripheral>  (255) 
nan

>  <Num_H_Atoms_ProtBoundConf>  (255) 
nan

>  <Num_Resolved_Atoms>  (255) 
nan

>  <Num_Not_Resolved_Atoms>  (255) 
nan

$$$$
CHEMBL4762565
     RDKit          3D

  0  0  0  0  0  0  0  0  0  0999 V3000
M  V30 BEGIN CTAB
M  V30 COUNTS 64 69 0 0 0
M  V30 BEGIN ATOM
M  V30 1 C 5.333069 -3.240351 4.193652 0
M  V30 2 C 5.909883 -1.844768 4.421709 0
M  V30 3 C 6.219527 -1.165710 3.108302 0
M  V30 4 C 4.980673 -1.023069 2.273679 0
M  V30 5 O 3.849341 -1.444070 2.683997 0
M  V30 6 N 5.091728 -0.401719 0.999679 0
M  V30 7 C 3.806623 -0.352275 0.343394 0
M  V30 8 C 3.371714 -1.387461 -0.487386 0
M  V30 9 N 2.157465 -1.299282 -1.082509 0
M  V30 10 C 1.374542 -0.219263 -0.873824 0
M  V30 11 C 1.752304 0.841379 -0.058678 0
M  V30 12 C 0.837849 1.972983 0.111093 0
M  V30 13 C 1.314046 3.264891 0.328955 0
M  V30 14 C 0.408787 4.306429 0.484746 0
M  V30 15 C -0.949602 4.035106 0.419629 0
M  V30 16 N -2.046760 4.815086 0.529803 0
M  V30 17 N -3.147304 4.072638 0.391871 0
M  V30 18 C -2.811396 2.792368 0.188476 0
M  V30 19 C -3.708529 1.660625 -0.009101 0
M  V30 20 N -3.334876 0.383872 -0.210059 0
M  V30 21 C -4.462623 -0.355579 -0.346548 0
M  V30 22 C -4.611059 -1.710133 -0.567654 0
M  V30 23 N -3.541736 -2.617761 -0.698222 0
M  V30 24 C -3.598723 -4.049246 -0.928756 0
M  V30 25 C -2.895117 -4.301503 -2.259543 0
M  V30 26 C -1.455298 -3.923140 -2.066121 0
M  V30 27 C -1.227216 -3.189153 -0.760463 0
M  V30 28 C -2.214780 -2.054059 -0.589265 0
M  V30 29 C -5.938385 -2.109150 -0.651884 0
M  V30 30 N -7.026200 -1.324688 -0.541356 0
M  V30 31 C -6.863090 -0.003176 -0.325361 0
M  V30 32 C -5.566681 0.462199 -0.230796 0
M  V30 33 N -5.053240 1.690832 -0.024343 0
M  V30 34 C -1.432289 2.741733 0.201424 0
M  V30 35 C -0.518581 1.707315 0.046907 0
M  V30 36 C 2.993340 0.743558 0.545082 0
M  V30 37 H 5.562957 -3.542796 3.145067 0
M  V30 38 H 4.234434 -3.174634 4.359332 0
M  V30 39 H 5.812099 -3.982330 4.870631 0
M  V30 40 H 5.268946 -1.238856 5.083244 0
M  V30 41 H 6.878514 -1.994614 4.941221 0
M  V30 42 H 6.547748 -0.136162 3.340675 0
M  V30 43 H 6.997284 -1.778155 2.595849 0
M  V30 44 H 6.028218 -0.068738 0.692930 0
M  V30 45 H 4.038821 -2.228418 -0.619197 0
M  V30 46 H 0.415605 -0.243865 -1.398190 0
M  V30 47 H 2.384773 3.391966 0.366026 0
M  V30 48 H 0.785739 5.318314 0.655375 0
M  V30 49 H -1.971344 5.859421 0.701078 0
M  V30 50 H -3.144977 -4.635294 -0.103348 0
M  V30 51 H -4.637412 -4.416644 -1.034615 0
M  V30 52 H -3.388121 -3.595225 -2.985629 0
M  V30 53 H -3.063731 -5.339737 -2.577056 0
M  V30 54 H -0.841293 -4.823286 -2.072279 0
M  V30 55 H -1.096161 -3.219116 -2.863117 0
M  V30 56 H -1.260580 -3.885914 0.084498 0
M  V30 57 H -0.179286 -2.815031 -0.808049 0
M  V30 58 H -2.024065 -1.263017 -1.336574 0
M  V30 59 H -2.036985 -1.617651 0.420490 0
M  V30 60 H -6.203239 -3.141911 -0.822768 0
M  V30 61 H -7.704311 0.656754 -0.231126 0
M  V30 62 H -5.586199 2.580827 0.111623 0
M  V30 63 H -0.894447 0.708112 -0.121744 0
M  V30 64 H 3.290071 1.565161 1.178840 0
M  V30 END ATOM
M  V30 BEGIN BOND
M  V30 1 1 1 2
M  V30 2 1 2 3
M  V30 3 1 3 4
M  V30 4 2 4 5
M  V30 5 1 4 6
M  V30 6 1 6 7
M  V30 7 2 7 8
M  V30 8 1 8 9
M  V30 9 2 9 10
M  V30 10 1 10 11
M  V30 11 1 11 12
M  V30 12 2 12 13
M  V30 13 1 13 14
M  V30 14 2 14 15
M  V30 15 1 15 16
M  V30 16 1 16 17
M  V30 17 2 17 18
M  V30 18 1 18 19
M  V30 19 2 19 20
M  V30 20 1 20 21
M  V30 21 2 21 22
M  V30 22 1 22 23
M  V30 23 1 23 24
M  V30 24 1 24 25
M  V30 25 1 25 26
M  V30 26 1 26 27
M  V30 27 1 27 28
M  V30 28 1 22 29
M  V30 29 2 29 30
M  V30 30 1 30 31
M  V30 31 2 31 32
M  V30 32 1 32 33
M  V30 33 1 18 34
M  V30 34 2 34 35
M  V30 35 2 11 36
M  V30 36 1 36 7
M  V30 37 1 35 12
M  V30 38 1 34 15
M  V30 39 1 33 19
M  V30 40 1 32 21
M  V30 41 1 28 23
M  V30 42 1 1 37
M  V30 43 1 1 38
M  V30 44 1 1 39
M  V30 45 1 2 40
M  V30 46 1 2 41
M  V30 47 1 3 42
M  V30 48 1 3 43
M  V30 49 1 6 44
M  V30 50 1 8 45
M  V30 51 1 10 46
M  V30 52 1 13 47
M  V30 53 1 14 48
M  V30 54 1 16 49
M  V30 55 1 24 50
M  V30 56 1 24 51
M  V30 57 1 25 52
M  V30 58 1 25 53
M  V30 59 1 26 54
M  V30 60 1 26 55
M  V30 61 1 27 56
M  V30 62 1 27 57
M  V30 63 1 28 58
M  V30 64 1 28 59
M  V30 65 1 29 60
M  V30 66 1 31 61
M  V30 67 1 33 62
M  V30 68 1 35 63
M  V30 69 1 36 64
M  V30 END BOND
M  V30 END CTAB
M  END
>  <Dataset>  (256) 
ChEMBL_Kinases

>  <Ligand_Instance>  (256) 
nan

>  <PDB_ID>  (256) 
nan

>  <Standardized_SMILES>  (256) 
CCCC(=O)Nc1cncc(-c2ccc3[nH]nc(-c4nc5c(N6CCCCC6)cncc5[nH]4)c3c2)c1

>  <Name>  (256) 
nan

>  <Pocket>  (256) 
nan

>  <ATP_Site>  (256) 
nan

>  <Peripheral>  (256) 
nan

>  <Num_H_Atoms_ProtBoundConf>  (256) 
nan

>  <Num_Resolved_Atoms>  (256) 
nan

>  <Num_Not_Resolved_Atoms>  (256) 
nan

$$$$
CHEMBL4762553
     RDKit          3D

  0  0  0  0  0  0  0  0  0  0999 V3000
M  V30 BEGIN CTAB
M  V30 COUNTS 61 65 0 0 0
M  V30 BEGIN ATOM
M  V30 1 C 7.282256 0.358375 4.217488 0
M  V30 2 C 7.204134 -0.996044 3.580728 0
M  V30 3 C 6.943974 -2.017214 4.671371 0
M  V30 4 N 6.177426 -1.127451 2.606653 0
M  V30 5 C 6.276483 -0.231920 1.488257 0
M  V30 6 C 5.334618 -0.616466 0.397344 0
M  V30 7 C 4.018893 -1.147200 0.808394 0
M  V30 8 C 2.932894 -0.121668 0.764572 0
M  V30 9 N 1.841998 -0.204876 -0.020618 0
M  V30 10 C 1.057372 0.894175 0.186317 0
M  V30 11 C -0.222793 1.323256 -0.383682 0
M  V30 12 O -0.812464 2.388418 -0.068128 0
M  V30 13 N -0.748859 0.410436 -1.343450 0
M  V30 14 C -1.921444 0.401736 -2.132420 0
M  V30 15 C -2.999617 -0.213974 -1.529470 0
M  V30 16 C -4.226040 -0.311353 -2.162091 0
M  V30 17 C -5.304609 -0.927897 -1.557658 0
M  V30 18 C -6.526851 -1.016860 -2.205911 0
M  V30 19 C -7.610552 -1.682694 -1.497371 0
M  V30 20 C -8.990689 -1.486902 -1.527188 0
M  V30 21 N -9.562900 -2.361376 -0.686064 0
M  V30 22 N -8.637041 -3.122638 -0.103326 0
M  V30 23 C -8.959381 -4.150232 0.848570 0
M  V30 24 C -7.455482 -2.714171 -0.592353 0
M  V30 25 C -6.661732 -0.478799 -3.475486 0
M  V30 26 C -5.591025 0.152678 -4.118113 0
M  V30 27 C -4.385871 0.216490 -3.426632 0
M  V30 28 C -3.276814 0.835387 -4.015297 0
M  V30 29 N -2.076456 0.925808 -3.385250 0
M  V30 30 C 1.736049 1.633275 1.132490 0
M  V30 31 O 2.859326 0.995332 1.459149 0
M  V30 32 C 3.965824 -1.806859 2.159787 0
M  V30 33 C 4.833182 -1.041415 3.137998 0
M  V30 34 H 6.257165 0.783093 4.300399 0
M  V30 35 H 7.648252 0.220898 5.259700 0
M  V30 36 H 7.974213 1.051948 3.728785 0
M  V30 37 H 8.163120 -1.280365 3.093582 0
M  V30 38 H 6.335958 -2.865833 4.311935 0
M  V30 39 H 7.906120 -2.477068 5.013033 0
M  V30 40 H 6.449062 -1.527431 5.539290 0
M  V30 41 H 7.323304 -0.345254 1.086535 0
M  V30 42 H 6.132901 0.824646 1.742390 0
M  V30 43 H 5.166882 0.305949 -0.227858 0
M  V30 44 H 5.839489 -1.321476 -0.326407 0
M  V30 45 H 3.716089 -1.954577 0.077842 0
M  V30 46 H -0.289025 -0.484985 -1.632909 0
M  V30 47 H -2.967391 -0.659235 -0.533332 0
M  V30 48 H -5.183533 -1.350057 -0.551516 0
M  V30 49 H -9.447181 -0.730681 -2.154751 0
M  V30 50 H -9.489875 -3.668141 1.717721 0
M  V30 51 H -8.054324 -4.661218 1.202197 0
M  V30 52 H -9.664504 -4.916347 0.451915 0
M  V30 53 H -6.540721 -3.185696 -0.267487 0
M  V30 54 H -7.630441 -0.569767 -3.943962 0
M  V30 55 H -5.702593 0.568232 -5.104018 0
M  V30 56 H -3.343847 1.266632 -5.005010 0
M  V30 57 H 1.441220 2.580810 1.566272 0
M  V30 58 H 4.279934 -2.868939 2.109100 0
M  V30 59 H 2.906629 -1.807296 2.491183 0
M  V30 60 H 4.532647 0.032559 3.095688 0
M  V30 61 H 4.718827 -1.378375 4.166506 0
M  V30 END ATOM
M  V30 BEGIN BOND
M  V30 1 1 1 2
M  V30 2 1 2 3
M  V30 3 1 2 4
M  V30 4 1 4 5
M  V30 5 1 5 6
M  V30 6 1 6 7
M  V30 7 1 7 8
M  V30 8 2 8 9
M  V30 9 1 9 10
M  V30 10 1 10 11
M  V30 11 2 11 12
M  V30 12 1 11 13
M  V30 13 1 13 14
M  V30 14 2 14 15
M  V30 15 1 15 16
M  V30 16 2 16 17
M  V30 17 1 17 18
M  V30 18 1 18 19
M  V30 19 1 19 20
M  V30 20 2 20 21
M  V30 21 1 21 22
M  V30 22 1 22 23
M  V30 23 1 22 24
M  V30 24 2 18 25
M  V30 25 1 25 26
M  V30 26 2 26 27
M  V30 27 1 27 28
M  V30 28 2 28 29
M  V30 29 2 10 30
M  V30 30 1 30 31
M  V30 31 1 7 32
M  V30 32 1 32 33
M  V30 33 1 33 4
M  V30 34 1 31 8
M  V30 35 1 29 14
M  V30 36 1 27 16
M  V30 37 2 24 19
M  V30 38 1 1 34
M  V30 39 1 1 35
M  V30 40 1 1 36
M  V30 41 1 2 37
M  V30 42 1 3 38
M  V30 43 1 3 39
M  V30 44 1 3 40
M  V30 45 1 5 41
M  V30 46 1 5 42
M  V30 47 1 6 43
M  V30 48 1 6 44
M  V30 49 1 7 45
M  V30 50 1 13 46
M  V30 51 1 15 47
M  V30 52 1 17 48
M  V30 53 1 20 49
M  V30 54 1 23 50
M  V30 55 1 23 51
M  V30 56 1 23 52
M  V30 57 1 24 53
M  V30 58 1 25 54
M  V30 59 1 26 55
M  V30 60 1 28 56
M  V30 61 1 30 57
M  V30 62 1 32 58
M  V30 63 1 32 59
M  V30 64 1 33 60
M  V30 65 1 33 61
M  V30 END BOND
M  V30 END CTAB
M  END
>  <Dataset>  (257) 
ChEMBL_Kinases

>  <Ligand_Instance>  (257) 
nan

>  <PDB_ID>  (257) 
nan

>  <Standardized_SMILES>  (257) 
CC(C)N1CCC(c2nc(C(=O)Nc3cc4cc(-c5cnn(C)c5)ccc4cn3)co2)CC1

>  <Name>  (257) 
nan

>  <Pocket>  (257) 
nan

>  <ATP_Site>  (257) 
nan

>  <Peripheral>  (257) 
nan

>  <Num_H_Atoms_ProtBoundConf>  (257) 
nan

>  <Num_Resolved_Atoms>  (257) 
nan

>  <Num_Not_Resolved_Atoms>  (257) 
nan

$$$$
CHEMBL4762500
     RDKit          3D

  0  0  0  0  0  0  0  0  0  0999 V3000
M  V30 BEGIN CTAB
M  V30 COUNTS 46 51 0 0 0
M  V30 BEGIN ATOM
M  V30 1 C -0.954007 -7.743908 4.711492 0
M  V30 2 N -0.749706 -6.482525 4.023751 0
M  V30 3 C -1.357487 -6.099562 2.864706 0
M  V30 4 C -0.857168 -4.840696 2.598872 0
M  V30 5 C -1.230190 -4.030905 1.442057 0
M  V30 6 C -0.682950 -2.781088 1.249904 0
M  V30 7 C -1.022979 -2.003717 0.165054 0
M  V30 8 C -0.610210 -0.749619 -0.221206 0
M  V30 9 C 0.318549 0.195314 0.364283 0
M  V30 10 N 0.559910 1.388749 -0.217486 0
M  V30 11 C 1.438873 2.124028 0.460056 0
M  V30 12 C 1.988377 3.375288 0.270661 0
M  V30 13 C 1.599922 4.163263 -0.890334 0
M  V30 14 C 2.573206 4.822146 -1.644768 0
M  V30 15 C 2.162106 5.552892 -2.729930 0
M  V30 16 C 0.854907 5.686384 -3.133510 0
M  V30 17 C -0.104552 5.039365 -2.393269 0
M  V30 18 F -1.432388 5.101615 -2.701168 0
M  V30 19 C 0.285784 4.292671 -1.289400 0
M  V30 20 N 2.878207 3.842091 1.171500 0
M  V30 21 C 3.228880 3.105085 2.239688 0
M  V30 22 C 2.713239 1.842469 2.485913 0
M  V30 23 C 1.805690 1.378002 1.558128 0
M  V30 24 N 1.104465 0.252176 1.435151 0
M  V30 25 N -1.313220 -0.567261 -1.359931 0
M  V30 26 N -2.073527 -1.605382 -1.634116 0
M  V30 27 C -1.933048 -2.557375 -0.697042 0
M  V30 28 C -2.494150 -3.788921 -0.538723 0
M  V30 29 N -2.117258 -4.498598 0.545959 0
M  V30 30 C 0.038888 -4.467347 3.580733 0
M  V30 31 N 0.046850 -5.525567 4.412151 0
M  V30 32 H -2.037808 -8.039839 4.728538 0
M  V30 33 H -0.409957 -8.512503 4.154448 0
M  V30 34 H -0.657336 -7.643336 5.771316 0
M  V30 35 H -2.074287 -6.638912 2.265769 0
M  V30 36 H 0.012427 -2.436998 1.969779 0
M  V30 37 H 3.609689 4.722626 -1.333608 0
M  V30 38 H 2.927563 6.056887 -3.303522 0
M  V30 39 H 0.565139 6.278058 -4.004915 0
M  V30 40 H -0.490532 3.791905 -0.722146 0
M  V30 41 H 3.944551 3.503692 2.946285 0
M  V30 42 H 2.960885 1.213621 3.324128 0
M  V30 43 H 1.184496 -0.505874 2.135629 0
M  V30 44 H -2.670609 -1.590221 -2.492957 0
M  V30 45 H -3.205015 -4.133130 -1.280506 0
M  V30 46 H 0.564081 -3.531511 3.600488 0
M  V30 END ATOM
M  V30 BEGIN BOND
M  V30 1 1 1 2
M  V30 2 1 2 3
M  V30 3 2 3 4
M  V30 4 1 4 5
M  V30 5 2 5 6
M  V30 6 1 6 7
M  V30 7 1 7 8
M  V30 8 1 8 9
M  V30 9 2 9 10
M  V30 10 1 10 11
M  V30 11 2 11 12
M  V30 12 1 12 13
M  V30 13 2 13 14
M  V30 14 1 14 15
M  V30 15 2 15 16
M  V30 16 1 16 17
M  V30 17 1 17 18
M  V30 18 2 17 19
M  V30 19 1 12 20
M  V30 20 2 20 21
M  V30 21 1 21 22
M  V30 22 2 22 23
M  V30 23 1 23 24
M  V30 24 2 8 25
M  V30 25 1 25 26
M  V30 26 1 26 27
M  V30 27 1 27 28
M  V30 28 2 28 29
M  V30 29 1 4 30
M  V30 30 2 30 31
M  V30 31 1 31 2
M  V30 32 1 29 5
M  V30 33 2 27 7
M  V30 34 1 24 9
M  V30 35 1 23 11
M  V30 36 1 19 13
M  V30 37 1 1 32
M  V30 38 1 1 33
M  V30 39 1 1 34
M  V30 40 1 3 35
M  V30 41 1 6 36
M  V30 42 1 14 37
M  V30 43 1 15 38
M  V30 44 1 16 39
M  V30 45 1 19 40
M  V30 46 1 21 41
M  V30 47 1 22 42
M  V30 48 1 24 43
M  V30 49 1 26 44
M  V30 50 1 28 45
M  V30 51 1 30 46
M  V30 END BOND
M  V30 END CTAB
M  END
>  <Dataset>  (258) 
ChEMBL_Kinases

>  <Ligand_Instance>  (258) 
nan

>  <PDB_ID>  (258) 
nan

>  <Standardized_SMILES>  (258) 
Cn1cc(-c2cc3c(-c4nc5c(-c6cccc(F)c6)nccc5[nH]4)n[nH]c3cn2)cn1

>  <Name>  (258) 
nan

>  <Pocket>  (258) 
nan

>  <ATP_Site>  (258) 
nan

>  <Peripheral>  (258) 
nan

>  <Num_H_Atoms_ProtBoundConf>  (258) 
nan

>  <Num_Resolved_Atoms>  (258) 
nan

>  <Num_Not_Resolved_Atoms>  (258) 
nan

$$$$
CHEMBL4762436
     RDKit          3D

  0  0  0  0  0  0  0  0  0  0999 V3000
M  V30 BEGIN CTAB
M  V30 COUNTS 61 67 0 0 0
M  V30 BEGIN ATOM
M  V30 1 F 0.590796 -3.194583 1.553079 0
M  V30 2 C 1.781771 -2.568152 1.458520 0
M  V30 3 C 2.950797 -3.267888 1.604395 0
M  V30 4 C 4.102895 -2.535539 1.526946 0
M  V30 5 C 4.156779 -1.181761 1.318885 0
M  V30 6 C 2.941208 -0.468327 1.168905 0
M  V30 7 C 3.131843 0.967075 1.020699 0
M  V30 8 C 4.289364 1.476500 0.483526 0
M  V30 9 N 4.540839 2.805071 0.448085 0
M  V30 10 C 3.653261 3.712020 0.946007 0
M  V30 11 C 2.470468 3.294757 1.497449 0
M  V30 12 N 1.308194 3.722588 2.086439 0
M  V30 13 C 0.449780 2.714377 2.427342 0
M  V30 14 C -0.641637 3.417179 3.096775 0
M  V30 15 N -1.567269 4.023736 3.666322 0
M  V30 16 N -2.745706 3.829244 3.912569 0
M  V30 17 C -2.930996 2.624817 3.366462 0
M  V30 18 C -4.152916 2.003925 3.353981 0
M  V30 19 N -4.157778 0.838156 2.682659 0
M  V30 20 C -3.051382 0.351843 2.088596 0
M  V30 21 C -3.132183 -0.829796 1.279948 0
M  V30 22 C -4.395708 -1.352191 1.246262 0
M  V30 23 N -4.732262 -2.426339 0.469627 0
M  V30 24 C -3.746518 -2.987774 -0.303713 0
M  V30 25 C -2.444184 -2.499449 -0.310434 0
M  V30 26 O -1.702273 -3.207231 -1.141846 0
M  V30 27 C -0.450450 -3.350988 -1.625438 0
M  V30 28 C -0.239694 -2.675978 -2.996681 0
M  V30 29 C -1.060489 -3.338249 -4.062427 0
M  V30 30 N -0.455047 -4.657983 -4.259643 0
M  V30 31 C -0.572770 -5.430127 -3.057758 0
M  V30 32 C 0.003950 -4.779495 -1.826037 0
M  V30 33 C -2.195403 -1.427584 0.497106 0
M  V30 34 C -1.909552 1.111966 2.211146 0
M  V30 35 C -1.652476 2.374894 2.868012 0
M  V30 36 N 1.051293 1.580468 2.058724 0
M  V30 37 C 2.265759 1.919801 1.505099 0
M  V30 38 C 1.794491 -1.212219 1.246142 0
M  V30 39 H 2.880053 -4.331074 1.762199 0
M  V30 40 H 5.003501 -3.148480 1.650491 0
M  V30 41 H 5.158795 -0.797075 1.296263 0
M  V30 42 H 5.037394 0.797124 0.061394 0
M  V30 43 H 3.787927 4.786532 0.951179 0
M  V30 44 H 1.370955 4.802236 2.131570 0
M  V30 45 H -3.266379 4.585027 4.442327 0
M  V30 46 H -5.035557 2.356446 3.808163 0
M  V30 47 H -5.283226 -1.015853 1.805150 0
M  V30 48 H -4.127525 -3.844900 -0.891565 0
M  V30 49 H 0.296209 -2.835521 -0.991099 0
M  V30 50 H -0.316173 -1.587556 -2.948891 0
M  V30 51 H 0.836397 -2.898442 -3.230832 0
M  V30 52 H -2.109599 -3.497795 -3.767931 0
M  V30 53 H -1.027933 -2.705395 -4.948090 0
M  V30 54 H 0.534351 -4.497423 -4.553104 0
M  V30 55 H -1.658365 -5.680932 -2.933844 0
M  V30 56 H -0.036951 -6.391693 -3.205185 0
M  V30 57 H 1.093704 -4.800066 -1.877067 0
M  V30 58 H -0.378297 -5.368345 -0.956735 0
M  V30 59 H -1.210150 -1.032816 0.511951 0
M  V30 60 H -1.074857 0.621456 1.700079 0
M  V30 61 H 0.951119 -0.552835 1.113279 0
M  V30 END ATOM
M  V30 BEGIN BOND
M  V30 1 1 1 2
M  V30 2 2 2 3
M  V30 3 1 3 4
M  V30 4 2 4 5
M  V30 5 1 5 6
M  V30 6 1 6 7
M  V30 7 2 7 8
M  V30 8 1 8 9
M  V30 9 2 9 10
M  V30 10 1 10 11
M  V30 11 1 11 12
M  V30 12 1 12 13
M  V30 13 1 13 14
M  V30 14 2 14 15
M  V30 15 1 15 16
M  V30 16 1 16 17
M  V30 17 2 17 18
M  V30 18 1 18 19
M  V30 19 2 19 20
M  V30 20 1 20 21
M  V30 21 2 21 22
M  V30 22 1 22 23
M  V30 23 2 23 24
M  V30 24 1 24 25
M  V30 25 1 25 26
M  V30 26 1 26 27
M  V30 27 1 27 28
M  V30 28 1 28 29
M  V30 29 1 29 30
M  V30 30 1 30 31
M  V30 31 1 31 32
M  V30 32 2 25 33
M  V30 33 1 20 34
M  V30 34 2 34 35
M  V30 35 2 13 36
M  V30 36 1 36 37
M  V30 37 2 6 38
M  V30 38 1 38 2
M  V30 39 1 37 7
M  V30 40 2 37 11
M  V30 41 1 35 14
M  V30 42 1 35 17
M  V30 43 1 33 21
M  V30 44 1 32 27
M  V30 45 1 3 39
M  V30 46 1 4 40
M  V30 47 1 5 41
M  V30 48 1 8 42
M  V30 49 1 10 43
M  V30 50 1 12 44
M  V30 51 1 16 45
M  V30 52 1 18 46
M  V30 53 1 22 47
M  V30 54 1 24 48
M  V30 55 1 27 49
M  V30 56 1 28 50
M  V30 57 1 28 51
M  V30 58 1 29 52
M  V30 59 1 29 53
M  V30 60 1 30 54
M  V30 61 1 31 55
M  V30 62 1 31 56
M  V30 63 1 32 57
M  V30 64 1 32 58
M  V30 65 1 33 59
M  V30 66 1 34 60
M  V30 67 1 38 61
M  V30 END BOND
M  V30 END CTAB
M  END
>  <Dataset>  (259) 
ChEMBL_Kinases

>  <Ligand_Instance>  (259) 
nan

>  <PDB_ID>  (259) 
nan

>  <Standardized_SMILES>  (259) 
Fc1cccc(-c2cncc3[nH]c(-c4n[nH]c5cnc(-c6cncc(OC7CCNCC7)c6)cc45)nc23)c1

>  <Name>  (259) 
nan

>  <Pocket>  (259) 
nan

>  <ATP_Site>  (259) 
nan

>  <Peripheral>  (259) 
nan

>  <Num_H_Atoms_ProtBoundConf>  (259) 
nan

>  <Num_Resolved_Atoms>  (259) 
nan

>  <Num_Not_Resolved_Atoms>  (259) 
nan

$$$$
CHEMBL4762392
     RDKit          3D

  0  0  0  0  0  0  0  0  0  0999 V3000
M  V30 BEGIN CTAB
M  V30 COUNTS 68 73 0 0 0
M  V30 BEGIN ATOM
M  V30 1 C 3.380588 -0.580869 6.190553 0
M  V30 2 N 4.400764 -1.264597 5.473648 0
M  V30 3 C 5.700324 -0.647883 5.502859 0
M  V30 4 C 5.626474 0.662688 4.767573 0
M  V30 5 C 4.903776 0.632406 3.473180 0
M  V30 6 C 4.280727 -0.658222 3.073976 0
M  V30 7 C 4.104641 -1.667679 4.143523 0
M  V30 8 C 3.883992 1.751244 3.348873 0
M  V30 9 N 4.231357 1.773316 1.917837 0
M  V30 10 C 3.652371 1.983250 0.613675 0
M  V30 11 C 2.307605 1.895907 0.401425 0
M  V30 12 C 1.832304 2.128884 -0.873617 0
M  V30 13 C 0.424217 2.040388 -1.249731 0
M  V30 14 O -0.012358 2.370985 -2.390257 0
M  V30 15 N -0.496712 1.552567 -0.280537 0
M  V30 16 C -1.900390 1.376556 -0.426487 0
M  V30 17 C -2.124605 0.079050 -0.912748 0
M  V30 18 C -3.424627 -0.366619 -1.149030 0
M  V30 19 C -3.675147 -1.644752 -1.631363 0
M  V30 20 C -4.951713 -2.156582 -1.892968 0
M  V30 21 C -5.045848 -3.517740 -2.388861 0
M  V30 22 C -4.330516 -4.509344 -1.702117 0
M  V30 23 N -4.545290 -5.708890 -2.308696 0
M  V30 24 N -5.360795 -5.487316 -3.334652 0
M  V30 25 C -5.812322 -6.540851 -4.220244 0
M  V30 26 C -5.672795 -4.186978 -3.401901 0
M  V30 27 C -6.531439 -3.494483 -4.362770 0
M  V30 28 O -7.782226 -3.183303 -3.844596 0
M  V30 29 C -5.950619 -1.249633 -1.617665 0
M  V30 30 C -5.777084 0.027411 -1.140757 0
M  V30 31 C -4.493757 0.444870 -0.914012 0
M  V30 32 C -4.229315 1.701406 -0.440294 0
M  V30 33 N -2.976430 2.155335 -0.203349 0
M  V30 34 C 2.707311 2.447850 -1.922071 0
M  V30 35 C 4.055363 2.521161 -1.643101 0
M  V30 36 N 4.502463 2.290608 -0.396158 0
M  V30 37 C 5.589514 1.431490 2.369728 0
M  V30 38 H 2.638736 -1.316088 6.590798 0
M  V30 39 H 3.871610 -0.100244 7.078465 0
M  V30 40 H 2.900624 0.195579 5.591372 0
M  V30 41 H 5.962439 -0.411208 6.549928 0
M  V30 42 H 6.432475 -1.369109 5.091164 0
M  V30 43 H 5.259206 1.444364 5.441837 0
M  V30 44 H 6.696224 0.933040 4.536451 0
M  V30 45 H 4.943990 -1.114179 2.279813 0
M  V30 46 H 3.311452 -0.501219 2.511703 0
M  V30 47 H 4.702179 -2.590818 3.948803 0
M  V30 48 H 3.032244 -2.008664 4.137082 0
M  V30 49 H 2.858023 1.377433 3.512323 0
M  V30 50 H 4.149348 2.689022 3.869329 0
M  V30 51 H 1.626675 1.654563 1.180950 0
M  V30 52 H -0.283086 1.248582 0.692582 0
M  V30 53 H -1.362391 -0.684043 -1.146482 0
M  V30 54 H -2.823535 -2.311131 -1.826700 0
M  V30 55 H -3.672739 -4.516749 -0.827384 0
M  V30 56 H -4.937850 -6.893377 -4.819444 0
M  V30 57 H -6.618839 -6.238710 -4.891197 0
M  V30 58 H -6.164810 -7.412510 -3.625396 0
M  V30 59 H -6.644807 -4.168536 -5.259331 0
M  V30 60 H -6.044149 -2.555337 -4.703292 0
M  V30 61 H -8.123232 -3.854664 -3.204835 0
M  V30 62 H -6.946723 -1.603923 -1.800055 0
M  V30 63 H -6.631794 0.652652 -0.963321 0
M  V30 64 H -5.024498 2.398651 -0.229219 0
M  V30 65 H 2.428659 2.646920 -2.948839 0
M  V30 66 H 4.854032 2.756733 -2.344403 0
M  V30 67 H 6.146512 2.276482 2.815657 0
M  V30 68 H 6.156998 0.793991 1.667542 0
M  V30 END ATOM
M  V30 BEGIN BOND
M  V30 1 1 1 2
M  V30 2 1 2 3
M  V30 3 1 3 4
M  V30 4 1 4 5
M  V30 5 1 5 6
M  V30 6 1 6 7
M  V30 7 1 5 8
M  V30 8 1 8 9
M  V30 9 1 9 10
M  V30 10 2 10 11
M  V30 11 1 11 12
M  V30 12 1 12 13
M  V30 13 2 13 14
M  V30 14 1 13 15
M  V30 15 1 15 16
M  V30 16 2 16 17
M  V30 17 1 17 18
M  V30 18 2 18 19
M  V30 19 1 19 20
M  V30 20 1 20 21
M  V30 21 1 21 22
M  V30 22 2 22 23
M  V30 23 1 23 24
M  V30 24 1 24 25
M  V30 25 1 24 26
M  V30 26 1 26 27
M  V30 27 1 27 28
M  V30 28 2 20 29
M  V30 29 1 29 30
M  V30 30 2 30 31
M  V30 31 1 31 32
M  V30 32 2 32 33
M  V30 33 2 12 34
M  V30 34 1 34 35
M  V30 35 2 35 36
M  V30 36 1 9 37
M  V30 37 1 7 2
M  V30 38 1 36 10
M  V30 39 1 37 5
M  V30 40 1 33 16
M  V30 41 1 31 18
M  V30 42 2 26 21
M  V30 43 1 1 38
M  V30 44 1 1 39
M  V30 45 1 1 40
M  V30 46 1 3 41
M  V30 47 1 3 42
M  V30 48 1 4 43
M  V30 49 1 4 44
M  V30 50 1 6 45
M  V30 51 1 6 46
M  V30 52 1 7 47
M  V30 53 1 7 48
M  V30 54 1 8 49
M  V30 55 1 8 50
M  V30 56 1 11 51
M  V30 57 1 15 52
M  V30 58 1 17 53
M  V30 59 1 19 54
M  V30 60 1 22 55
M  V30 61 1 25 56
M  V30 62 1 25 57
M  V30 63 1 25 58
M  V30 64 1 27 59
M  V30 65 1 27 60
M  V30 66 1 28 61
M  V30 67 1 29 62
M  V30 68 1 30 63
M  V30 69 1 32 64
M  V30 70 1 34 65
M  V30 71 1 35 66
M  V30 72 1 37 67
M  V30 73 1 37 68
M  V30 END BOND
M  V30 END CTAB
M  END
>  <Dataset>  (260) 
ChEMBL_Kinases

>  <Ligand_Instance>  (260) 
nan

>  <PDB_ID>  (260) 
nan

>  <Standardized_SMILES>  (260) 
CN1CCC2(CC1)CN(c1cc(C(=O)Nc3cc4cc(-c5cnn(C)c5CO)ccc4cn3)ccn1)C2

>  <Name>  (260) 
nan

>  <Pocket>  (260) 
nan

>  <ATP_Site>  (260) 
nan

>  <Peripheral>  (260) 
nan

>  <Num_H_Atoms_ProtBoundConf>  (260) 
nan

>  <Num_Resolved_Atoms>  (260) 
nan

>  <Num_Not_Resolved_Atoms>  (260) 
nan

$$$$
CHEMBL4762357
     RDKit          3D

  0  0  0  0  0  0  0  0  0  0999 V3000
M  V30 BEGIN CTAB
M  V30 COUNTS 62 67 0 0 0
M  V30 BEGIN ATOM
M  V30 1 C 5.972563 0.626333 3.967400 0
M  V30 2 C 4.894530 -0.305216 3.483003 0
M  V30 3 C 4.636107 -1.307068 4.632137 0
M  V30 4 N 3.671338 0.352394 3.150386 0
M  V30 5 C 3.452218 1.443294 2.288292 0
M  V30 6 C 4.439444 2.154427 1.640108 0
M  V30 7 N 4.158559 3.149965 0.796763 0
M  V30 8 C 2.934491 3.574259 0.480206 0
M  V30 9 C 1.907851 2.885192 1.108455 0
M  V30 10 C 0.588711 3.304841 0.687076 0
M  V30 11 C 0.222925 4.557485 0.287707 0
M  V30 12 N -1.054993 4.735483 -0.145926 0
M  V30 13 C -1.891978 3.675867 -0.159418 0
M  V30 14 N -3.126136 3.716753 -0.627393 0
M  V30 15 N -3.447776 2.546095 -0.472619 0
M  V30 16 C -2.972106 1.504939 -0.052173 0
M  V30 17 C -2.382089 0.220776 0.469242 0
M  V30 18 C -2.937204 -0.771273 -0.383784 0
M  V30 19 C -2.380644 -2.005950 -0.063352 0
M  V30 20 C -2.425402 -3.337016 -0.413484 0
M  V30 21 N -3.253898 -3.709036 -1.497951 0
M  V30 22 C -3.921399 -4.985814 -1.210499 0
M  V30 23 C -4.607571 -5.559164 -2.403250 0
M  V30 24 C -3.607036 -5.593602 -3.550731 0
M  V30 25 C -3.003554 -4.234426 -3.788475 0
M  V30 26 C -3.602321 -3.205164 -2.807984 0
M  V30 27 N -1.674950 -4.294954 0.209513 0
M  V30 28 C -0.862649 -3.905639 1.204926 0
M  V30 29 C -0.724341 -2.616037 1.650238 0
M  V30 30 C -1.518050 -1.721010 0.965476 0
M  V30 31 N -1.546040 -0.425006 1.247655 0
M  V30 32 C -1.788619 2.338099 0.185437 0
M  V30 33 C -0.396360 2.328431 0.612140 0
M  V30 34 C 2.178251 1.857339 1.981616 0
M  V30 35 H 6.393758 0.229965 4.928859 0
M  V30 36 H 6.803729 0.649881 3.222065 0
M  V30 37 H 5.615553 1.642122 4.164329 0
M  V30 38 H 5.311075 -0.913500 2.648504 0
M  V30 39 H 4.070762 -0.740831 5.420335 0
M  V30 40 H 5.603483 -1.620034 5.059661 0
M  V30 41 H 4.004702 -2.140626 4.291638 0
M  V30 42 H 2.806567 -0.032968 3.616928 0
M  V30 43 H 5.474697 1.917894 1.789595 0
M  V30 44 H 2.836323 4.381933 -0.201946 0
M  V30 45 H 0.900472 5.350910 0.315162 0
M  V30 46 H -3.830489 4.371678 -1.039779 0
M  V30 47 H -3.658403 -0.889272 -1.207407 0
M  V30 48 H -4.652021 -4.755806 -0.419523 0
M  V30 49 H -3.155258 -5.707543 -0.857440 0
M  V30 50 H -5.505980 -4.973248 -2.645476 0
M  V30 51 H -4.889091 -6.610349 -2.131198 0
M  V30 52 H -2.790564 -6.265342 -3.221913 0
M  V30 53 H -4.060683 -6.016186 -4.482911 0
M  V30 54 H -3.209523 -3.844971 -4.787776 0
M  V30 55 H -1.900509 -4.248069 -3.647848 0
M  V30 56 H -4.694855 -3.157546 -2.972647 0
M  V30 57 H -3.127990 -2.253259 -3.071728 0
M  V30 58 H -0.309079 -4.721895 1.648378 0
M  V30 59 H -0.052462 -2.335746 2.466910 0
M  V30 60 H -1.102338 0.150318 1.968338 0
M  V30 61 H 0.054920 1.364642 0.904903 0
M  V30 62 H 1.330147 1.350012 2.454956 0
M  V30 END ATOM
M  V30 BEGIN BOND
M  V30 1 1 1 2
M  V30 2 1 2 3
M  V30 3 1 2 4
M  V30 4 1 4 5
M  V30 5 2 5 6
M  V30 6 1 6 7
M  V30 7 2 7 8
M  V30 8 1 8 9
M  V30 9 1 9 10
M  V30 10 2 10 11
M  V30 11 1 11 12
M  V30 12 2 12 13
M  V30 13 1 13 14
M  V30 14 1 14 15
M  V30 15 2 15 16
M  V30 16 1 16 17
M  V30 17 2 17 18
M  V30 18 1 18 19
M  V30 19 2 19 20
M  V30 20 1 20 21
M  V30 21 1 21 22
M  V30 22 1 22 23
M  V30 23 1 23 24
M  V30 24 1 24 25
M  V30 25 1 25 26
M  V30 26 1 20 27
M  V30 27 2 27 28
M  V30 28 1 28 29
M  V30 29 2 29 30
M  V30 30 1 30 31
M  V30 31 1 16 32
M  V30 32 2 32 33
M  V30 33 2 9 34
M  V30 34 1 34 5
M  V30 35 1 33 10
M  V30 36 1 32 13
M  V30 37 1 31 17
M  V30 38 1 30 19
M  V30 39 1 26 21
M  V30 40 1 1 35
M  V30 41 1 1 36
M  V30 42 1 1 37
M  V30 43 1 2 38
M  V30 44 1 3 39
M  V30 45 1 3 40
M  V30 46 1 3 41
M  V30 47 1 4 42
M  V30 48 1 6 43
M  V30 49 1 8 44
M  V30 50 1 11 45
M  V30 51 1 14 46
M  V30 52 1 18 47
M  V30 53 1 22 48
M  V30 54 1 22 49
M  V30 55 1 23 50
M  V30 56 1 23 51
M  V30 57 1 24 52
M  V30 58 1 24 53
M  V30 59 1 25 54
M  V30 60 1 25 55
M  V30 61 1 26 56
M  V30 62 1 26 57
M  V30 63 1 28 58
M  V30 64 1 29 59
M  V30 65 1 31 60
M  V30 66 1 33 61
M  V30 67 1 34 62
M  V30 END BOND
M  V30 END CTAB
M  END
>  <Dataset>  (261) 
ChEMBL_Kinases

>  <Ligand_Instance>  (261) 
nan

>  <PDB_ID>  (261) 
nan

>  <Standardized_SMILES>  (261) 
CC(C)Nc1cncc(-c2cnc3[nH]nc(-c4cc5c(N6CCCCC6)nccc5[nH]4)c3c2)c1

>  <Name>  (261) 
nan

>  <Pocket>  (261) 
nan

>  <ATP_Site>  (261) 
nan

>  <Peripheral>  (261) 
nan

>  <Num_H_Atoms_ProtBoundConf>  (261) 
nan

>  <Num_Resolved_Atoms>  (261) 
nan

>  <Num_Not_Resolved_Atoms>  (261) 
nan

$$$$
CHEMBL4762259
     RDKit          3D

  0  0  0  0  0  0  0  0  0  0999 V3000
M  V30 BEGIN CTAB
M  V30 COUNTS 62 67 0 0 0
M  V30 BEGIN ATOM
M  V30 1 C 4.578471 -1.166075 6.051669 0
M  V30 2 C 3.404246 -0.842275 6.915554 0
M  V30 3 C 3.602088 -1.275404 8.352238 0
M  V30 4 C 3.157563 0.642356 6.919739 0
M  V30 5 C 2.877643 1.140745 5.534421 0
M  V30 6 O 2.936841 0.161998 4.714002 0
M  V30 7 N 2.581798 2.443582 5.062333 0
M  V30 8 C 2.409762 2.292820 3.633761 0
M  V30 9 C 3.433908 2.413685 2.716316 0
M  V30 10 N 3.106702 2.241019 1.412384 0
M  V30 11 C 1.843689 1.965888 1.040882 0
M  V30 12 C 0.803916 1.840475 1.940995 0
M  V30 13 C -0.577906 1.538369 1.560899 0
M  V30 14 C -1.619426 2.034801 2.319359 0
M  V30 15 N -2.892365 1.748448 1.962855 0
M  V30 16 C -3.142998 0.988461 0.881289 0
M  V30 17 N -4.258467 0.541745 0.288557 0
M  V30 18 N -3.974389 -0.175183 -0.753714 0
M  V30 19 C -2.630439 -0.278487 -0.960943 0
M  V30 20 C -1.992698 -0.999638 -2.023852 0
M  V30 21 C -2.727755 -1.696936 -2.989633 0
M  V30 22 C -1.934887 -2.307786 -3.899792 0
M  V30 23 C -2.145963 -3.091033 -5.014996 0
M  V30 24 C -3.502696 -3.431132 -5.425955 0
M  V30 25 C -3.683813 -3.232224 -6.794763 0
M  V30 26 C -4.893195 -3.494152 -7.404338 0
M  V30 27 N -5.932492 -3.955737 -6.659055 0
M  V30 28 C -5.763782 -4.147471 -5.350478 0
M  V30 29 C -4.586537 -3.902280 -4.704980 0
M  V30 30 C -1.066562 -3.558110 -5.736368 0
M  V30 31 C 0.223615 -3.252314 -5.356796 0
M  V30 32 C 0.450538 -2.469084 -4.241741 0
M  V30 33 C -0.641706 -2.013316 -3.536359 0
M  V30 34 N -0.748412 -1.249492 -2.437577 0
M  V30 35 C -2.142983 0.466623 0.087983 0
M  V30 36 C -0.856973 0.761931 0.456674 0
M  V30 37 C 1.113857 2.013268 3.285175 0
M  V30 38 H 5.120424 -0.267144 5.706856 0
M  V30 39 H 5.342485 -1.816186 6.549390 0
M  V30 40 H 4.307695 -1.731806 5.121175 0
M  V30 41 H 2.482318 -1.360809 6.560852 0
M  V30 42 H 4.646021 -1.168075 8.703735 0
M  V30 43 H 2.912045 -0.728084 9.029469 0
M  V30 44 H 3.306826 -2.364604 8.398570 0
M  V30 45 H 2.378555 0.943159 7.647507 0
M  V30 46 H 4.103318 1.147343 7.256507 0
M  V30 47 H 2.570767 3.127862 5.850714 0
M  V30 48 H 4.416873 2.636865 3.114554 0
M  V30 49 H 1.617234 1.833586 -0.017607 0
M  V30 50 H -1.467187 2.650200 3.196814 0
M  V30 51 H -5.248287 0.711397 0.575523 0
M  V30 52 H -3.811287 -1.781963 -3.066561 0
M  V30 53 H -2.944316 -2.872180 -7.494416 0
M  V30 54 H -5.111567 -3.366301 -8.455808 0
M  V30 55 H -6.536013 -4.515080 -4.664613 0
M  V30 56 H -4.341549 -4.025298 -3.659709 0
M  V30 57 H -1.245631 -4.179356 -6.621149 0
M  V30 58 H 1.092516 -3.612860 -5.915505 0
M  V30 59 H 1.450148 -2.214742 -3.921713 0
M  V30 60 H 0.091440 -0.884109 -1.951887 0
M  V30 61 H -0.034863 0.404192 -0.092785 0
M  V30 62 H 0.292661 1.913670 3.988049 0
M  V30 END ATOM
M  V30 BEGIN BOND
M  V30 1 1 1 2
M  V30 2 1 2 3
M  V30 3 1 2 4
M  V30 4 1 4 5
M  V30 5 2 5 6
M  V30 6 1 5 7
M  V30 7 1 7 8
M  V30 8 2 8 9
M  V30 9 1 9 10
M  V30 10 2 10 11
M  V30 11 1 11 12
M  V30 12 1 12 13
M  V30 13 2 13 14
M  V30 14 1 14 15
M  V30 15 2 15 16
M  V30 16 1 16 17
M  V30 17 1 17 18
M  V30 18 2 18 19
M  V30 19 1 19 20
M  V30 20 2 20 21
M  V30 21 1 21 22
M  V30 22 2 22 23
M  V30 23 1 23 24
M  V30 24 2 24 25
M  V30 25 1 25 26
M  V30 26 2 26 27
M  V30 27 1 27 28
M  V30 28 2 28 29
M  V30 29 1 23 30
M  V30 30 2 30 31
M  V30 31 1 31 32
M  V30 32 2 32 33
M  V30 33 1 33 34
M  V30 34 1 19 35
M  V30 35 2 35 36
M  V30 36 2 12 37
M  V30 37 1 37 8
M  V30 38 1 36 13
M  V30 39 1 35 16
M  V30 40 1 34 20
M  V30 41 1 33 22
M  V30 42 1 29 24
M  V30 43 1 1 38
M  V30 44 1 1 39
M  V30 45 1 1 40
M  V30 46 1 2 41
M  V30 47 1 3 42
M  V30 48 1 3 43
M  V30 49 1 3 44
M  V30 50 1 4 45
M  V30 51 1 4 46
M  V30 52 1 7 47
M  V30 53 1 9 48
M  V30 54 1 11 49
M  V30 55 1 14 50
M  V30 56 1 17 51
M  V30 57 1 21 52
M  V30 58 1 25 53
M  V30 59 1 26 54
M  V30 60 1 28 55
M  V30 61 1 29 56
M  V30 62 1 30 57
M  V30 63 1 31 58
M  V30 64 1 32 59
M  V30 65 1 34 60
M  V30 66 1 36 61
M  V30 67 1 37 62
M  V30 END BOND
M  V30 END CTAB
M  END
>  <Dataset>  (262) 
ChEMBL_Kinases

>  <Ligand_Instance>  (262) 
nan

>  <PDB_ID>  (262) 
nan

>  <Standardized_SMILES>  (262) 
CC(C)CC(=O)Nc1cncc(-c2cnc3[nH]nc(-c4cc5c(-c6ccncc6)cccc5[nH]4)c3c2)c1

>  <Name>  (262) 
nan

>  <Pocket>  (262) 
nan

>  <ATP_Site>  (262) 
nan

>  <Peripheral>  (262) 
nan

>  <Num_H_Atoms_ProtBoundConf>  (262) 
nan

>  <Num_Resolved_Atoms>  (262) 
nan

>  <Num_Not_Resolved_Atoms>  (262) 
nan

$$$$
CHEMBL4762186
     RDKit          3D

  0  0  0  0  0  0  0  0  0  0999 V3000
M  V30 BEGIN CTAB
M  V30 COUNTS 43 46 0 0 0
M  V30 BEGIN ATOM
M  V30 1 C -0.857117 -6.380259 -0.239793 0
M  V30 2 C 0.123701 -5.289763 0.064988 0
M  V30 3 C 0.483826 -4.459905 -1.121676 0
M  V30 4 N 1.084950 -5.160255 -2.215388 0
M  V30 5 C -0.566857 -3.473888 -1.579460 0
M  V30 6 N 0.031172 -2.418215 -0.762780 0
M  V30 7 C -0.491629 -1.172193 -0.316102 0
M  V30 8 C -1.775388 -0.812492 -0.664390 0
M  V30 9 N -2.261437 0.364931 -0.238949 0
M  V30 10 C -1.491822 1.166295 0.514195 0
M  V30 11 C -0.203480 0.842490 0.883627 0
M  V30 12 C 0.672367 1.677964 1.699772 0
M  V30 13 C 1.932339 1.186092 1.967286 0
M  V30 14 C 2.836558 1.917622 2.739742 0
M  V30 15 C 2.404250 3.146220 3.215213 0
M  V30 16 N 3.065146 4.044464 3.974392 0
M  V30 17 N 2.276447 5.083231 4.198123 0
M  V30 18 C 1.095689 4.898068 3.601609 0
M  V30 19 C -0.154053 5.703918 3.506456 0
M  V30 20 C 1.150180 3.664261 2.964192 0
M  V30 21 C 0.280008 2.903052 2.190194 0
M  V30 22 N 0.249523 -0.343530 0.439660 0
M  V30 23 C 1.234258 -3.205363 -0.677367 0
M  V30 24 H -0.329132 -7.309840 -0.565428 0
M  V30 25 H -1.381218 -6.670997 0.716994 0
M  V30 26 H -1.646961 -6.104569 -0.959581 0
M  V30 27 H -0.256949 -4.608827 0.868072 0
M  V30 28 H 1.062116 -5.764827 0.438354 0
M  V30 29 H 0.364551 -5.683758 -2.767867 0
M  V30 30 H 1.618017 -4.516673 -2.844591 0
M  V30 31 H -1.613828 -3.724846 -1.343614 0
M  V30 32 H -0.421754 -3.181463 -2.644089 0
M  V30 33 H -2.398707 -1.455014 -1.270885 0
M  V30 34 H -1.890234 2.111855 0.852451 0
M  V30 35 H 2.288586 0.235186 1.608404 0
M  V30 36 H 3.832136 1.531739 2.952605 0
M  V30 37 H 4.041968 4.018022 4.371737 0
M  V30 38 H -0.009148 6.579037 4.149939 0
M  V30 39 H -1.048307 5.111999 3.802746 0
M  V30 40 H -0.339984 6.076729 2.469023 0
M  V30 41 H -0.688026 3.294261 1.991784 0
M  V30 42 H 1.644362 -3.262310 0.347780 0
M  V30 43 H 2.028847 -2.937832 -1.428591 0
M  V30 END ATOM
M  V30 BEGIN BOND
M  V30 1 1 1 2
M  V30 2 1 2 3
M  V30 3 1 3 4
M  V30 4 1 3 5
M  V30 5 1 5 6
M  V30 6 1 6 7
M  V30 7 2 7 8
M  V30 8 1 8 9
M  V30 9 2 9 10
M  V30 10 1 10 11
M  V30 11 1 11 12
M  V30 12 2 12 13
M  V30 13 1 13 14
M  V30 14 2 14 15
M  V30 15 1 15 16
M  V30 16 1 16 17
M  V30 17 2 17 18
M  V30 18 1 18 19
M  V30 19 1 18 20
M  V30 20 2 20 21
M  V30 21 2 11 22
M  V30 22 1 6 23
M  V30 23 1 23 3
M  V30 24 1 22 7
M  V30 25 1 21 12
M  V30 26 1 20 15
M  V30 27 1 1 24
M  V30 28 1 1 25
M  V30 29 1 1 26
M  V30 30 1 2 27
M  V30 31 1 2 28
M  V30 32 1 4 29
M  V30 33 1 4 30
M  V30 34 1 5 31
M  V30 35 1 5 32
M  V30 36 1 8 33
M  V30 37 1 10 34
M  V30 38 1 13 35
M  V30 39 1 14 36
M  V30 40 1 16 37
M  V30 41 1 19 38
M  V30 42 1 19 39
M  V30 43 1 19 40
M  V30 44 1 21 41
M  V30 45 1 23 42
M  V30 46 1 23 43
M  V30 END BOND
M  V30 END CTAB
M  END
>  <Dataset>  (263) 
ChEMBL_Kinases

>  <Ligand_Instance>  (263) 
nan

>  <PDB_ID>  (263) 
nan

>  <Standardized_SMILES>  (263) 
CCC1(N)CN(c2cncc(-c3ccc4[nH]nc(C)c4c3)n2)C1

>  <Name>  (263) 
nan

>  <Pocket>  (263) 
nan

>  <ATP_Site>  (263) 
nan

>  <Peripheral>  (263) 
nan

>  <Num_H_Atoms_ProtBoundConf>  (263) 
nan

>  <Num_Resolved_Atoms>  (263) 
nan

>  <Num_Not_Resolved_Atoms>  (263) 
nan

$$$$
CHEMBL4762157
     RDKit          3D

  0  0  0  0  0  0  0  0  0  0999 V3000
M  V30 BEGIN CTAB
M  V30 COUNTS 71 76 0 0 0
M  V30 BEGIN ATOM
M  V30 1 C 2.568224 -2.268739 3.392226 0
M  V30 2 C 3.610992 -2.851150 4.321573 0
M  V30 3 C 3.142461 -4.234282 4.710369 0
M  V30 4 N 4.934651 -2.852186 3.779013 0
M  V30 5 C 5.420376 -1.577351 3.451627 0
M  V30 6 C 6.502275 -1.657562 2.401582 0
M  V30 7 C 5.856217 -2.276361 1.173598 0
M  V30 8 O 4.718114 -1.508624 0.840544 0
M  V30 9 C 4.525838 -0.857777 -0.366623 0
M  V30 10 C 3.303765 -0.205040 -0.397605 0
M  V30 11 C 2.931622 0.505221 -1.530860 0
M  V30 12 C 1.701705 1.250621 -1.765543 0
M  V30 13 O 1.364232 1.846448 -2.820776 0
M  V30 14 N 0.758197 1.332067 -0.706184 0
M  V30 15 C -0.519060 1.904502 -0.454821 0
M  V30 16 C -1.663034 1.132176 -0.703528 0
M  V30 17 C -2.926267 1.668687 -0.468458 0
M  V30 18 C -4.052602 0.901032 -0.710689 0
M  V30 19 C -5.302922 1.431448 -0.473572 0
M  V30 20 C -6.586573 0.770815 -0.662124 0
M  V30 21 C -7.705878 0.711786 0.147330 0
M  V30 22 N -8.678937 -0.020215 -0.422801 0
M  V30 23 N -8.212996 -0.439037 -1.589959 0
M  V30 24 C -6.954597 0.024057 -1.757436 0
M  V30 25 C -6.371379 -0.402693 -3.035538 0
M  V30 26 C -6.870873 -1.834955 -3.270763 0
M  V30 27 N -8.288359 -1.796435 -3.575665 0
M  V30 28 C -9.015516 -1.260265 -2.468448 0
M  V30 29 C -5.385873 2.733224 0.005418 0
M  V30 30 C -4.255082 3.518312 0.253691 0
M  V30 31 C -3.021199 2.954198 0.005239 0
M  V30 32 C -1.876448 3.714436 0.248811 0
M  V30 33 N -0.654641 3.155189 0.007223 0
M  V30 34 C 3.797788 0.545133 -2.611157 0
M  V30 35 C 5.009591 -0.137703 -2.502314 0
M  V30 36 N 5.382684 -0.829459 -1.411375 0
M  V30 37 C 5.400254 -3.690550 1.485149 0
M  V30 38 C 5.266124 -3.932772 2.951804 0
M  V30 39 H 1.575287 -2.691435 3.717508 0
M  V30 40 H 2.692360 -2.597414 2.354915 0
M  V30 41 H 2.465002 -1.169299 3.486135 0
M  V30 42 H 3.603401 -2.231525 5.247581 0
M  V30 43 H 2.422892 -4.157198 5.570009 0
M  V30 44 H 2.544878 -4.724721 3.897999 0
M  V30 45 H 3.995521 -4.867028 5.012153 0
M  V30 46 H 4.579778 -0.999632 2.979710 0
M  V30 47 H 5.769469 -1.009583 4.351405 0
M  V30 48 H 6.925311 -0.664944 2.154562 0
M  V30 49 H 7.353409 -2.295785 2.727351 0
M  V30 50 H 6.554079 -2.266423 0.335929 0
M  V30 51 H 2.570283 -0.183733 0.395142 0
M  V30 52 H 0.863170 0.903232 0.257052 0
M  V30 53 H -1.598164 0.106395 -1.081896 0
M  V30 54 H -4.018426 -0.097368 -1.077182 0
M  V30 55 H -7.769116 1.204411 1.121110 0
M  V30 56 H -6.693551 0.246392 -3.900087 0
M  V30 57 H -5.283526 -0.442930 -3.082665 0
M  V30 58 H -6.266822 -2.264550 -4.083088 0
M  V30 59 H -6.667767 -2.388325 -2.327764 0
M  V30 60 H -8.392906 -1.143426 -4.390079 0
M  V30 61 H -9.882721 -0.671982 -2.888853 0
M  V30 62 H -9.490044 -2.116226 -1.925883 0
M  V30 63 H -6.325251 3.227137 0.217932 0
M  V30 64 H -4.343695 4.535083 0.627087 0
M  V30 65 H -1.995670 4.738857 0.626869 0
M  V30 66 H 3.622098 1.066795 -3.549646 0
M  V30 67 H 5.726273 -0.142657 -3.315066 0
M  V30 68 H 6.196619 -4.360029 1.079198 0
M  V30 69 H 4.481759 -3.915672 0.889533 0
M  V30 70 H 6.151210 -4.533369 3.324326 0
M  V30 71 H 4.419262 -4.688676 3.049343 0
M  V30 END ATOM
M  V30 BEGIN BOND
M  V30 1 1 1 2
M  V30 2 1 2 3
M  V30 3 1 2 4
M  V30 4 1 4 5
M  V30 5 1 5 6
M  V30 6 1 6 7
M  V30 7 1 7 8
M  V30 8 1 8 9
M  V30 9 2 9 10
M  V30 10 1 10 11
M  V30 11 1 11 12
M  V30 12 2 12 13
M  V30 13 1 12 14
M  V30 14 1 14 15
M  V30 15 2 15 16
M  V30 16 1 16 17
M  V30 17 2 17 18
M  V30 18 1 18 19
M  V30 19 1 19 20
M  V30 20 1 20 21
M  V30 21 2 21 22
M  V30 22 1 22 23
M  V30 23 1 23 24
M  V30 24 1 24 25
M  V30 25 1 25 26
M  V30 26 1 26 27
M  V30 27 1 27 28
M  V30 28 2 19 29
M  V30 29 1 29 30
M  V30 30 2 30 31
M  V30 31 1 31 32
M  V30 32 2 32 33
M  V30 33 2 11 34
M  V30 34 1 34 35
M  V30 35 2 35 36
M  V30 36 1 7 37
M  V30 37 1 37 38
M  V30 38 1 38 4
M  V30 39 1 36 9
M  V30 40 1 33 15
M  V30 41 1 31 17
M  V30 42 2 24 20
M  V30 43 1 28 23
M  V30 44 1 1 39
M  V30 45 1 1 40
M  V30 46 1 1 41
M  V30 47 1 2 42
M  V30 48 1 3 43
M  V30 49 1 3 44
M  V30 50 1 3 45
M  V30 51 1 5 46
M  V30 52 1 5 47
M  V30 53 1 6 48
M  V30 54 1 6 49
M  V30 55 1 7 50
M  V30 56 1 10 51
M  V30 57 1 14 52
M  V30 58 1 16 53
M  V30 59 1 18 54
M  V30 60 1 21 55
M  V30 61 1 25 56
M  V30 62 1 25 57
M  V30 63 1 26 58
M  V30 64 1 26 59
M  V30 65 1 27 60
M  V30 66 1 28 61
M  V30 67 1 28 62
M  V30 68 1 29 63
M  V30 69 1 30 64
M  V30 70 1 32 65
M  V30 71 1 34 66
M  V30 72 1 35 67
M  V30 73 1 37 68
M  V30 74 1 37 69
M  V30 75 1 38 70
M  V30 76 1 38 71
M  V30 END BOND
M  V30 END CTAB
M  END
>  <Dataset>  (264) 
ChEMBL_Kinases

>  <Ligand_Instance>  (264) 
nan

>  <PDB_ID>  (264) 
nan

>  <Standardized_SMILES>  (264) 
CC(C)N1CCC(Oc2cc(C(=O)Nc3cc4cc(-c5cnn6c5CCNC6)ccc4cn3)ccn2)CC1

>  <Name>  (264) 
nan

>  <Pocket>  (264) 
nan

>  <ATP_Site>  (264) 
nan

>  <Peripheral>  (264) 
nan

>  <Num_H_Atoms_ProtBoundConf>  (264) 
nan

>  <Num_Resolved_Atoms>  (264) 
nan

>  <Num_Not_Resolved_Atoms>  (264) 
nan

$$$$
CHEMBL4762155
     RDKit          3D

  0  0  0  0  0  0  0  0  0  0999 V3000
M  V30 BEGIN CTAB
M  V30 COUNTS 65 69 0 0 0
M  V30 BEGIN ATOM
M  V30 1 C 9.112615 2.021843 -1.140169 0
M  V30 2 C 8.877363 1.899254 0.357583 0
M  V30 3 C 10.151299 2.035459 1.136109 0
M  V30 4 O 7.812494 2.675743 0.828930 0
M  V30 5 C 6.482281 2.339684 0.820338 0
M  V30 6 C 6.009762 1.167225 0.213869 0
M  V30 7 C 4.680462 0.834420 0.206917 0
M  V30 8 C 3.775780 1.708854 0.835355 0
M  V30 9 N 2.407322 1.337132 0.752441 0
M  V30 10 C 1.828671 2.251925 -0.123282 0
M  V30 11 O 2.771792 3.064222 -0.482741 0
M  V30 12 C 0.517088 2.489348 -0.680369 0
M  V30 13 N 0.264592 3.728948 -1.207435 0
M  V30 14 N -0.971959 3.747161 -1.669957 0
M  V30 15 C -1.615866 2.584939 -1.499609 0
M  V30 16 C -2.855674 2.075322 -1.802336 0
M  V30 17 C -3.089755 0.772035 -1.462386 0
M  V30 18 C -2.124814 -0.035146 -0.831405 0
M  V30 19 C -2.520286 -1.412424 -0.598745 0
M  V30 20 C -1.444114 -2.298832 -0.645256 0
M  V30 21 N -1.724923 -3.634684 -0.497821 0
M  V30 22 C -3.011064 -3.992037 -0.318396 0
M  V30 23 C -4.087189 -3.097250 -0.271823 0
M  V30 24 C -5.333951 -3.872910 -0.104977 0
M  V30 25 N -5.664734 -4.259001 1.225950 0
M  V30 26 C -6.907194 -5.050517 1.132019 0
M  V30 27 C -7.276095 -5.581611 2.500111 0
M  V30 28 C -6.394004 -4.949374 3.569272 0
M  V30 29 C -6.490802 -3.439796 3.375715 0
M  V30 30 C -6.026176 -3.052615 1.987121 0
M  V30 31 C -3.823897 -1.782627 -0.414958 0
M  V30 32 C -0.879332 0.503704 -0.531010 0
M  V30 33 C -0.661695 1.830980 -0.885383 0
M  V30 34 C 4.265956 2.848151 1.424483 0
M  V30 35 N 5.595208 3.165633 1.420552 0
M  V30 36 H 8.634084 2.925482 -1.544432 0
M  V30 37 H 10.189648 2.066331 -1.399333 0
M  V30 38 H 8.713618 1.149007 -1.719026 0
M  V30 39 H 8.527178 0.821219 0.464948 0
M  V30 40 H 11.040299 2.123905 0.474187 0
M  V30 41 H 10.350679 1.205651 1.857011 0
M  V30 42 H 10.069911 2.974800 1.757178 0
M  V30 43 H 6.732896 0.498371 -0.282401 0
M  V30 44 H 4.464165 -0.091231 -0.285992 0
M  V30 45 H 1.737657 0.643682 1.118461 0
M  V30 46 H -1.374664 4.599677 -2.127250 0
M  V30 47 H -3.568654 2.741556 -2.293196 0
M  V30 48 H -4.072381 0.375630 -1.700974 0
M  V30 49 H -0.419186 -1.981626 -0.790586 0
M  V30 50 H -3.042633 -5.089599 -0.217686 0
M  V30 51 H -6.179125 -3.186916 -0.439847 0
M  V30 52 H -5.395929 -4.717022 -0.838204 0
M  V30 53 H -7.655411 -4.325761 0.719515 0
M  V30 54 H -6.806341 -5.857969 0.406958 0
M  V30 55 H -7.200448 -6.667697 2.599562 0
M  V30 56 H -8.316554 -5.275583 2.710865 0
M  V30 57 H -6.784513 -5.221765 4.545005 0
M  V30 58 H -5.338169 -5.213809 3.376743 0
M  V30 59 H -5.819469 -2.969507 4.117458 0
M  V30 60 H -7.511004 -3.084587 3.543052 0
M  V30 61 H -5.165795 -2.372881 2.011170 0
M  V30 62 H -6.854237 -2.578825 1.425646 0
M  V30 63 H -4.669755 -1.120684 -0.370426 0
M  V30 64 H -0.149542 -0.109120 -0.048012 0
M  V30 65 H 3.533450 3.508309 1.915687 0
M  V30 END ATOM
M  V30 BEGIN BOND
M  V30 1 1 1 2
M  V30 2 1 2 3
M  V30 3 1 2 4
M  V30 4 1 4 5
M  V30 5 2 5 6
M  V30 6 1 6 7
M  V30 7 2 7 8
M  V30 8 1 8 9
M  V30 9 1 9 10
M  V30 10 2 10 11
M  V30 11 1 10 12
M  V30 12 2 12 13
M  V30 13 1 13 14
M  V30 14 1 14 15
M  V30 15 2 15 16
M  V30 16 1 16 17
M  V30 17 2 17 18
M  V30 18 1 18 19
M  V30 19 2 19 20
M  V30 20 1 20 21
M  V30 21 2 21 22
M  V30 22 1 22 23
M  V30 23 1 23 24
M  V30 24 1 24 25
M  V30 25 1 25 26
M  V30 26 1 26 27
M  V30 27 1 27 28
M  V30 28 1 28 29
M  V30 29 1 29 30
M  V30 30 2 23 31
M  V30 31 1 18 32
M  V30 32 2 32 33
M  V30 33 1 8 34
M  V30 34 2 34 35
M  V30 35 1 35 5
M  V30 36 1 33 12
M  V30 37 1 33 15
M  V30 38 1 31 19
M  V30 39 1 30 25
M  V30 40 1 1 36
M  V30 41 1 1 37
M  V30 42 1 1 38
M  V30 43 1 2 39
M  V30 44 1 3 40
M  V30 45 1 3 41
M  V30 46 1 3 42
M  V30 47 1 6 43
M  V30 48 1 7 44
M  V30 49 1 9 45
M  V30 50 1 14 46
M  V30 51 1 16 47
M  V30 52 1 17 48
M  V30 53 1 20 49
M  V30 54 1 22 50
M  V30 55 1 24 51
M  V30 56 1 24 52
M  V30 57 1 26 53
M  V30 58 1 26 54
M  V30 59 1 27 55
M  V30 60 1 27 56
M  V30 61 1 28 57
M  V30 62 1 28 58
M  V30 63 1 29 59
M  V30 64 1 29 60
M  V30 65 1 30 61
M  V30 66 1 30 62
M  V30 67 1 31 63
M  V30 68 1 32 64
M  V30 69 1 34 65
M  V30 END BOND
M  V30 END CTAB
M  END
>  <Dataset>  (265) 
ChEMBL_Kinases

>  <Ligand_Instance>  (265) 
nan

>  <PDB_ID>  (265) 
nan

>  <Standardized_SMILES>  (265) 
CC(C)Oc1ccc(NC(=O)c2n[nH]c3ccc(-c4cncc(CN5CCCCC5)c4)cc23)cn1

>  <Name>  (265) 
nan

>  <Pocket>  (265) 
nan

>  <ATP_Site>  (265) 
nan

>  <Peripheral>  (265) 
nan

>  <Num_H_Atoms_ProtBoundConf>  (265) 
nan

>  <Num_Resolved_Atoms>  (265) 
nan

>  <Num_Not_Resolved_Atoms>  (265) 
nan

$$$$
CHEMBL4762097
     RDKit          3D

  0  0  0  0  0  0  0  0  0  0999 V3000
M  V30 BEGIN CTAB
M  V30 COUNTS 53 56 0 0 0
M  V30 BEGIN ATOM
M  V30 1 C 2.657965 -4.608426 0.538324 0
M  V30 2 C 3.196838 -3.758539 1.682547 0
M  V30 3 C 2.391849 -4.119068 2.909095 0
M  V30 4 N 3.062754 -2.363335 1.417312 0
M  V30 5 C 4.107093 -1.428014 1.304344 0
M  V30 6 O 5.179380 -2.080210 1.486267 0
M  V30 7 C 4.204955 -0.015752 1.049070 0
M  V30 8 N 5.445044 0.510253 1.027639 0
M  V30 9 N 5.360291 1.820260 0.779887 0
M  V30 10 C 4.091366 2.227666 0.626707 0
M  V30 11 C 3.419918 3.401486 0.368041 0
M  V30 12 C 2.042923 3.351491 0.292741 0
M  V30 13 C 1.328044 2.189715 0.464030 0
M  V30 14 C -0.129387 2.132029 0.385154 0
M  V30 15 C -0.920076 3.230277 0.133254 0
M  V30 16 N -2.275345 3.161294 0.062843 0
M  V30 17 C -2.880945 1.951849 0.249653 0
M  V30 18 C -2.122535 0.829534 0.503936 0
M  V30 19 N -2.731741 -0.439918 0.699315 0
M  V30 20 C -4.140634 -0.668904 0.644590 0
M  V30 21 C -4.695176 -0.332100 -0.715766 0
M  V30 22 C -5.143776 -1.596573 -1.450288 0
M  V30 23 N -4.053549 -2.536870 -1.388662 0
M  V30 24 C -3.845472 -3.003632 -0.030507 0
M  V30 25 C -4.478299 -2.087506 0.982882 0
M  V30 26 N -0.788095 0.972322 0.559442 0
M  V30 27 C 2.017196 1.026651 0.721797 0
M  V30 28 C 3.386953 1.057671 0.800186 0
M  V30 29 H 2.288860 -5.557648 0.962072 0
M  V30 30 H 3.485485 -4.878965 -0.169247 0
M  V30 31 H 1.835015 -4.137372 -0.007040 0
M  V30 32 H 4.252474 -4.048523 1.795248 0
M  V30 33 H 2.916251 -4.885716 3.508656 0
M  V30 34 H 1.403379 -4.566384 2.662269 0
M  V30 35 H 2.170181 -3.235618 3.535039 0
M  V30 36 H 2.122254 -1.945675 1.286687 0
M  V30 37 H 6.192144 2.446450 0.714940 0
M  V30 38 H 4.007818 4.297838 0.238107 0
M  V30 39 H 1.559258 4.275988 0.091813 0
M  V30 40 H -0.456279 4.191407 -0.016247 0
M  V30 41 H -3.958817 1.928023 0.189735 0
M  V30 42 H -2.096934 -1.265169 0.897720 0
M  V30 43 H -4.591382 0.004971 1.432568 0
M  V30 44 H -5.567852 0.338634 -0.589297 0
M  V30 45 H -3.945679 0.130523 -1.389669 0
M  V30 46 H -6.078804 -2.007181 -1.020565 0
M  V30 47 H -5.281292 -1.300806 -2.512413 0
M  V30 48 H -3.202090 -2.073589 -1.749065 0
M  V30 49 H -4.234286 -4.050194 0.096429 0
M  V30 50 H -2.761477 -3.060964 0.196131 0
M  V30 51 H -4.040991 -2.325904 1.975127 0
M  V30 52 H -5.575340 -2.247571 0.982540 0
M  V30 53 H 1.456629 0.135808 0.852230 0
M  V30 END ATOM
M  V30 BEGIN BOND
M  V30 1 1 1 2
M  V30 2 1 2 3
M  V30 3 1 2 4
M  V30 4 1 4 5
M  V30 5 2 5 6
M  V30 6 1 5 7
M  V30 7 2 7 8
M  V30 8 1 8 9
M  V30 9 1 9 10
M  V30 10 2 10 11
M  V30 11 1 11 12
M  V30 12 2 12 13
M  V30 13 1 13 14
M  V30 14 2 14 15
M  V30 15 1 15 16
M  V30 16 2 16 17
M  V30 17 1 17 18
M  V30 18 1 18 19
M  V30 19 1 19 20
M  V30 20 1 20 21
M  V30 21 1 21 22
M  V30 22 1 22 23
M  V30 23 1 23 24
M  V30 24 1 24 25
M  V30 25 2 18 26
M  V30 26 1 13 27
M  V30 27 2 27 28
M  V30 28 1 28 7
M  V30 29 1 28 10
M  V30 30 1 26 14
M  V30 31 1 25 20
M  V30 32 1 1 29
M  V30 33 1 1 30
M  V30 34 1 1 31
M  V30 35 1 2 32
M  V30 36 1 3 33
M  V30 37 1 3 34
M  V30 38 1 3 35
M  V30 39 1 4 36
M  V30 40 1 9 37
M  V30 41 1 11 38
M  V30 42 1 12 39
M  V30 43 1 15 40
M  V30 44 1 17 41
M  V30 45 1 19 42
M  V30 46 1 20 43
M  V30 47 1 21 44
M  V30 48 1 21 45
M  V30 49 1 22 46
M  V30 50 1 22 47
M  V30 51 1 23 48
M  V30 52 1 24 49
M  V30 53 1 24 50
M  V30 54 1 25 51
M  V30 55 1 25 52
M  V30 56 1 27 53
M  V30 END BOND
M  V30 END CTAB
M  END
>  <Dataset>  (266) 
ChEMBL_Kinases

>  <Ligand_Instance>  (266) 
nan

>  <PDB_ID>  (266) 
nan

>  <Standardized_SMILES>  (266) 
CC(C)NC(=O)c1n[nH]c2ccc(-c3cncc(NC4CCNCC4)n3)cc12

>  <Name>  (266) 
nan

>  <Pocket>  (266) 
nan

>  <ATP_Site>  (266) 
nan

>  <Peripheral>  (266) 
nan

>  <Num_H_Atoms_ProtBoundConf>  (266) 
nan

>  <Num_Resolved_Atoms>  (266) 
nan

>  <Num_Not_Resolved_Atoms>  (266) 
nan

$$$$
CHEMBL3109951
     RDKit          3D

  0  0  0  0  0  0  0  0  0  0999 V3000
M  V30 BEGIN CTAB
M  V30 COUNTS 44 48 0 0 0
M  V30 BEGIN ATOM
M  V30 1 C 0.210301 -7.176664 0.736973 0
M  V30 2 C 0.877405 -7.594272 -0.416039 0
M  V30 3 N 0.580344 -6.799457 -1.448147 0
M  V30 4 N -0.270743 -5.840538 -1.058683 0
M  V30 5 C -0.908006 -4.741341 -1.736176 0
M  V30 6 C -0.106205 -3.504991 -1.684354 0
M  V30 7 C -0.314624 -2.661169 -0.593115 0
M  V30 8 C 0.428609 -1.490758 -0.528028 0
M  V30 9 C 1.359912 -1.117070 -1.481104 0
M  V30 10 N 2.078167 0.105649 -1.333006 0
M  V30 11 C 1.801275 0.875453 -0.165575 0
M  V30 12 C 0.828707 1.843081 -0.018335 0
M  V30 13 C 0.755351 2.457505 1.218676 0
M  V30 14 N -0.108723 3.421978 1.587529 0
M  V30 15 C 0.191975 3.708556 2.868139 0
M  V30 16 C -0.468162 4.694937 3.717155 0
M  V30 17 C -0.195695 5.030281 5.044991 0
M  V30 18 N -1.072758 6.006979 5.420290 0
M  V30 19 N -1.875712 6.292715 4.388286 0
M  V30 20 C -1.534433 5.522973 3.360835 0
M  V30 21 C 1.249966 2.925104 3.316817 0
M  V30 22 C 1.611453 2.116418 2.245177 0
M  V30 23 C 2.576626 1.140056 2.062615 0
M  V30 24 N 2.634679 0.552322 0.853707 0
M  V30 25 C 1.547623 -1.969734 -2.551533 0
M  V30 26 C 0.825429 -3.148597 -2.653994 0
M  V30 27 C -0.491869 -6.072298 0.262980 0
M  V30 28 H 0.204759 -7.559770 1.728391 0
M  V30 29 H 1.552204 -8.464105 -0.446421 0
M  V30 30 H -1.932602 -4.637355 -1.363273 0
M  V30 31 H -1.015707 -5.021987 -2.818090 0
M  V30 32 H -1.027860 -2.876134 0.203306 0
M  V30 33 H 0.244212 -0.846075 0.341241 0
M  V30 34 H 2.766284 0.361127 -2.095579 0
M  V30 35 H 0.219924 2.028005 -0.879751 0
M  V30 36 H -0.869660 3.885335 1.038128 0
M  V30 37 H 0.591372 4.554765 5.614925 0
M  V30 38 H -2.641646 7.012259 4.414469 0
M  V30 39 H -1.992990 5.520394 2.395968 0
M  V30 40 H 1.729121 2.910390 4.290381 0
M  V30 41 H 3.258116 0.867827 2.877902 0
M  V30 42 H 2.267606 -1.676494 -3.285020 0
M  V30 43 H 0.972912 -3.814384 -3.490945 0
M  V30 44 H -1.139049 -5.491737 0.935872 0
M  V30 END ATOM
M  V30 BEGIN BOND
M  V30 1 1 1 2
M  V30 2 2 2 3
M  V30 3 1 3 4
M  V30 4 1 4 5
M  V30 5 1 5 6
M  V30 6 2 6 7
M  V30 7 1 7 8
M  V30 8 2 8 9
M  V30 9 1 9 10
M  V30 10 1 10 11
M  V30 11 2 11 12
M  V30 12 1 12 13
M  V30 13 1 13 14
M  V30 14 1 14 15
M  V30 15 1 15 16
M  V30 16 1 16 17
M  V30 17 2 17 18
M  V30 18 1 18 19
M  V30 19 1 19 20
M  V30 20 2 15 21
M  V30 21 1 21 22
M  V30 22 1 22 23
M  V30 23 2 23 24
M  V30 24 1 9 25
M  V30 25 2 25 26
M  V30 26 1 4 27
M  V30 27 2 27 1
M  V30 28 1 26 6
M  V30 29 1 24 11
M  V30 30 2 22 13
M  V30 31 2 20 16
M  V30 32 1 1 28
M  V30 33 1 2 29
M  V30 34 1 5 30
M  V30 35 1 5 31
M  V30 36 1 7 32
M  V30 37 1 8 33
M  V30 38 1 10 34
M  V30 39 1 12 35
M  V30 40 1 14 36
M  V30 41 1 17 37
M  V30 42 1 19 38
M  V30 43 1 20 39
M  V30 44 1 21 40
M  V30 45 1 23 41
M  V30 46 1 25 42
M  V30 47 1 26 43
M  V30 48 1 27 44
M  V30 END BOND
M  V30 END CTAB
M  END
>  <Dataset>  (267) 
ChEMBL_Kinases

>  <Ligand_Instance>  (267) 
nan

>  <PDB_ID>  (267) 
nan

>  <Standardized_SMILES>  (267) 
c1cnn(Cc2ccc(Nc3cc4[nH]c(-c5cn[nH]c5)cc4cn3)cc2)c1

>  <Name>  (267) 
nan

>  <Pocket>  (267) 
nan

>  <ATP_Site>  (267) 
nan

>  <Peripheral>  (267) 
nan

>  <Num_H_Atoms_ProtBoundConf>  (267) 
nan

>  <Num_Resolved_Atoms>  (267) 
nan

>  <Num_Not_Resolved_Atoms>  (267) 
nan

$$$$
CHEMBL4764830
     RDKit          3D

  0  0  0  0  0  0  0  0  0  0999 V3000
M  V30 BEGIN CTAB
M  V30 COUNTS 56 62 0 0 0
M  V30 BEGIN ATOM
M  V30 1 O 4.126192 -2.430214 -0.461593 0
M  V30 2 C 3.774669 -3.065225 0.586151 0
M  V30 3 N 3.773301 -2.238355 1.717795 0
M  V30 4 C 4.164658 -0.878242 1.439306 0
M  V30 5 C 5.450711 -0.416342 1.487479 0
M  V30 6 N 5.675787 0.884638 1.202613 0
M  V30 7 C 4.642270 1.706697 0.877064 0
M  V30 8 C 3.351191 1.295173 0.816160 0
M  V30 9 C 2.217781 2.141045 0.472493 0
M  V30 10 C 2.355963 3.476615 0.168479 0
M  V30 11 C 1.318089 4.331010 -0.165440 0
M  V30 12 C 0.039671 3.773599 -0.189690 0
M  V30 13 N -1.168115 4.334408 -0.474068 0
M  V30 14 N -2.074956 3.357767 -0.351518 0
M  V30 15 C -1.469705 2.212293 -0.001166 0
M  V30 16 C -2.071115 0.906288 0.238371 0
M  V30 17 N -3.398094 0.624136 0.141871 0
M  V30 18 C -3.603878 -0.668873 0.427263 0
M  V30 19 C -4.793502 -1.362039 0.446588 0
M  V30 20 C -6.108327 -0.789105 0.146065 0
M  V30 21 C -6.425075 0.453398 -0.191704 0
M  V30 22 C -7.715593 0.808358 -0.436789 0
M  V30 23 C -8.672179 -0.230555 -0.305610 0
M  V30 24 Cl -10.457004 -0.085364 -0.561516 0
M  V30 25 S -7.615145 -1.713766 0.181659 0
M  V30 26 N -4.712477 -2.662340 0.769247 0
M  V30 27 C -3.540743 -3.252836 1.056339 0
M  V30 28 C -2.338007 -2.580207 1.043583 0
M  V30 29 C -2.387878 -1.249254 0.717404 0
M  V30 30 N -1.494902 -0.259008 0.589907 0
M  V30 31 C -0.110534 2.428117 0.115221 0
M  V30 32 N 0.948255 1.659552 0.431094 0
M  V30 33 C 3.099766 -0.034690 1.104707 0
M  V30 34 C 3.394311 -4.490073 0.716769 0
M  V30 35 C 3.437448 -5.270770 -0.579244 0
M  V30 36 C 2.113686 -5.895147 -0.189784 0
M  V30 37 C 1.914936 -4.754682 0.786142 0
M  V30 38 H 3.502864 -2.622498 2.665781 0
M  V30 39 H 6.156126 -1.166955 1.755237 0
M  V30 40 H 4.878171 2.720527 0.662565 0
M  V30 41 H 3.323917 3.947960 0.174993 0
M  V30 42 H 1.477414 5.374669 -0.396637 0
M  V30 43 H -1.286835 5.339126 -0.730339 0
M  V30 44 H -5.647800 1.220624 -0.279799 0
M  V30 45 H -8.103645 1.776830 -0.717535 0
M  V30 46 H -3.532807 -4.303094 1.309832 0
M  V30 47 H -1.370522 -3.009718 1.266669 0
M  V30 48 H -0.465414 -0.333078 0.735223 0
M  V30 49 H 2.077901 -0.395851 1.065031 0
M  V30 50 H 3.902433 -4.996235 1.555167 0
M  V30 51 H 3.296476 -4.579034 -1.437029 0
M  V30 52 H 4.284595 -5.968743 -0.703055 0
M  V30 53 H 1.372544 -5.944786 -1.014893 0
M  V30 54 H 2.284317 -6.881613 0.323845 0
M  V30 55 H 1.265816 -3.989325 0.319403 0
M  V30 56 H 1.566500 -5.060675 1.796737 0
M  V30 END ATOM
M  V30 BEGIN BOND
M  V30 1 2 1 2
M  V30 2 1 2 3
M  V30 3 1 3 4
M  V30 4 2 4 5
M  V30 5 1 5 6
M  V30 6 2 6 7
M  V30 7 1 7 8
M  V30 8 1 8 9
M  V30 9 2 9 10
M  V30 10 1 10 11
M  V30 11 2 11 12
M  V30 12 1 12 13
M  V30 13 1 13 14
M  V30 14 2 14 15
M  V30 15 1 15 16
M  V30 16 2 16 17
M  V30 17 1 17 18
M  V30 18 2 18 19
M  V30 19 1 19 20
M  V30 20 2 20 21
M  V30 21 1 21 22
M  V30 22 2 22 23
M  V30 23 1 23 24
M  V30 24 1 23 25
M  V30 25 1 19 26
M  V30 26 2 26 27
M  V30 27 1 27 28
M  V30 28 2 28 29
M  V30 29 1 29 30
M  V30 30 1 15 31
M  V30 31 2 31 32
M  V30 32 2 8 33
M  V30 33 1 2 34
M  V30 34 1 34 35
M  V30 35 1 35 36
M  V30 36 1 36 37
M  V30 37 1 33 4
M  V30 38 1 37 34
M  V30 39 1 32 9
M  V30 40 1 31 12
M  V30 41 1 30 16
M  V30 42 1 29 18
M  V30 43 1 25 20
M  V30 44 1 3 38
M  V30 45 1 5 39
M  V30 46 1 7 40
M  V30 47 1 10 41
M  V30 48 1 11 42
M  V30 49 1 13 43
M  V30 50 1 21 44
M  V30 51 1 22 45
M  V30 52 1 27 46
M  V30 53 1 28 47
M  V30 54 1 30 48
M  V30 55 1 33 49
M  V30 56 1 34 50
M  V30 57 1 35 51
M  V30 58 1 35 52
M  V30 59 1 36 53
M  V30 60 1 36 54
M  V30 61 1 37 55
M  V30 62 1 37 56
M  V30 END BOND
M  V30 END CTAB
M  END
>  <Dataset>  (268) 
ChEMBL_Kinases

>  <Ligand_Instance>  (268) 
nan

>  <PDB_ID>  (268) 
nan

>  <Standardized_SMILES>  (268) 
O=C(Nc1cncc(-c2ccc3[nH]nc(-c4nc5c(-c6ccc(Cl)s6)nccc5[nH]4)c3n2)c1)C1CCC1

>  <Name>  (268) 
nan

>  <Pocket>  (268) 
nan

>  <ATP_Site>  (268) 
nan

>  <Peripheral>  (268) 
nan

>  <Num_H_Atoms_ProtBoundConf>  (268) 
nan

>  <Num_Resolved_Atoms>  (268) 
nan

>  <Num_Not_Resolved_Atoms>  (268) 
nan

$$$$
CHEMBL4764806
     RDKit          3D

  0  0  0  0  0  0  0  0  0  0999 V3000
M  V30 BEGIN CTAB
M  V30 COUNTS 55 60 0 0 0
M  V30 BEGIN ATOM
M  V30 1 C 4.626326 -0.042077 7.456536 0
M  V30 2 C 5.970561 0.171613 7.218772 0
M  V30 3 N 6.405320 0.296315 5.951895 0
M  V30 4 C 5.578348 0.220823 4.900716 0
M  V30 5 C 5.719780 0.305889 3.535648 0
M  V30 6 C 4.511866 0.154500 2.880102 0
M  V30 7 C 4.421673 0.208479 1.437364 0
M  V30 8 N 5.456170 0.404237 0.579793 0
M  V30 9 N 5.061637 0.403064 -0.667952 0
M  V30 10 C 3.738593 0.207714 -0.748488 0
M  V30 11 C 2.845625 0.122314 -1.795693 0
M  V30 12 C 1.504537 -0.090821 -1.552159 0
M  V30 13 C 1.100996 -0.212938 -0.237824 0
M  V30 14 C -0.314520 -0.440441 0.058216 0
M  V30 15 C -0.765604 0.090923 1.258254 0
M  V30 16 N -2.054056 -0.070763 1.610580 0
M  V30 17 C -2.918539 -0.738736 0.822446 0
M  V30 18 C -2.524609 -1.287504 -0.380765 0
M  V30 19 C -3.383113 -2.039366 -1.325801 0
M  V30 20 N -4.039891 -1.297143 -2.313371 0
M  V30 21 C -4.947978 -0.285444 -1.955883 0
M  V30 22 C -6.264514 -0.597635 -2.682793 0
M  V30 23 C -6.485915 -2.101166 -2.570481 0
M  V30 24 C -5.448661 -2.893605 -3.335943 0
M  V30 25 C -4.257884 -1.952395 -3.569366 0
M  V30 26 C -1.185630 -1.123830 -0.754908 0
M  V30 27 C 2.021524 -0.122111 0.783273 0
M  V30 28 C 3.363612 0.089863 0.567834 0
M  V30 29 N 3.676691 -0.019291 3.905809 0
M  V30 30 C 4.236439 0.009060 5.105147 0
M  V30 31 C 3.759365 -0.122963 6.391657 0
M  V30 32 H 4.285624 -0.140965 8.475148 0
M  V30 33 H 6.651385 0.234714 8.065254 0
M  V30 34 H 6.706962 0.474111 3.119374 0
M  V30 35 H 5.743083 0.542012 -1.448853 0
M  V30 36 H 3.204013 0.223470 -2.808485 0
M  V30 37 H 0.772194 -0.164486 -2.333141 0
M  V30 38 H -0.201497 0.651014 1.999690 0
M  V30 39 H -3.955750 -0.874648 1.097125 0
M  V30 40 H -2.817155 -2.854397 -1.814834 0
M  V30 41 H -4.170727 -2.561333 -0.707685 0
M  V30 42 H -5.200794 -0.346445 -0.880728 0
M  V30 43 H -4.635747 0.749611 -2.189356 0
M  V30 44 H -6.210727 -0.294249 -3.747681 0
M  V30 45 H -7.120145 -0.133732 -2.162373 0
M  V30 46 H -6.471763 -2.342055 -1.473260 0
M  V30 47 H -7.500139 -2.342248 -2.960334 0
M  V30 48 H -5.069953 -3.690554 -2.631336 0
M  V30 49 H -5.831569 -3.330427 -4.260457 0
M  V30 50 H -4.519037 -1.282819 -4.387614 0
M  V30 51 H -3.349026 -2.508194 -3.847402 0
M  V30 52 H -0.776530 -1.513969 -1.675380 0
M  V30 53 H 1.644777 -0.225198 1.778394 0
M  V30 54 H 2.659629 -0.167507 3.796932 0
M  V30 55 H 2.699825 -0.289208 6.531634 0
M  V30 END ATOM
M  V30 BEGIN BOND
M  V30 1 2 1 2
M  V30 2 1 2 3
M  V30 3 2 3 4
M  V30 4 1 4 5
M  V30 5 2 5 6
M  V30 6 1 6 7
M  V30 7 2 7 8
M  V30 8 1 8 9
M  V30 9 1 9 10
M  V30 10 2 10 11
M  V30 11 1 11 12
M  V30 12 2 12 13
M  V30 13 1 13 14
M  V30 14 2 14 15
M  V30 15 1 15 16
M  V30 16 2 16 17
M  V30 17 1 17 18
M  V30 18 1 18 19
M  V30 19 1 19 20
M  V30 20 1 20 21
M  V30 21 1 21 22
M  V30 22 1 22 23
M  V30 23 1 23 24
M  V30 24 1 24 25
M  V30 25 2 18 26
M  V30 26 1 13 27
M  V30 27 2 27 28
M  V30 28 1 6 29
M  V30 29 1 29 30
M  V30 30 2 30 31
M  V30 31 1 31 1
M  V30 32 1 30 4
M  V30 33 1 28 7
M  V30 34 1 28 10
M  V30 35 1 26 14
M  V30 36 1 25 20
M  V30 37 1 1 32
M  V30 38 1 2 33
M  V30 39 1 5 34
M  V30 40 1 9 35
M  V30 41 1 11 36
M  V30 42 1 12 37
M  V30 43 1 15 38
M  V30 44 1 17 39
M  V30 45 1 19 40
M  V30 46 1 19 41
M  V30 47 1 21 42
M  V30 48 1 21 43
M  V30 49 1 22 44
M  V30 50 1 22 45
M  V30 51 1 23 46
M  V30 52 1 23 47
M  V30 53 1 24 48
M  V30 54 1 24 49
M  V30 55 1 25 50
M  V30 56 1 25 51
M  V30 57 1 26 52
M  V30 58 1 27 53
M  V30 59 1 29 54
M  V30 60 1 31 55
M  V30 END BOND
M  V30 END CTAB
M  END
>  <Dataset>  (269) 
ChEMBL_Kinases

>  <Ligand_Instance>  (269) 
nan

>  <PDB_ID>  (269) 
nan

>  <Standardized_SMILES>  (269) 
c1cnc2cc(-c3n[nH]c4ccc(-c5cncc(CN6CCCCC6)c5)cc34)[nH]c2c1

>  <Name>  (269) 
nan

>  <Pocket>  (269) 
nan

>  <ATP_Site>  (269) 
nan

>  <Peripheral>  (269) 
nan

>  <Num_H_Atoms_ProtBoundConf>  (269) 
nan

>  <Num_Resolved_Atoms>  (269) 
nan

>  <Num_Not_Resolved_Atoms>  (269) 
nan

$$$$
CHEMBL31574
     RDKit          3D

  0  0  0  0  0  0  0  0  0  0999 V3000
M  V30 BEGIN CTAB
M  V30 COUNTS 31 33 0 0 0
M  V30 BEGIN ATOM
M  V30 1 O -0.748535 -2.522008 3.845810 0
M  V30 2 C -0.699456 -1.710756 2.885249 0
M  V30 3 C 0.283014 -1.803874 1.927874 0
M  V30 4 O 1.194400 -2.828411 2.089266 0
M  V30 5 C 0.424211 -0.973883 0.846821 0
M  V30 6 C 1.427012 -1.010151 -0.196119 0
M  V30 7 C 1.351260 -0.053145 -1.184788 0
M  V30 8 C 2.241482 0.025756 -2.234934 0
M  V30 9 C 3.274207 -0.877906 -2.339946 0
M  V30 10 O 4.200953 -0.852770 -3.369414 0
M  V30 11 C 3.390058 -1.852352 -1.375094 0
M  V30 12 O 4.414093 -2.787771 -1.435191 0
M  V30 13 C 2.474763 -1.877401 -0.358098 0
M  V30 14 O -0.492711 -0.038869 0.791562 0
M  V30 15 C -1.444479 0.093076 1.672327 0
M  V30 16 C -2.339548 1.145364 1.462263 0
M  V30 17 C -3.379164 1.359887 2.345568 0
M  V30 18 O -4.271288 2.410528 2.134166 0
M  V30 19 C -3.515841 0.508356 3.445835 0
M  V30 20 C -2.651482 -0.540798 3.685574 0
M  V30 21 C -1.635253 -0.707291 2.773807 0
M  V30 22 H 1.984793 -2.787507 2.707634 0
M  V30 23 H 0.573799 0.717037 -1.206276 0
M  V30 24 H 2.167345 0.776169 -2.994248 0
M  V30 25 H 4.167246 -1.618198 -4.053586 0
M  V30 26 H 4.373529 -3.640500 -1.945950 0
M  V30 27 H 2.602645 -2.654237 0.372708 0
M  V30 28 H -2.258915 1.821799 0.618424 0
M  V30 29 H -4.901116 2.302329 1.341130 0
M  V30 30 H -4.325531 0.661153 4.149759 0
M  V30 31 H -2.726855 -1.207940 4.513330 0
M  V30 END ATOM
M  V30 BEGIN BOND
M  V30 1 2 1 2
M  V30 2 1 2 3
M  V30 3 1 3 4
M  V30 4 2 3 5
M  V30 5 1 5 6
M  V30 6 2 6 7
M  V30 7 1 7 8
M  V30 8 2 8 9
M  V30 9 1 9 10
M  V30 10 1 9 11
M  V30 11 1 11 12
M  V30 12 2 11 13
M  V30 13 1 5 14
M  V30 14 1 14 15
M  V30 15 2 15 16
M  V30 16 1 16 17
M  V30 17 1 17 18
M  V30 18 2 17 19
M  V30 19 1 19 20
M  V30 20 2 20 21
M  V30 21 1 21 2
M  V30 22 1 13 6
M  V30 23 1 21 15
M  V30 24 1 4 22
M  V30 25 1 7 23
M  V30 26 1 8 24
M  V30 27 1 10 25
M  V30 28 1 12 26
M  V30 29 1 13 27
M  V30 30 1 16 28
M  V30 31 1 18 29
M  V30 32 1 19 30
M  V30 33 1 20 31
M  V30 END BOND
M  V30 END CTAB
M  END
>  <Dataset>  (270) 
ChEMBL_Kinases

>  <Ligand_Instance>  (270) 
nan

>  <PDB_ID>  (270) 
nan

>  <Standardized_SMILES>  (270) 
O=c1c(O)c(-c2ccc(O)c(O)c2)oc2cc(O)ccc12

>  <Name>  (270) 
FISETIN

>  <Pocket>  (270) 
nan

>  <ATP_Site>  (270) 
nan

>  <Peripheral>  (270) 
nan

>  <Num_H_Atoms_ProtBoundConf>  (270) 
nan

>  <Num_Resolved_Atoms>  (270) 
nan

>  <Num_Not_Resolved_Atoms>  (270) 
nan

$$$$
CHEMBL315389
     RDKit          3D

  0  0  0  0  0  0  0  0  0  0999 V3000
M  V30 BEGIN CTAB
M  V30 COUNTS 70 76 0 0 0
M  V30 BEGIN ATOM
M  V30 1 O 3.071711 0.946512 4.289310 0
M  V30 2 C 3.204810 0.333305 3.204868 0
M  V30 3 N 4.313080 -0.546022 3.052028 0
M  V30 4 C 4.202866 -1.087404 1.740972 0
M  V30 5 O 5.044707 -1.924882 1.266760 0
M  V30 6 C 3.002041 -0.524912 1.083809 0
M  V30 7 C 2.437768 0.309596 1.979199 0
M  V30 8 C 1.243671 1.058248 1.744292 0
M  V30 9 C 0.986519 1.553465 0.487814 0
M  V30 10 N -0.207909 2.228578 0.401738 0
M  V30 11 C -0.709038 2.156103 1.645244 0
M  V30 12 C -1.915234 2.710827 2.013413 0
M  V30 13 C -2.248719 2.512871 3.356941 0
M  V30 14 C -1.419449 1.810733 4.236661 0
M  V30 15 C -0.215997 1.281240 3.784821 0
M  V30 16 C 0.146856 1.455877 2.469899 0
M  V30 17 C -0.444677 2.683276 -0.976884 0
M  V30 18 C -1.372395 1.600894 -1.576526 0
M  V30 19 O -0.868920 0.340396 -1.208653 0
M  V30 20 C -1.608962 -0.684692 -1.754319 0 CFG=2
M  V30 21 C -2.690042 -1.011850 -0.608238 0
M  V30 22 N -3.534943 -2.071797 -1.047863 0
M  V30 23 S -4.731587 -2.474643 0.153065 0
M  V30 24 O -5.542703 -1.237375 0.458678 0
M  V30 25 O -5.647695 -3.537078 -0.335528 0
M  V30 26 C -3.946383 -3.015940 1.602041 0
M  V30 27 C -3.548722 -2.238829 2.660598 0
M  V30 28 C -2.933908 -2.836277 3.741414 0
M  V30 29 C -2.679709 -4.188403 3.846857 0
M  V30 30 C -3.076561 -4.986562 2.783461 0
M  V30 31 C -3.692505 -4.387168 1.700920 0
M  V30 32 C -0.953480 -1.964143 -2.033249 0
M  V30 33 C 0.308521 -2.019562 -2.787412 0
M  V30 34 N 1.450233 -1.460740 -2.087276 0
M  V30 35 C 1.404420 -1.365166 -0.746208 0
M  V30 36 C 2.575966 -0.831578 -0.250055 0
M  V30 37 C 3.321101 -0.620035 -1.416655 0
M  V30 38 C 4.588777 -0.111334 -1.663597 0
M  V30 39 C 5.116501 0.000486 -2.933059 0
M  V30 40 C 4.372112 -0.403859 -4.021027 0
M  V30 41 C 3.108265 -0.914175 -3.811056 0
M  V30 42 C 2.633962 -1.002147 -2.523399 0
M  V30 43 H 5.091156 -0.788079 3.736280 0
M  V30 44 H 1.695677 1.429456 -0.351570 0
M  V30 45 H -2.553096 3.252388 1.330400 0
M  V30 46 H -3.182691 2.913174 3.746031 0
M  V30 47 H -1.732998 1.691675 5.262021 0
M  V30 48 H 0.414254 0.734588 4.465552 0
M  V30 49 H -0.974169 3.653534 -0.950658 0
M  V30 50 H 0.512373 2.728075 -1.500328 0
M  V30 51 H -2.388431 1.704593 -1.201737 0
M  V30 52 H -1.337111 1.646005 -2.681346 0
M  V30 53 H -2.299554 -0.264805 -2.500573 0
M  V30 54 H -3.276857 -0.116213 -0.419964 0
M  V30 55 H -2.144489 -1.310104 0.287420 0
M  V30 56 H -4.018778 -1.875889 -1.945508 0
M  V30 57 H -3.747961 -1.190689 2.574364 0
M  V30 58 H -2.622123 -2.212736 4.575755 0
M  V30 59 H -2.198160 -4.642751 4.697599 0
M  V30 60 H -2.908738 -6.054591 2.798886 0
M  V30 61 H -3.983382 -5.068004 0.891895 0
M  V30 62 H -0.850918 -2.563335 -1.064745 0
M  V30 63 H -1.714373 -2.611309 -2.586142 0
M  V30 64 H 0.554444 -3.082357 -2.989267 0
M  V30 65 H 0.188130 -1.564503 -3.797993 0
M  V30 66 H 0.637453 -1.626837 -0.033360 0
M  V30 67 H 5.215184 0.220124 -0.850805 0
M  V30 68 H 6.103889 0.397884 -3.111864 0
M  V30 69 H 4.753669 -0.331008 -5.032680 0
M  V30 70 H 2.505023 -1.238440 -4.652956 0
M  V30 END ATOM
M  V30 BEGIN BOND
M  V30 1 2 1 2
M  V30 2 1 2 3
M  V30 3 1 3 4
M  V30 4 2 4 5
M  V30 5 1 4 6
M  V30 6 2 6 7
M  V30 7 1 7 8
M  V30 8 2 8 9
M  V30 9 1 9 10
M  V30 10 1 10 11
M  V30 11 2 11 12
M  V30 12 1 12 13
M  V30 13 2 13 14
M  V30 14 1 14 15
M  V30 15 2 15 16
M  V30 16 1 10 17
M  V30 17 1 17 18
M  V30 18 1 18 19
M  V30 19 1 19 20
M  V30 20 1 20 21
M  V30 21 1 21 22
M  V30 22 1 22 23
M  V30 23 2 23 24
M  V30 24 2 23 25
M  V30 25 1 23 26
M  V30 26 2 26 27
M  V30 27 1 27 28
M  V30 28 2 28 29
M  V30 29 1 29 30
M  V30 30 2 30 31
M  V30 31 1 20 32
M  V30 32 1 32 33
M  V30 33 1 33 34
M  V30 34 1 34 35
M  V30 35 2 35 36
M  V30 36 1 36 37
M  V30 37 2 37 38
M  V30 38 1 38 39
M  V30 39 2 39 40
M  V30 40 1 40 41
M  V30 41 2 41 42
M  V30 42 1 7 2
M  V30 43 1 16 8
M  V30 44 1 31 26
M  V30 45 1 42 34
M  V30 46 1 36 6
M  V30 47 1 42 37
M  V30 48 1 16 11
M  V30 49 1 3 43
M  V30 50 1 9 44
M  V30 51 1 12 45
M  V30 52 1 13 46
M  V30 53 1 14 47
M  V30 54 1 15 48
M  V30 55 1 17 49
M  V30 56 1 17 50
M  V30 57 1 18 51
M  V30 58 1 18 52
M  V30 59 1 20 53 CFG=3
M  V30 60 1 21 54
M  V30 61 1 21 55
M  V30 62 1 22 56
M  V30 63 1 27 57
M  V30 64 1 28 58
M  V30 65 1 29 59
M  V30 66 1 30 60
M  V30 67 1 31 61
M  V30 68 1 32 62
M  V30 69 1 32 63
M  V30 70 1 33 64
M  V30 71 1 33 65
M  V30 72 1 35 66
M  V30 73 1 38 67
M  V30 74 1 39 68
M  V30 75 1 40 69
M  V30 76 1 41 70
M  V30 END BOND
M  V30 END CTAB
M  END
>  <Dataset>  (271) 
ChEMBL_Kinases

>  <Ligand_Instance>  (271) 
nan

>  <PDB_ID>  (271) 
nan

>  <Standardized_SMILES>  (271) 
O=C1NC(=O)C2=C1c1cn(c3ccccc13)CCO[C@H](CNS(=O)(=O)c1ccccc1)CCn1cc2c2ccccc21

>  <Name>  (271) 
nan

>  <Pocket>  (271) 
nan

>  <ATP_Site>  (271) 
nan

>  <Peripheral>  (271) 
nan

>  <Num_H_Atoms_ProtBoundConf>  (271) 
nan

>  <Num_Resolved_Atoms>  (271) 
nan

>  <Num_Not_Resolved_Atoms>  (271) 
nan

$$$$
CHEMBL4764569
     RDKit          3D

  0  0  0  0  0  0  0  0  0  0999 V3000
M  V30 BEGIN CTAB
M  V30 COUNTS 55 59 0 0 0
M  V30 BEGIN ATOM
M  V30 1 O 0.756276 2.856348 4.781747 0
M  V30 2 C 0.792400 2.253659 3.651976 0
M  V30 3 N 1.202281 0.949029 3.939486 0
M  V30 4 C 1.397335 0.870277 5.368165 0
M  V30 5 C 0.321789 0.501306 6.173080 0
M  V30 6 C 0.445762 0.410228 7.546327 0
M  V30 7 C 1.690944 0.705682 8.060211 0
M  V30 8 N 2.737633 1.066095 7.261256 0
M  V30 9 C 2.622662 1.154467 5.942698 0
M  V30 10 C 0.431028 3.014081 2.478354 0
M  V30 11 N 0.091800 4.310590 2.671011 0
M  V30 12 N -0.212076 4.850569 1.483063 0
M  V30 13 C -0.093072 3.969178 0.481308 0
M  V30 14 C -0.277242 3.997051 -0.882326 0
M  V30 15 C -0.046004 2.832064 -1.618439 0
M  V30 16 C 0.362520 1.693390 -0.926431 0
M  V30 17 C 0.576071 0.516869 -1.784151 0
M  V30 18 C 1.013986 0.632307 -3.086431 0
M  V30 19 N 1.182307 -0.517200 -3.798130 0
M  V30 20 C 0.934040 -1.715507 -3.259745 0
M  V30 21 C 0.494615 -1.897904 -1.963933 0
M  V30 22 C 0.188268 -3.166523 -1.269320 0
M  V30 23 N -1.187744 -3.529220 -1.368962 0
M  V30 24 C -1.491755 -4.746920 -0.695874 0
M  V30 25 C -2.631266 -5.528656 -1.303173 0
M  V30 26 S -2.172138 -5.917748 -2.981641 0
M  V30 27 O -1.098229 -6.988485 -2.892651 0
M  V30 28 O -3.314743 -6.411250 -3.793051 0
M  V30 29 C -1.469367 -4.404526 -3.651437 0
M  V30 30 C -1.797105 -3.320966 -2.632857 0
M  V30 31 C 0.319635 -0.735914 -1.230395 0
M  V30 32 C 0.543420 1.677541 0.437580 0
M  V30 33 C 0.310991 2.823360 1.124363 0
M  V30 34 H 1.268321 0.361313 3.085992 0
M  V30 35 H -0.661538 0.269830 5.753791 0
M  V30 36 H -0.408473 0.121947 8.140066 0
M  V30 37 H 1.841553 0.649408 9.132244 0
M  V30 38 H 3.400838 1.429530 5.268630 0
M  V30 39 H -0.502323 5.849164 1.401720 0
M  V30 40 H -0.598774 4.927888 -1.347443 0
M  V30 41 H -0.198810 2.883941 -2.688697 0
M  V30 42 H 1.199611 1.622114 -3.472644 0
M  V30 43 H 1.069258 -2.626944 -3.826199 0
M  V30 44 H 0.835481 -3.953194 -1.763625 0
M  V30 45 H 0.536096 -3.059665 -0.216181 0
M  V30 46 H -0.596215 -5.403606 -0.744968 0
M  V30 47 H -1.748471 -4.560312 0.384103 0
M  V30 48 H -2.676484 -6.505467 -0.767604 0
M  V30 49 H -3.593149 -4.985864 -1.280649 0
M  V30 50 H -0.389638 -4.515576 -3.738971 0
M  V30 51 H -1.986202 -4.107676 -4.588897 0
M  V30 52 H -2.899578 -3.170450 -2.558385 0
M  V30 53 H -1.404319 -2.367494 -3.048163 0
M  V30 54 H -0.024669 -0.780042 -0.198170 0
M  V30 55 H 0.857545 0.776945 0.919622 0
M  V30 END ATOM
M  V30 BEGIN BOND
M  V30 1 2 1 2
M  V30 2 1 2 3
M  V30 3 1 3 4
M  V30 4 2 4 5
M  V30 5 1 5 6
M  V30 6 2 6 7
M  V30 7 1 7 8
M  V30 8 2 8 9
M  V30 9 1 2 10
M  V30 10 2 10 11
M  V30 11 1 11 12
M  V30 12 1 12 13
M  V30 13 2 13 14
M  V30 14 1 14 15
M  V30 15 2 15 16
M  V30 16 1 16 17
M  V30 17 2 17 18
M  V30 18 1 18 19
M  V30 19 2 19 20
M  V30 20 1 20 21
M  V30 21 1 21 22
M  V30 22 1 22 23
M  V30 23 1 23 24
M  V30 24 1 24 25
M  V30 25 1 25 26
M  V30 26 2 26 27
M  V30 27 2 26 28
M  V30 28 1 26 29
M  V30 29 1 29 30
M  V30 30 2 21 31
M  V30 31 1 16 32
M  V30 32 2 32 33
M  V30 33 1 9 4
M  V30 34 1 33 10
M  V30 35 1 33 13
M  V30 36 1 31 17
M  V30 37 1 30 23
M  V30 38 1 3 34
M  V30 39 1 5 35
M  V30 40 1 6 36
M  V30 41 1 7 37
M  V30 42 1 9 38
M  V30 43 1 12 39
M  V30 44 1 14 40
M  V30 45 1 15 41
M  V30 46 1 18 42
M  V30 47 1 20 43
M  V30 48 1 22 44
M  V30 49 1 22 45
M  V30 50 1 24 46
M  V30 51 1 24 47
M  V30 52 1 25 48
M  V30 53 1 25 49
M  V30 54 1 29 50
M  V30 55 1 29 51
M  V30 56 1 30 52
M  V30 57 1 30 53
M  V30 58 1 31 54
M  V30 59 1 32 55
M  V30 END BOND
M  V30 END CTAB
M  END
>  <Dataset>  (272) 
ChEMBL_Kinases

>  <Ligand_Instance>  (272) 
nan

>  <PDB_ID>  (272) 
nan

>  <Standardized_SMILES>  (272) 
O=C(Nc1cccnc1)c1n[nH]c2ccc(-c3cncc(CN4CCS(=O)(=O)CC4)c3)cc12

>  <Name>  (272) 
nan

>  <Pocket>  (272) 
nan

>  <ATP_Site>  (272) 
nan

>  <Peripheral>  (272) 
nan

>  <Num_H_Atoms_ProtBoundConf>  (272) 
nan

>  <Num_Resolved_Atoms>  (272) 
nan

>  <Num_Not_Resolved_Atoms>  (272) 
nan

$$$$
CHEMBL3133762
     RDKit          3D

  0  0  0  0  0  0  0  0  0  0999 V3000
M  V30 BEGIN CTAB
M  V30 COUNTS 41 44 0 0 0
M  V30 BEGIN ATOM
M  V30 1 N 0.149784 -6.292539 3.417910 0
M  V30 2 C 0.770878 -5.013735 3.321338 0
M  V30 3 N 1.834181 -4.639875 4.076505 0
M  V30 4 C 2.392555 -3.415750 3.951931 0
M  V30 5 C 1.830620 -2.565955 3.021778 0
M  V30 6 C 0.749781 -2.914370 2.238129 0
M  V30 7 C 0.225114 -1.945996 1.280924 0
M  V30 8 C 0.672943 -0.686290 1.040171 0
M  V30 9 N -0.064643 -0.093356 0.084086 0
M  V30 10 C 0.004063 1.196161 -0.508540 0
M  V30 11 O -0.754792 1.640610 -1.408427 0
M  V30 12 N 0.906584 2.250741 -0.240867 0
M  V30 13 C 0.728963 3.458898 -1.011333 0
M  V30 14 C 0.604002 4.617792 -0.036497 0
M  V30 15 O 1.637036 4.657952 0.880724 0
M  V30 16 C 2.595888 3.685857 0.657419 0
M  V30 17 C 2.000270 2.292632 0.709774 0
M  V30 18 C -1.009952 -0.961607 -0.315726 0
M  V30 19 C -2.045752 -0.981662 -1.226005 0
M  V30 20 C -2.881933 -2.060807 -1.421895 0
M  V30 21 C -2.688712 -3.202113 -0.671505 0
M  V30 22 Br -3.822273 -4.721067 -0.908655 0
M  V30 23 C -1.665068 -3.211988 0.243145 0
M  V30 24 C -0.832743 -2.100611 0.419265 0
M  V30 25 N 0.258315 -4.147783 2.426860 0
M  V30 26 H -0.731368 -6.275368 3.992477 0
M  V30 27 H 0.641496 -7.084774 2.910298 0
M  V30 28 H 3.238883 -3.170758 4.579652 0
M  V30 29 H 2.304501 -1.584890 2.945366 0
M  V30 30 H 1.504243 -0.207331 1.535967 0
M  V30 31 H 1.554600 3.653140 -1.726272 0
M  V30 32 H -0.191931 3.455724 -1.640928 0
M  V30 33 H 0.676131 5.586096 -0.608830 0
M  V30 34 H -0.388347 4.614081 0.459570 0
M  V30 35 H 3.033451 3.855757 -0.344230 0
M  V30 36 H 3.428087 3.739965 1.369476 0
M  V30 37 H 1.551456 2.178231 1.730912 0
M  V30 38 H 2.749131 1.539520 0.471466 0
M  V30 39 H -2.229049 -0.119218 -1.826182 0
M  V30 40 H -3.669157 -2.014087 -2.145136 0
M  V30 41 H -1.514403 -4.107280 0.830967 0
M  V30 END ATOM
M  V30 BEGIN BOND
M  V30 1 1 1 2
M  V30 2 2 2 3
M  V30 3 1 3 4
M  V30 4 2 4 5
M  V30 5 1 5 6
M  V30 6 1 6 7
M  V30 7 2 7 8
M  V30 8 1 8 9
M  V30 9 1 9 10
M  V30 10 2 10 11
M  V30 11 1 10 12
M  V30 12 1 12 13
M  V30 13 1 13 14
M  V30 14 1 14 15
M  V30 15 1 15 16
M  V30 16 1 16 17
M  V30 17 1 9 18
M  V30 18 2 18 19
M  V30 19 1 19 20
M  V30 20 2 20 21
M  V30 21 1 21 22
M  V30 22 1 21 23
M  V30 23 2 23 24
M  V30 24 2 6 25
M  V30 25 1 25 2
M  V30 26 1 24 7
M  V30 27 1 17 12
M  V30 28 1 24 18
M  V30 29 1 1 26
M  V30 30 1 1 27
M  V30 31 1 4 28
M  V30 32 1 5 29
M  V30 33 1 8 30
M  V30 34 1 13 31
M  V30 35 1 13 32
M  V30 36 1 14 33
M  V30 37 1 14 34
M  V30 38 1 16 35
M  V30 39 1 16 36
M  V30 40 1 17 37
M  V30 41 1 17 38
M  V30 42 1 19 39
M  V30 43 1 20 40
M  V30 44 1 23 41
M  V30 END BOND
M  V30 END CTAB
M  END
>  <Dataset>  (273) 
ChEMBL_Kinases

>  <Ligand_Instance>  (273) 
nan

>  <PDB_ID>  (273) 
nan

>  <Standardized_SMILES>  (273) 
Nc1nccc(-c2cn(C(=O)N3CCOCC3)c3ccc(Br)cc23)n1

>  <Name>  (273) 
nan

>  <Pocket>  (273) 
nan

>  <ATP_Site>  (273) 
nan

>  <Peripheral>  (273) 
nan

>  <Num_H_Atoms_ProtBoundConf>  (273) 
nan

>  <Num_Resolved_Atoms>  (273) 
nan

>  <Num_Not_Resolved_Atoms>  (273) 
nan

$$$$
CHEMBL4764391
     RDKit          3D

  0  0  0  0  0  0  0  0  0  0999 V3000
M  V30 BEGIN CTAB
M  V30 COUNTS 36 40 0 0 0
M  V30 BEGIN ATOM
M  V30 1 C 3.050037 -5.434576 1.802597 0
M  V30 2 C 3.932409 -4.888880 0.892309 0
M  V30 3 N 3.696950 -3.689141 0.284933 0
M  V30 4 C 2.558365 -3.008441 0.584300 0
M  V30 5 C 1.633299 -3.494611 1.484327 0
M  V30 6 C 0.400852 -2.799713 1.834859 0
M  V30 7 C 0.037945 -1.597102 1.307346 0
M  V30 8 C -1.111244 -0.914709 1.612438 0
M  V30 9 C -1.673870 0.281167 1.217144 0
M  V30 10 C -1.101121 1.218526 0.257717 0
M  V30 11 N 0.065340 1.070525 -0.396172 0
M  V30 12 C 0.263021 2.147033 -1.203209 0
M  V30 13 C 1.230842 2.569848 -2.090571 0
M  V30 14 C 1.129399 3.754931 -2.774557 0
M  V30 15 C 0.001478 4.551663 -2.555380 0
M  V30 16 C -1.012564 4.200225 -1.683511 0
M  V30 17 C -0.840868 2.986805 -1.026628 0
M  V30 18 N -1.644896 2.385711 -0.131533 0
M  V30 19 N -2.841554 0.436357 1.867280 0
M  V30 20 N -3.040993 -0.624555 2.665584 0
M  V30 21 C -1.998474 -1.473691 2.534234 0
M  V30 22 C -1.615602 -2.691592 3.058623 0
M  V30 23 N -0.482804 -3.323247 2.731962 0
M  V30 24 C 1.886228 -4.713511 2.092614 0
M  V30 25 H 3.274232 -6.386376 2.260493 0
M  V30 26 H 4.859481 -5.358086 0.594815 0
M  V30 27 H 2.385160 -2.076485 0.106279 0
M  V30 28 H 0.660472 -1.104209 0.596921 0
M  V30 29 H 2.078434 1.930200 -2.229391 0
M  V30 30 H 1.870761 4.098785 -3.466915 0
M  V30 31 H -0.104903 5.493312 -3.082357 0
M  V30 32 H -1.879346 4.799167 -1.506664 0
M  V30 33 H -2.569583 2.747292 0.232444 0
M  V30 34 H -3.801016 -0.909245 3.332509 0
M  V30 35 H -2.288000 -3.155714 3.782801 0
M  V30 36 H 1.205798 -5.154532 2.807342 0
M  V30 END ATOM
M  V30 BEGIN BOND
M  V30 1 2 1 2
M  V30 2 1 2 3
M  V30 3 2 3 4
M  V30 4 1 4 5
M  V30 5 1 5 6
M  V30 6 2 6 7
M  V30 7 1 7 8
M  V30 8 1 8 9
M  V30 9 1 9 10
M  V30 10 2 10 11
M  V30 11 1 11 12
M  V30 12 2 12 13
M  V30 13 1 13 14
M  V30 14 2 14 15
M  V30 15 1 15 16
M  V30 16 2 16 17
M  V30 17 1 17 18
M  V30 18 2 9 19
M  V30 19 1 19 20
M  V30 20 1 20 21
M  V30 21 1 21 22
M  V30 22 2 22 23
M  V30 23 2 5 24
M  V30 24 1 24 1
M  V30 25 1 23 6
M  V30 26 2 21 8
M  V30 27 1 18 10
M  V30 28 1 17 12
M  V30 29 1 1 25
M  V30 30 1 2 26
M  V30 31 1 4 27
M  V30 32 1 7 28
M  V30 33 1 13 29
M  V30 34 1 14 30
M  V30 35 1 15 31
M  V30 36 1 16 32
M  V30 37 1 18 33
M  V30 38 1 20 34
M  V30 39 1 22 35
M  V30 40 1 24 36
M  V30 END BOND
M  V30 END CTAB
M  END
>  <Dataset>  (274) 
ChEMBL_Kinases

>  <Ligand_Instance>  (274) 
nan

>  <PDB_ID>  (274) 
nan

>  <Standardized_SMILES>  (274) 
c1cncc(-c2cc3c(-c4nc5ccccc5[nH]4)n[nH]c3cn2)c1

>  <Name>  (274) 
nan

>  <Pocket>  (274) 
nan

>  <ATP_Site>  (274) 
nan

>  <Peripheral>  (274) 
nan

>  <Num_H_Atoms_ProtBoundConf>  (274) 
nan

>  <Num_Resolved_Atoms>  (274) 
nan

>  <Num_Not_Resolved_Atoms>  (274) 
nan

$$$$
CHEMBL4764315
     RDKit          3D

  0  0  0  0  0  0  0  0  0  0999 V3000
M  V30 BEGIN CTAB
M  V30 COUNTS 42 45 0 0 0
M  V30 BEGIN ATOM
M  V30 1 C 2.045257 -6.450259 -0.885811 0
M  V30 2 C 1.583653 -5.746399 0.348102 0
M  V30 3 N 1.379745 -6.302216 1.571654 0
M  V30 4 N 0.972910 -5.357448 2.405218 0
M  V30 5 C 0.905947 -4.198946 1.757271 0
M  V30 6 C 0.538075 -2.943045 2.196600 0
M  V30 7 C 0.566939 -1.907993 1.274729 0
M  V30 8 C 0.940518 -2.070857 -0.042312 0
M  V30 9 C 0.930622 -0.905082 -0.916639 0
M  V30 10 C 1.283677 -0.950304 -2.246488 0
M  V30 11 N 1.249875 0.179048 -2.999918 0
M  V30 12 C 0.869759 1.342536 -2.440881 0
M  V30 13 C 0.508466 1.411963 -1.098116 0
M  V30 14 O 0.117364 2.625231 -0.535556 0
M  V30 15 C -0.235008 2.639426 0.816126 0 CFG=1
M  V30 16 C 0.598959 3.533624 1.684627 0
M  V30 17 C 0.329889 3.127812 3.104655 0
M  V30 18 N -1.008551 2.877199 3.462183 0
M  V30 19 C -1.985618 2.669350 2.478823 0
M  V30 20 C -1.671862 3.064435 1.075972 0
M  V30 21 F -1.837245 4.437689 0.944171 0
M  V30 22 F -2.562316 2.445922 0.221951 0
M  V30 23 N 0.554846 0.270193 -0.383614 0
M  V30 24 C 1.300722 -3.340129 -0.441520 0
M  V30 25 C 1.285196 -4.396940 0.445808 0
M  V30 26 H 1.181144 -6.699793 -1.541092 0
M  V30 27 H 2.853754 -5.903006 -1.412917 0
M  V30 28 H 2.487240 -7.420682 -0.585128 0
M  V30 29 H 0.745965 -5.527390 3.415810 0
M  V30 30 H 0.242217 -2.803508 3.231392 0
M  V30 31 H 0.267537 -0.932158 1.668535 0
M  V30 32 H 1.587868 -1.885195 -2.690902 0
M  V30 33 H 0.859419 2.210998 -3.080808 0
M  V30 34 H -0.146180 1.611626 1.277094 0
M  V30 35 H 0.371367 4.608233 1.502663 0
M  V30 36 H 1.673419 3.360794 1.474940 0
M  V30 37 H 0.740732 3.922814 3.765351 0
M  V30 38 H 0.981790 2.226205 3.296981 0
M  V30 39 H -1.026288 2.060582 4.138714 0
M  V30 40 H -2.909900 3.237984 2.780505 0
M  V30 41 H -2.301772 1.586375 2.445905 0
M  V30 42 H 1.594764 -3.501234 -1.452364 0
M  V30 END ATOM
M  V30 BEGIN BOND
M  V30 1 1 1 2
M  V30 2 2 2 3
M  V30 3 1 3 4
M  V30 4 1 4 5
M  V30 5 2 5 6
M  V30 6 1 6 7
M  V30 7 2 7 8
M  V30 8 1 8 9
M  V30 9 2 9 10
M  V30 10 1 10 11
M  V30 11 2 11 12
M  V30 12 1 12 13
M  V30 13 1 13 14
M  V30 14 1 14 15
M  V30 15 1 15 16
M  V30 16 1 16 17
M  V30 17 1 17 18
M  V30 18 1 18 19
M  V30 19 1 19 20
M  V30 20 1 20 21
M  V30 21 1 20 22
M  V30 22 2 13 23
M  V30 23 1 8 24
M  V30 24 2 24 25
M  V30 25 1 25 2
M  V30 26 1 25 5
M  V30 27 1 23 9
M  V30 28 1 20 15
M  V30 29 1 1 26
M  V30 30 1 1 27
M  V30 31 1 1 28
M  V30 32 1 4 29
M  V30 33 1 6 30
M  V30 34 1 7 31
M  V30 35 1 10 32
M  V30 36 1 12 33
M  V30 37 1 15 34 CFG=1
M  V30 38 1 16 35
M  V30 39 1 16 36
M  V30 40 1 17 37
M  V30 41 1 17 38
M  V30 42 1 18 39
M  V30 43 1 19 40
M  V30 44 1 19 41
M  V30 45 1 24 42
M  V30 END BOND
M  V30 END CTAB
M  END
>  <Dataset>  (275) 
ChEMBL_Kinases

>  <Ligand_Instance>  (275) 
nan

>  <PDB_ID>  (275) 
nan

>  <Standardized_SMILES>  (275) 
Cc1n[nH]c2ccc(-c3cncc(O[C@H]4CCNCC4(F)F)n3)cc12

>  <Name>  (275) 
nan

>  <Pocket>  (275) 
nan

>  <ATP_Site>  (275) 
nan

>  <Peripheral>  (275) 
nan

>  <Num_H_Atoms_ProtBoundConf>  (275) 
nan

>  <Num_Resolved_Atoms>  (275) 
nan

>  <Num_Not_Resolved_Atoms>  (275) 
nan

$$$$
CHEMBL4874575
     RDKit          3D

  0  0  0  0  0  0  0  0  0  0999 V3000
M  V30 BEGIN CTAB
M  V30 COUNTS 49 53 0 0 0
M  V30 BEGIN ATOM
M  V30 1 O 1.259575 5.034192 1.249741 0
M  V30 2 C 1.257307 3.773939 1.237536 0
M  V30 3 N 1.194974 2.928287 2.365600 0
M  V30 4 C 1.124343 3.498160 3.710427 0 CFG=1
M  V30 5 C -0.029524 2.876260 4.478257 0
M  V30 6 C 0.646961 2.029509 5.525654 0
M  V30 7 O 1.818080 1.637206 4.862203 0
M  V30 8 C 2.303639 2.905651 4.474703 0
M  V30 9 C 1.327702 3.162395 -0.104361 0
M  V30 10 C 1.345694 1.899521 -0.494772 0
M  V30 11 C 1.415786 1.549164 -1.819780 0
M  V30 12 N 1.439940 0.217325 -2.328478 0
M  V30 13 N 2.284543 -0.311649 -3.193106 0
M  V30 14 C 1.971178 -1.615450 -3.423650 0
M  V30 15 C 0.861354 -1.914792 -2.653005 0
M  V30 16 C 0.101057 -3.056265 -2.469231 0
M  V30 17 C -0.999888 -3.078488 -1.603794 0
M  V30 18 N -1.791666 -4.232247 -1.400786 0
M  V30 19 C -2.071719 -4.986530 -0.233677 0
M  V30 20 C -1.505459 -4.588187 0.957429 0
M  V30 21 C -1.797962 -5.347021 2.089780 0
M  V30 22 C -2.638969 -6.454084 1.949401 0
M  V30 23 C -3.193049 -6.824618 0.722949 0
M  V30 24 C -2.900192 -6.065018 -0.410265 0
M  V30 25 Cl -3.567066 -6.483121 -1.974871 0
M  V30 26 C -1.294805 -1.905956 -0.938896 0
M  V30 27 F -2.317399 -1.783140 -0.083616 0
M  V30 28 C -0.524924 -0.776400 -1.134627 0
M  V30 29 C 0.560053 -0.741593 -1.982721 0
M  V30 30 C 1.465921 2.640745 -2.710092 0
M  V30 31 S 1.407324 4.126646 -1.551008 0
M  V30 32 H 1.196774 1.888436 2.286953 0
M  V30 33 H 1.127493 4.585774 3.700573 0
M  V30 34 H -0.576413 2.167456 3.798185 0
M  V30 35 H -0.715587 3.638184 4.894197 0
M  V30 36 H 0.840223 2.560818 6.460078 0
M  V30 37 H 0.039895 1.132220 5.802166 0
M  V30 38 H 3.163741 2.711455 3.809600 0
M  V30 39 H 2.533595 3.487291 5.376162 0
M  V30 40 H 1.302225 1.134713 0.284975 0
M  V30 41 H 2.476957 -2.304345 -4.078196 0
M  V30 42 H 0.350992 -3.969860 -3.003344 0
M  V30 43 H -2.158163 -4.434769 -2.355691 0
M  V30 44 H -0.855537 -3.734303 1.068418 0
M  V30 45 H -1.381898 -5.082669 3.054807 0
M  V30 46 H -2.837547 -7.008451 2.842020 0
M  V30 47 H -3.840282 -7.688756 0.653206 0
M  V30 48 H -0.753155 0.158380 -0.609936 0
M  V30 49 H 1.526776 2.536538 -3.851516 0
M  V30 END ATOM
M  V30 BEGIN BOND
M  V30 1 2 1 2
M  V30 2 1 2 3
M  V30 3 1 3 4
M  V30 4 1 4 5
M  V30 5 1 5 6
M  V30 6 1 6 7
M  V30 7 1 7 8
M  V30 8 1 2 9
M  V30 9 2 9 10
M  V30 10 1 10 11
M  V30 11 1 11 12
M  V30 12 1 12 13
M  V30 13 2 13 14
M  V30 14 1 14 15
M  V30 15 2 15 16
M  V30 16 1 16 17
M  V30 17 1 17 18
M  V30 18 1 18 19
M  V30 19 2 19 20
M  V30 20 1 20 21
M  V30 21 2 21 22
M  V30 22 1 22 23
M  V30 23 2 23 24
M  V30 24 1 24 25
M  V30 25 2 17 26
M  V30 26 1 26 27
M  V30 27 1 26 28
M  V30 28 2 28 29
M  V30 29 2 11 30
M  V30 30 1 30 31
M  V30 31 1 8 4
M  V30 32 1 31 9
M  V30 33 1 29 12
M  V30 34 1 29 15
M  V30 35 1 24 19
M  V30 36 1 3 32
M  V30 37 1 4 33 CFG=3
M  V30 38 1 5 34
M  V30 39 1 5 35
M  V30 40 1 6 36
M  V30 41 1 6 37
M  V30 42 1 8 38
M  V30 43 1 8 39
M  V30 44 1 10 40
M  V30 45 1 14 41
M  V30 46 1 16 42
M  V30 47 1 18 43
M  V30 48 1 20 44
M  V30 49 1 21 45
M  V30 50 1 22 46
M  V30 51 1 23 47
M  V30 52 1 28 48
M  V30 53 1 30 49
M  V30 END BOND
M  V30 END CTAB
M  END
>  <Dataset>  (276) 
ChEMBL_Kinases

>  <Ligand_Instance>  (276) 
nan

>  <PDB_ID>  (276) 
nan

>  <Standardized_SMILES>  (276) 
O=C(N[C@H]1CCOC1)c1cc(-n2ncc3cc(Nc4ccccc4Cl)c(F)cc32)cs1

>  <Name>  (276) 
nan

>  <Pocket>  (276) 
nan

>  <ATP_Site>  (276) 
nan

>  <Peripheral>  (276) 
nan

>  <Num_H_Atoms_ProtBoundConf>  (276) 
nan

>  <Num_Resolved_Atoms>  (276) 
nan

>  <Num_Not_Resolved_Atoms>  (276) 
nan

$$$$
CHEMBL4764129
     RDKit          3D

  0  0  0  0  0  0  0  0  0  0999 V3000
M  V30 BEGIN CTAB
M  V30 COUNTS 49 54 0 0 0
M  V30 BEGIN ATOM
M  V30 1 C 5.572178 -4.944088 2.971480 0
M  V30 2 O 5.075740 -4.159020 1.919305 0
M  V30 3 C 3.883406 -3.456981 1.935236 0
M  V30 4 C 2.990883 -3.416246 2.988826 0
M  V30 5 N 1.854938 -2.695690 2.892862 0
M  V30 6 C 1.589900 -2.016728 1.772794 0
M  V30 7 C 2.429888 -2.007456 0.678923 0
M  V30 8 C 2.180622 -1.282271 -0.560681 0
M  V30 9 C 1.061062 -0.511748 -0.785068 0
M  V30 10 C 0.782114 0.184999 -1.925662 0
M  V30 11 C -0.249780 0.997082 -2.351446 0
M  V30 12 C -1.443385 1.351117 -1.586184 0
M  V30 13 N -1.722449 0.935607 -0.336527 0
M  V30 14 C -2.918099 1.463885 0.056890 0
M  V30 15 C -3.651455 1.352149 1.234587 0
M  V30 16 C -3.102729 0.524972 2.310488 0
M  V30 17 C -2.617019 -0.690264 1.813747 0
M  V30 18 C -2.054174 -1.618801 2.677152 0
M  V30 19 C -2.001531 -1.291358 4.000737 0
M  V30 20 C -2.473955 -0.096064 4.523781 0
M  V30 21 F -2.413859 0.211344 5.835610 0
M  V30 22 C -3.031800 0.814592 3.639166 0
M  V30 23 C -4.857428 2.038072 1.302456 0
M  V30 24 N -5.276528 2.774826 0.255083 0
M  V30 25 C -4.554823 2.877798 -0.888885 0
M  V30 26 C -3.346857 2.224773 -1.029992 0
M  V30 27 N -2.437169 2.145683 -2.023058 0
M  V30 28 N 0.038143 1.406926 -3.600273 0
M  V30 29 N 1.213697 0.881639 -3.974457 0
M  V30 30 C 1.693392 0.126744 -2.965569 0
M  V30 31 C 2.813802 -0.645305 -2.738989 0
M  V30 32 N 3.040412 -1.313309 -1.593248 0
M  V30 33 C 3.587532 -2.740886 0.774805 0
M  V30 34 H 5.120602 -4.746522 3.956194 0
M  V30 35 H 5.533122 -6.021514 2.714647 0
M  V30 36 H 6.662835 -4.687038 3.087023 0
M  V30 37 H 3.235770 -3.971162 3.868112 0
M  V30 38 H 0.676908 -1.446235 1.714245 0
M  V30 39 H 0.311618 -0.426230 -0.010649 0
M  V30 40 H -2.634726 -1.003603 0.758961 0
M  V30 41 H -1.670038 -2.572811 2.305580 0
M  V30 42 H -1.558469 -2.024828 4.672785 0
M  V30 43 H -3.429515 1.768413 3.922141 0
M  V30 44 H -5.426754 1.950854 2.217749 0
M  V30 45 H -4.899201 3.472106 -1.725685 0
M  V30 46 H -2.513866 2.625715 -2.956528 0
M  V30 47 H 1.708058 1.013800 -4.890512 0
M  V30 48 H 3.543250 -0.708812 -3.535141 0
M  V30 49 H 4.278638 -2.755579 -0.077213 0
M  V30 END ATOM
M  V30 BEGIN BOND
M  V30 1 1 1 2
M  V30 2 1 2 3
M  V30 3 2 3 4
M  V30 4 1 4 5
M  V30 5 2 5 6
M  V30 6 1 6 7
M  V30 7 1 7 8
M  V30 8 2 8 9
M  V30 9 1 9 10
M  V30 10 1 10 11
M  V30 11 1 11 12
M  V30 12 2 12 13
M  V30 13 1 13 14
M  V30 14 2 14 15
M  V30 15 1 15 16
M  V30 16 2 16 17
M  V30 17 1 17 18
M  V30 18 2 18 19
M  V30 19 1 19 20
M  V30 20 1 20 21
M  V30 21 2 20 22
M  V30 22 1 15 23
M  V30 23 2 23 24
M  V30 24 1 24 25
M  V30 25 2 25 26
M  V30 26 1 26 27
M  V30 27 2 11 28
M  V30 28 1 28 29
M  V30 29 1 29 30
M  V30 30 1 30 31
M  V30 31 2 31 32
M  V30 32 2 7 33
M  V30 33 1 33 3
M  V30 34 1 32 8
M  V30 35 2 30 10
M  V30 36 1 27 12
M  V30 37 1 26 14
M  V30 38 1 22 16
M  V30 39 1 1 34
M  V30 40 1 1 35
M  V30 41 1 1 36
M  V30 42 1 4 37
M  V30 43 1 6 38
M  V30 44 1 9 39
M  V30 45 1 17 40
M  V30 46 1 18 41
M  V30 47 1 19 42
M  V30 48 1 22 43
M  V30 49 1 23 44
M  V30 50 1 25 45
M  V30 51 1 27 46
M  V30 52 1 29 47
M  V30 53 1 31 48
M  V30 54 1 33 49
M  V30 END BOND
M  V30 END CTAB
M  END
>  <Dataset>  (277) 
ChEMBL_Kinases

>  <Ligand_Instance>  (277) 
nan

>  <PDB_ID>  (277) 
nan

>  <Standardized_SMILES>  (277) 
COc1cncc(-c2cc3c(-c4nc5c(-c6cccc(F)c6)cncc5[nH]4)n[nH]c3cn2)c1

>  <Name>  (277) 
nan

>  <Pocket>  (277) 
nan

>  <ATP_Site>  (277) 
nan

>  <Peripheral>  (277) 
nan

>  <Num_H_Atoms_ProtBoundConf>  (277) 
nan

>  <Num_Resolved_Atoms>  (277) 
nan

>  <Num_Not_Resolved_Atoms>  (277) 
nan

$$$$
CHEMBL3125731
     RDKit          3D

  0  0  0  0  0  0  0  0  0  0999 V3000
M  V30 BEGIN CTAB
M  V30 COUNTS 49 52 0 0 0
M  V30 BEGIN ATOM
M  V30 1 C 5.258202 -4.955799 1.527496 0
M  V30 2 O 6.577476 -5.008289 1.811687 0
M  V30 3 C 7.448001 -4.173682 1.195452 0
M  V30 4 C 7.234226 -2.703876 1.412076 0
M  V30 5 N 5.963407 -2.201203 0.961251 0
M  V30 6 C 5.581539 -2.307783 -0.403530 0
M  V30 7 O 6.302661 -2.830511 -1.282251 0
M  V30 8 C 4.322070 -1.788635 -0.748607 0
M  V30 9 C 3.266881 -1.156903 -0.101742 0
M  V30 10 C 2.160576 -0.778022 -0.774579 0
M  V30 11 C 1.063574 -0.113134 -0.066435 0
M  V30 12 C 1.368006 0.699539 1.021500 0
M  V30 13 N 0.330785 1.308602 1.668728 0
M  V30 14 C -0.944388 1.113123 1.247330 0
M  V30 15 N -2.113382 1.590191 1.706780 0
M  V30 16 C -3.139901 1.125187 0.971005 0
M  V30 17 C -4.568511 1.385774 1.116860 0
M  V30 18 C -5.490396 0.815550 0.260454 0
M  V30 19 C -6.822928 1.063863 0.403200 0
M  V30 20 C -7.338516 1.881345 1.387067 0
M  V30 21 O -8.666270 2.190513 1.608802 0
M  V30 22 C -9.667881 1.640439 0.767715 0
M  V30 23 C -6.398132 2.454705 2.249969 0
M  V30 24 C -5.034621 2.200786 2.104133 0
M  V30 25 N -2.587440 0.328845 0.018065 0
M  V30 26 C -1.250509 0.306399 0.166842 0
M  V30 27 C -0.218385 -0.337274 -0.525675 0
M  V30 28 C 2.132002 -1.052470 -2.146924 0
M  V30 29 S 3.715622 -1.871035 -2.500197 0
M  V30 30 H 4.718222 -4.020735 1.739722 0
M  V30 31 H 5.117061 -5.258894 0.443679 0
M  V30 32 H 4.756120 -5.785151 2.099808 0
M  V30 33 H 8.501660 -4.464444 1.509116 0
M  V30 34 H 7.359864 -4.393079 0.081650 0
M  V30 35 H 8.037281 -2.125786 0.860534 0
M  V30 36 H 7.367829 -2.514475 2.511885 0
M  V30 37 H 5.326471 -1.743159 1.677115 0
M  V30 38 H 3.485641 -1.039027 0.950429 0
M  V30 39 H 2.410807 0.799846 1.289532 0
M  V30 40 H -2.214261 2.227897 2.515258 0
M  V30 41 H -5.187513 0.160099 -0.542779 0
M  V30 42 H -7.557113 0.619015 -0.266914 0
M  V30 43 H -10.641312 1.724892 1.327092 0
M  V30 44 H -9.459906 0.600519 0.467433 0
M  V30 45 H -9.773250 2.251430 -0.163492 0
M  V30 46 H -6.650083 3.128369 3.083695 0
M  V30 47 H -4.307061 2.642393 2.769203 0
M  V30 48 H -0.425962 -0.972719 -1.372138 0
M  V30 49 H 1.244641 -0.770682 -2.791697 0
M  V30 END ATOM
M  V30 BEGIN BOND
M  V30 1 1 1 2
M  V30 2 1 2 3
M  V30 3 1 3 4
M  V30 4 1 4 5
M  V30 5 1 5 6
M  V30 6 2 6 7
M  V30 7 1 6 8
M  V30 8 2 8 9
M  V30 9 1 9 10
M  V30 10 1 10 11
M  V30 11 2 11 12
M  V30 12 1 12 13
M  V30 13 2 13 14
M  V30 14 1 14 15
M  V30 15 1 15 16
M  V30 16 1 16 17
M  V30 17 2 17 18
M  V30 18 1 18 19
M  V30 19 2 19 20
M  V30 20 1 20 21
M  V30 21 1 21 22
M  V30 22 1 20 23
M  V30 23 2 23 24
M  V30 24 2 16 25
M  V30 25 1 25 26
M  V30 26 2 26 27
M  V30 27 2 10 28
M  V30 28 1 28 29
M  V30 29 1 29 8
M  V30 30 1 27 11
M  V30 31 1 26 14
M  V30 32 1 24 17
M  V30 33 1 1 30
M  V30 34 1 1 31
M  V30 35 1 1 32
M  V30 36 1 3 33
M  V30 37 1 3 34
M  V30 38 1 4 35
M  V30 39 1 4 36
M  V30 40 1 5 37
M  V30 41 1 9 38
M  V30 42 1 12 39
M  V30 43 1 15 40
M  V30 44 1 18 41
M  V30 45 1 19 42
M  V30 46 1 22 43
M  V30 47 1 22 44
M  V30 48 1 22 45
M  V30 49 1 23 46
M  V30 50 1 24 47
M  V30 51 1 27 48
M  V30 52 1 28 49
M  V30 END BOND
M  V30 END CTAB
M  END
>  <Dataset>  (278) 
ChEMBL_Kinases

>  <Ligand_Instance>  (278) 
nan

>  <PDB_ID>  (278) 
nan

>  <Standardized_SMILES>  (278) 
COCCNC(=O)c1cc(-c2cnc3[nH]c(-c4ccc(OC)cc4)nc3c2)cs1

>  <Name>  (278) 
nan

>  <Pocket>  (278) 
nan

>  <ATP_Site>  (278) 
nan

>  <Peripheral>  (278) 
nan

>  <Num_H_Atoms_ProtBoundConf>  (278) 
nan

>  <Num_Resolved_Atoms>  (278) 
nan

>  <Num_Not_Resolved_Atoms>  (278) 
nan

$$$$
CHEMBL3125730
     RDKit          3D

  0  0  0  0  0  0  0  0  0  0999 V3000
M  V30 BEGIN CTAB
M  V30 COUNTS 55 58 0 0 0
M  V30 BEGIN ATOM
M  V30 1 C 10.000031 2.695079 3.156619 0
M  V30 2 O 9.481081 1.554725 2.504991 0
M  V30 3 C 8.161730 1.406628 2.108684 0
M  V30 4 C 7.795687 0.218188 1.472800 0
M  V30 5 C 6.471435 0.071050 1.075885 0
M  V30 6 C 5.545127 1.068925 1.302765 0
M  V30 7 C 4.166699 0.845854 0.860685 0
M  V30 8 N 3.114667 1.679465 0.975367 0
M  V30 9 C 2.014627 1.091803 0.439806 0
M  V30 10 C 0.681642 1.498324 0.296027 0
M  V30 11 C -0.176818 0.582177 -0.324817 0
M  V30 12 C -1.596651 0.978113 -0.495460 0
M  V30 13 C -1.904433 2.290998 -0.694742 0
M  V30 14 S -3.796777 2.231395 -0.835172 0
M  V30 15 C -3.860356 0.500434 -0.609131 0
M  V30 16 C -5.166269 -0.194016 -0.614919 0
M  V30 17 O -6.224264 0.462806 -0.782757 0
M  V30 18 N -5.180011 -1.593834 -0.428175 0
M  V30 19 C -6.400192 -2.382925 -0.412899 0
M  V30 20 C -6.086124 -3.844489 -0.185707 0
M  V30 21 C -5.380937 -4.071754 1.126747 0
M  V30 22 C -5.224116 -4.314433 -1.326539 0
M  V30 23 C -7.348780 -4.676153 -0.138118 0
M  V30 24 O -8.181596 -4.241438 0.907562 0
M  V30 25 C -2.624608 0.068271 -0.454783 0
M  V30 26 C 0.250881 -0.658062 -0.776618 0
M  V30 27 N 1.551853 -1.007247 -0.615133 0
M  V30 28 C 2.432791 -0.155549 -0.017470 0
M  V30 29 N 3.765395 -0.285121 0.253220 0
M  V30 30 C 5.921443 2.241629 1.933987 0
M  V30 31 C 7.244031 2.422897 2.346147 0
M  V30 32 H 10.201148 3.492921 2.422798 0
M  V30 33 H 10.943866 2.374004 3.659694 0
M  V30 34 H 9.264456 3.097006 3.904684 0
M  V30 35 H 8.561493 -0.534208 1.317822 0
M  V30 36 H 6.249485 -0.878010 0.585632 0
M  V30 37 H 0.362600 2.446823 0.643021 0
M  V30 38 H -1.240858 3.144054 -0.756145 0
M  V30 39 H -4.262104 -2.091983 -0.293159 0
M  V30 40 H -7.056543 -2.069529 0.448202 0
M  V30 41 H -7.016387 -2.237167 -1.321969 0
M  V30 42 H -5.965854 -3.716104 1.985408 0
M  V30 43 H -5.265740 -5.181662 1.239143 0
M  V30 44 H -4.347668 -3.665340 1.109591 0
M  V30 45 H -4.405267 -4.976966 -0.989383 0
M  V30 46 H -5.815553 -4.912787 -2.060469 0
M  V30 47 H -4.835260 -3.442508 -1.925689 0
M  V30 48 H -7.028838 -5.711147 0.074876 0
M  V30 49 H -7.904261 -4.682264 -1.101015 0
M  V30 50 H -8.003953 -4.732349 1.745876 0
M  V30 51 H -2.492676 -0.994956 -0.302854 0
M  V30 52 H -0.428468 -1.354077 -1.256595 0
M  V30 53 H 4.285813 -1.165896 -0.014544 0
M  V30 54 H 5.171946 3.022347 2.104811 0
M  V30 55 H 7.526518 3.345121 2.838660 0
M  V30 END ATOM
M  V30 BEGIN BOND
M  V30 1 1 1 2
M  V30 2 1 2 3
M  V30 3 2 3 4
M  V30 4 1 4 5
M  V30 5 2 5 6
M  V30 6 1 6 7
M  V30 7 2 7 8
M  V30 8 1 8 9
M  V30 9 2 9 10
M  V30 10 1 10 11
M  V30 11 1 11 12
M  V30 12 2 12 13
M  V30 13 1 13 14
M  V30 14 1 14 15
M  V30 15 1 15 16
M  V30 16 2 16 17
M  V30 17 1 16 18
M  V30 18 1 18 19
M  V30 19 1 19 20
M  V30 20 1 20 21
M  V30 21 1 20 22
M  V30 22 1 20 23
M  V30 23 1 23 24
M  V30 24 2 15 25
M  V30 25 2 11 26
M  V30 26 1 26 27
M  V30 27 2 27 28
M  V30 28 1 28 29
M  V30 29 1 6 30
M  V30 30 2 30 31
M  V30 31 1 31 3
M  V30 32 1 29 7
M  V30 33 1 28 9
M  V30 34 1 25 12
M  V30 35 1 1 32
M  V30 36 1 1 33
M  V30 37 1 1 34
M  V30 38 1 4 35
M  V30 39 1 5 36
M  V30 40 1 10 37
M  V30 41 1 13 38
M  V30 42 1 18 39
M  V30 43 1 19 40
M  V30 44 1 19 41
M  V30 45 1 21 42
M  V30 46 1 21 43
M  V30 47 1 21 44
M  V30 48 1 22 45
M  V30 49 1 22 46
M  V30 50 1 22 47
M  V30 51 1 23 48
M  V30 52 1 23 49
M  V30 53 1 24 50
M  V30 54 1 25 51
M  V30 55 1 26 52
M  V30 56 1 29 53
M  V30 57 1 30 54
M  V30 58 1 31 55
M  V30 END BOND
M  V30 END CTAB
M  END
>  <Dataset>  (279) 
ChEMBL_Kinases

>  <Ligand_Instance>  (279) 
nan

>  <PDB_ID>  (279) 
nan

>  <Standardized_SMILES>  (279) 
COc1ccc(-c2nc3cc(-c4csc(C(=O)NCC(C)(C)CO)c4)cnc3[nH]2)cc1

>  <Name>  (279) 
nan

>  <Pocket>  (279) 
nan

>  <ATP_Site>  (279) 
nan

>  <Peripheral>  (279) 
nan

>  <Num_H_Atoms_ProtBoundConf>  (279) 
nan

>  <Num_Resolved_Atoms>  (279) 
nan

>  <Num_Not_Resolved_Atoms>  (279) 
nan

$$$$
CHEMBL3125729
     RDKit          3D

  0  0  0  0  0  0  0  0  0  0999 V3000
M  V30 BEGIN CTAB
M  V30 COUNTS 54 57 0 0 0
M  V30 BEGIN ATOM
M  V30 1 C 5.670270 -2.423988 1.199650 0
M  V30 2 C 6.947629 -2.178715 1.953033 0
M  V30 3 C 7.356276 -0.746913 1.880706 0
M  V30 4 C 8.674751 -0.655516 2.680488 0
M  V30 5 C 6.403882 0.239151 2.457865 0
M  V30 6 N 5.107447 0.305895 1.895174 0
M  V30 7 C 4.827464 0.614616 0.549970 0
M  V30 8 O 5.805937 0.852347 -0.220691 0
M  V30 9 C 3.456479 0.685948 -0.050933 0
M  V30 10 C 2.238672 0.506755 0.419823 0
M  V30 11 C 1.170198 0.648111 -0.407228 0
M  V30 12 C -0.225444 0.460311 0.054894 0
M  V30 13 C -0.514728 0.795860 1.364645 0
M  V30 14 N -1.789225 0.636394 1.828517 0
M  V30 15 C -2.776913 0.156891 1.035085 0
M  V30 16 N -4.088232 -0.100989 1.208114 0
M  V30 17 C -4.620372 -0.580521 0.063272 0
M  V30 18 C -6.013114 -0.988688 -0.187623 0
M  V30 19 C -6.365949 -1.453973 -1.439074 0
M  V30 20 C -7.671977 -1.838035 -1.679152 0
M  V30 21 C -8.603990 -1.745325 -0.646955 0
M  V30 22 O -9.957346 -2.097915 -0.746435 0
M  V30 23 C -10.455183 -2.592451 -1.981368 0
M  V30 24 C -8.200902 -1.271665 0.592531 0
M  V30 25 C -6.905508 -0.880087 0.865830 0
M  V30 26 N -3.607939 -0.614491 -0.825457 0
M  V30 27 C -2.466823 -0.171963 -0.269114 0
M  V30 28 C -1.185632 -0.033778 -0.806932 0
M  V30 29 C 1.427495 0.977749 -1.718107 0
M  V30 30 S 3.325091 1.082247 -1.726114 0
M  V30 31 H 5.779310 -2.067558 0.158457 0
M  V30 32 H 5.591300 -3.538709 1.104384 0
M  V30 33 H 4.768738 -2.041647 1.710230 0
M  V30 34 H 7.707883 -2.860046 1.481303 0
M  V30 35 H 6.892694 -2.524911 3.007083 0
M  V30 36 H 7.604058 -0.437885 0.847991 0
M  V30 37 H 9.343318 -1.459750 2.368228 0
M  V30 38 H 9.103182 0.327907 2.430597 0
M  V30 39 H 8.433220 -0.671068 3.756761 0
M  V30 40 H 6.295199 0.024191 3.564843 0
M  V30 41 H 6.849050 1.258147 2.435687 0
M  V30 42 H 4.224688 0.131111 2.459737 0
M  V30 43 H 2.189884 0.251130 1.470589 0
M  V30 44 H 0.203408 1.186359 2.076317 0
M  V30 45 H -4.613231 0.055490 2.118558 0
M  V30 46 H -5.666555 -1.538970 -2.264040 0
M  V30 47 H -8.037831 -2.212693 -2.622832 0
M  V30 48 H -10.055776 -2.013545 -2.843746 0
M  V30 49 H -11.571552 -2.435177 -2.019128 0
M  V30 50 H -10.293692 -3.681247 -2.096994 0
M  V30 51 H -8.908312 -1.188228 1.419041 0
M  V30 52 H -6.632167 -0.516705 1.844308 0
M  V30 53 H -0.937882 -0.287417 -1.818147 0
M  V30 54 H 0.659713 1.130507 -2.524939 0
M  V30 END ATOM
M  V30 BEGIN BOND
M  V30 1 1 1 2
M  V30 2 1 2 3
M  V30 3 1 3 4
M  V30 4 1 3 5
M  V30 5 1 5 6
M  V30 6 1 6 7
M  V30 7 2 7 8
M  V30 8 1 7 9
M  V30 9 2 9 10
M  V30 10 1 10 11
M  V30 11 1 11 12
M  V30 12 2 12 13
M  V30 13 1 13 14
M  V30 14 2 14 15
M  V30 15 1 15 16
M  V30 16 1 16 17
M  V30 17 1 17 18
M  V30 18 2 18 19
M  V30 19 1 19 20
M  V30 20 2 20 21
M  V30 21 1 21 22
M  V30 22 1 22 23
M  V30 23 1 21 24
M  V30 24 2 24 25
M  V30 25 2 17 26
M  V30 26 1 26 27
M  V30 27 2 27 28
M  V30 28 2 11 29
M  V30 29 1 29 30
M  V30 30 1 30 9
M  V30 31 1 28 12
M  V30 32 1 27 15
M  V30 33 1 25 18
M  V30 34 1 1 31
M  V30 35 1 1 32
M  V30 36 1 1 33
M  V30 37 1 2 34
M  V30 38 1 2 35
M  V30 39 1 3 36
M  V30 40 1 4 37
M  V30 41 1 4 38
M  V30 42 1 4 39
M  V30 43 1 5 40
M  V30 44 1 5 41
M  V30 45 1 6 42
M  V30 46 1 10 43
M  V30 47 1 13 44
M  V30 48 1 16 45
M  V30 49 1 19 46
M  V30 50 1 20 47
M  V30 51 1 23 48
M  V30 52 1 23 49
M  V30 53 1 23 50
M  V30 54 1 24 51
M  V30 55 1 25 52
M  V30 56 1 28 53
M  V30 57 1 29 54
M  V30 END BOND
M  V30 END CTAB
M  END
>  <Dataset>  (280) 
ChEMBL_Kinases

>  <Ligand_Instance>  (280) 
nan

>  <PDB_ID>  (280) 
nan

>  <Standardized_SMILES>  (280) 
CCC(C)CNC(=O)c1cc(-c2cnc3[nH]c(-c4ccc(OC)cc4)nc3c2)cs1

>  <Name>  (280) 
nan

>  <Pocket>  (280) 
nan

>  <ATP_Site>  (280) 
nan

>  <Peripheral>  (280) 
nan

>  <Num_H_Atoms_ProtBoundConf>  (280) 
nan

>  <Num_Resolved_Atoms>  (280) 
nan

>  <Num_Not_Resolved_Atoms>  (280) 
nan

$$$$
CHEMBL3125727
     RDKit          3D

  0  0  0  0  0  0  0  0  0  0999 V3000
M  V30 BEGIN CTAB
M  V30 COUNTS 51 54 0 0 0
M  V30 BEGIN ATOM
M  V30 1 C 1.908376 -11.066847 0.121850 0
M  V30 2 O 0.705488 -10.291397 0.108694 0
M  V30 3 C 0.800111 -8.906625 0.066526 0
M  V30 4 C 1.939301 -8.128102 0.033505 0
M  V30 5 C 1.833650 -6.752404 -0.006794 0
M  V30 6 C 0.617134 -6.101512 -0.015866 0
M  V30 7 C 0.497041 -4.647834 -0.059507 0
M  V30 8 N 1.501129 -3.764638 -0.098337 0
M  V30 9 C 1.026366 -2.505950 -0.132249 0
M  V30 10 C 1.539672 -1.212243 -0.178281 0
M  V30 11 C 0.652774 -0.155445 -0.201263 0
M  V30 12 C 1.180829 1.207792 -0.249591 0
M  V30 13 C 2.374305 1.451752 -0.908607 0
M  V30 14 S 2.619804 3.292873 -0.695752 0
M  V30 15 C 1.074265 3.496422 0.258612 0
M  V30 16 C 0.754514 4.829045 0.706744 0
M  V30 17 O 1.512538 5.792508 0.445131 0
M  V30 18 N -0.424907 5.078366 1.453399 0
M  V30 19 C -0.662248 6.449614 1.859912 0
M  V30 20 C -1.927331 6.616666 2.641687 0
M  V30 21 C -2.148480 8.071320 3.054729 0
M  V30 22 C -3.092081 6.141509 1.812567 0
M  V30 23 C 0.546879 2.277742 0.333712 0
M  V30 24 C -0.711768 -0.358470 -0.179598 0
M  V30 25 N -1.214019 -1.607167 -0.135063 0
M  V30 26 C -0.352909 -2.666326 -0.111788 0
M  V30 27 N -0.688194 -3.968469 -0.067440 0
M  V30 28 C -0.506734 -6.899868 0.017696 0
M  V30 29 C -0.445595 -8.278931 0.058441 0
M  V30 30 H 2.698920 -10.661043 -0.509143 0
M  V30 31 H 2.270035 -11.052546 1.176548 0
M  V30 32 H 1.676042 -12.139002 -0.076999 0
M  V30 33 H 2.859878 -8.680921 0.042591 0
M  V30 34 H 2.739301 -6.189095 -0.031413 0
M  V30 35 H 2.619373 -1.111155 -0.193724 0
M  V30 36 H 3.013466 0.791023 -1.415553 0
M  V30 37 H -1.047981 4.268936 1.665229 0
M  V30 38 H -0.735984 7.090379 0.941684 0
M  V30 39 H 0.172658 6.785328 2.513339 0
M  V30 40 H -1.856732 6.060192 3.600137 0
M  V30 41 H -1.232087 8.485145 3.495576 0
M  V30 42 H -2.924176 8.064325 3.840118 0
M  V30 43 H -2.542530 8.659535 2.201875 0
M  V30 44 H -3.128102 6.691731 0.867097 0
M  V30 45 H -4.049724 6.178413 2.371688 0
M  V30 46 H -2.931649 5.071074 1.577113 0
M  V30 47 H -0.384574 2.230619 0.875694 0
M  V30 48 H -1.338741 0.522433 -0.199950 0
M  V30 49 H -1.661546 -4.371837 -0.043975 0
M  V30 50 H -1.488179 -6.404738 0.011390 0
M  V30 51 H -1.389876 -8.808885 0.082267 0
M  V30 END ATOM
M  V30 BEGIN BOND
M  V30 1 1 1 2
M  V30 2 1 2 3
M  V30 3 2 3 4
M  V30 4 1 4 5
M  V30 5 2 5 6
M  V30 6 1 6 7
M  V30 7 2 7 8
M  V30 8 1 8 9
M  V30 9 2 9 10
M  V30 10 1 10 11
M  V30 11 1 11 12
M  V30 12 2 12 13
M  V30 13 1 13 14
M  V30 14 1 14 15
M  V30 15 1 15 16
M  V30 16 2 16 17
M  V30 17 1 16 18
M  V30 18 1 18 19
M  V30 19 1 19 20
M  V30 20 1 20 21
M  V30 21 1 20 22
M  V30 22 2 15 23
M  V30 23 2 11 24
M  V30 24 1 24 25
M  V30 25 2 25 26
M  V30 26 1 26 27
M  V30 27 1 6 28
M  V30 28 2 28 29
M  V30 29 1 29 3
M  V30 30 1 27 7
M  V30 31 1 26 9
M  V30 32 1 23 12
M  V30 33 1 1 30
M  V30 34 1 1 31
M  V30 35 1 1 32
M  V30 36 1 4 33
M  V30 37 1 5 34
M  V30 38 1 10 35
M  V30 39 1 13 36
M  V30 40 1 18 37
M  V30 41 1 19 38
M  V30 42 1 19 39
M  V30 43 1 20 40
M  V30 44 1 21 41
M  V30 45 1 21 42
M  V30 46 1 21 43
M  V30 47 1 22 44
M  V30 48 1 22 45
M  V30 49 1 22 46
M  V30 50 1 23 47
M  V30 51 1 24 48
M  V30 52 1 27 49
M  V30 53 1 28 50
M  V30 54 1 29 51
M  V30 END BOND
M  V30 END CTAB
M  END
>  <Dataset>  (281) 
ChEMBL_Kinases

>  <Ligand_Instance>  (281) 
nan

>  <PDB_ID>  (281) 
nan

>  <Standardized_SMILES>  (281) 
COc1ccc(-c2nc3cc(-c4csc(C(=O)NCC(C)C)c4)cnc3[nH]2)cc1

>  <Name>  (281) 
nan

>  <Pocket>  (281) 
nan

>  <ATP_Site>  (281) 
nan

>  <Peripheral>  (281) 
nan

>  <Num_H_Atoms_ProtBoundConf>  (281) 
nan

>  <Num_Resolved_Atoms>  (281) 
nan

>  <Num_Not_Resolved_Atoms>  (281) 
nan

$$$$
CHEMBL4763984
     RDKit          3D

  0  0  0  0  0  0  0  0  0  0999 V3000
M  V30 BEGIN CTAB
M  V30 COUNTS 54 59 0 0 0
M  V30 BEGIN ATOM
M  V30 1 C -0.908349 -3.759085 3.763786 0
M  V30 2 N 0.159918 -3.218967 2.993802 0
M  V30 3 C 1.376096 -4.032193 3.107540 0
M  V30 4 C 2.276359 -3.800515 1.924211 0
M  V30 5 N 2.182459 -2.471747 1.386400 0
M  V30 6 C 3.180044 -1.469243 1.218958 0
M  V30 7 C 4.493098 -1.662361 1.594812 0
M  V30 8 C 5.488306 -0.717439 1.451260 0
M  V30 9 N 5.155846 0.462294 0.912134 0
M  V30 10 C 3.876786 0.683183 0.533100 0
M  V30 11 N 3.283062 1.776921 -0.032273 0
M  V30 12 C 1.964536 1.555358 -0.246890 0
M  V30 13 C 1.067109 2.542778 -0.839262 0
M  V30 14 N 1.477387 3.765181 -1.224020 0
M  V30 15 N 0.464911 4.449822 -1.724847 0
M  V30 16 C -0.598644 3.630392 -1.648064 0
M  V30 17 C -1.923601 3.850162 -2.039015 0
M  V30 18 C -2.805236 2.802499 -1.831548 0
M  V30 19 C -2.463234 1.588424 -1.277342 0
M  V30 20 C -3.437563 0.532067 -1.089093 0
M  V30 21 C -4.751389 0.622875 -1.426841 0
M  V30 22 N -5.670720 -0.360187 -1.255442 0
M  V30 23 C -5.315704 -1.553124 -0.709005 0
M  V30 24 C -3.976520 -1.690345 -0.347344 0
M  V30 25 N -3.677731 -2.961817 0.216460 0
M  V30 26 C -3.055265 -0.667707 -0.533705 0
M  V30 27 N -1.167606 1.419537 -0.912998 0
M  V30 28 C -0.280705 2.390329 -1.089140 0
M  V30 29 N 1.713442 0.306390 0.186236 0
M  V30 30 C 2.864037 -0.243893 0.665619 0
M  V30 31 C 0.833175 -2.193792 0.979032 0
M  V30 32 C -0.112505 -3.234345 1.546226 0
M  V30 33 H -0.742371 -3.491349 4.812217 0
M  V30 34 H -1.837528 -3.198925 3.451783 0
M  V30 35 H -1.062209 -4.838051 3.610736 0
M  V30 36 H 1.011945 -5.087153 3.074203 0
M  V30 37 H 1.847876 -3.871056 4.079687 0
M  V30 38 H 3.315612 -3.951259 2.281316 0
M  V30 39 H 2.102123 -4.573115 1.136195 0
M  V30 40 H 4.813479 -2.596592 2.034740 0
M  V30 41 H 6.509885 -0.917833 1.763364 0
M  V30 42 H 3.854443 2.647084 -0.243320 0
M  V30 43 H 0.436894 5.417984 -2.110606 0
M  V30 44 H -2.209629 4.792173 -2.473787 0
M  V30 45 H -3.808598 3.029691 -2.151388 0
M  V30 46 H -5.138530 1.528080 -1.868584 0
M  V30 47 H -6.057111 -2.328852 -0.577449 0
M  V30 48 H -3.307278 -3.630019 -0.475467 0
M  V30 49 H -3.688523 -3.509571 1.105416 0
M  V30 50 H -2.048363 -0.870253 -0.223051 0
M  V30 51 H 0.711372 -2.061907 -0.113099 0
M  V30 52 H 0.543607 -1.259444 1.545254 0
M  V30 53 H 0.063369 -4.248287 1.132707 0
M  V30 54 H -1.131307 -2.846247 1.365082 0
M  V30 END ATOM
M  V30 BEGIN BOND
M  V30 1 1 1 2
M  V30 2 1 2 3
M  V30 3 1 3 4
M  V30 4 1 4 5
M  V30 5 1 5 6
M  V30 6 2 6 7
M  V30 7 1 7 8
M  V30 8 2 8 9
M  V30 9 1 9 10
M  V30 10 1 10 11
M  V30 11 1 11 12
M  V30 12 1 12 13
M  V30 13 2 13 14
M  V30 14 1 14 15
M  V30 15 1 15 16
M  V30 16 2 16 17
M  V30 17 1 17 18
M  V30 18 2 18 19
M  V30 19 1 19 20
M  V30 20 2 20 21
M  V30 21 1 21 22
M  V30 22 2 22 23
M  V30 23 1 23 24
M  V30 24 1 24 25
M  V30 25 2 24 26
M  V30 26 1 19 27
M  V30 27 2 27 28
M  V30 28 2 12 29
M  V30 29 1 29 30
M  V30 30 1 5 31
M  V30 31 1 31 32
M  V30 32 1 32 2
M  V30 33 1 30 6
M  V30 34 2 30 10
M  V30 35 1 28 13
M  V30 36 1 28 16
M  V30 37 1 26 20
M  V30 38 1 1 33
M  V30 39 1 1 34
M  V30 40 1 1 35
M  V30 41 1 3 36
M  V30 42 1 3 37
M  V30 43 1 4 38
M  V30 44 1 4 39
M  V30 45 1 7 40
M  V30 46 1 8 41
M  V30 47 1 11 42
M  V30 48 1 15 43
M  V30 49 1 17 44
M  V30 50 1 18 45
M  V30 51 1 21 46
M  V30 52 1 23 47
M  V30 53 1 25 48
M  V30 54 1 25 49
M  V30 55 1 26 50
M  V30 56 1 31 51
M  V30 57 1 31 52
M  V30 58 1 32 53
M  V30 59 1 32 54
M  V30 END BOND
M  V30 END CTAB
M  END
>  <Dataset>  (282) 
ChEMBL_Kinases

>  <Ligand_Instance>  (282) 
nan

>  <PDB_ID>  (282) 
nan

>  <Standardized_SMILES>  (282) 
CN1CCN(c2ccnc3[nH]c(-c4n[nH]c5ccc(-c6cncc(N)c6)nc45)nc23)CC1

>  <Name>  (282) 
nan

>  <Pocket>  (282) 
nan

>  <ATP_Site>  (282) 
nan

>  <Peripheral>  (282) 
nan

>  <Num_H_Atoms_ProtBoundConf>  (282) 
nan

>  <Num_Resolved_Atoms>  (282) 
nan

>  <Num_Not_Resolved_Atoms>  (282) 
nan

$$$$
CHEMBL4763392
     RDKit          3D

  0  0  0  0  0  0  0  0  0  0999 V3000
M  V30 BEGIN CTAB
M  V30 COUNTS 33 36 0 0 0
M  V30 BEGIN ATOM
M  V30 1 O 1.821989 -2.499792 1.957040 0
M  V30 2 C 2.847603 -3.203565 1.846294 0
M  V30 3 O 3.164596 -2.742466 3.097486 0
M  V30 4 C 3.302708 -4.060861 0.749539 0
M  V30 5 S 2.331590 -3.903962 -0.771104 0
M  V30 6 C 2.640751 -2.294788 -1.455056 0
M  V30 7 N 3.748657 -2.289383 -2.189108 0
M  V30 8 C 4.260331 -1.261104 -2.838747 0
M  V30 9 N 3.612105 -0.099370 -2.764733 0
M  V30 10 C 2.418657 -0.079158 -1.982649 0
M  V30 11 S 1.189432 1.249195 -1.589339 0
M  V30 12 C 0.172583 0.302685 -0.633281 0
M  V30 13 C -1.054280 0.742559 0.060903 0
M  V30 14 C -1.923710 0.076935 0.824868 0
M  V30 15 C -2.981782 0.726607 1.375396 0
M  V30 16 C -3.986086 0.247389 2.194027 0
M  V30 17 C -4.960444 1.115117 2.640398 0
M  V30 18 C -5.055392 2.449756 2.357132 0
M  V30 19 C -4.082965 2.988302 1.544504 0
M  V30 20 C -3.097870 2.093372 1.097906 0
M  V30 21 S -1.603498 2.380114 0.006612 0
M  V30 22 C 0.719715 -0.960914 -0.602812 0
M  V30 23 C 1.870045 -1.173900 -1.287008 0
M  V30 24 H 2.966979 -3.242432 3.982843 0
M  V30 25 H 3.274229 -5.129773 1.101469 0
M  V30 26 H 4.381441 -3.823318 0.569455 0
M  V30 27 H 5.114178 -1.083539 -3.454178 0
M  V30 28 H -1.745743 -0.978629 0.969247 0
M  V30 29 H -4.062074 -0.799596 2.515756 0
M  V30 30 H -5.793863 0.814855 3.298386 0
M  V30 31 H -5.769015 3.188702 2.655801 0
M  V30 32 H -4.001257 4.012149 1.215663 0
M  V30 33 H 0.221371 -1.743257 -0.057604 0
M  V30 END ATOM
M  V30 BEGIN BOND
M  V30 1 2 1 2
M  V30 2 1 2 3
M  V30 3 1 2 4
M  V30 4 1 4 5
M  V30 5 1 5 6
M  V30 6 2 6 7
M  V30 7 1 7 8
M  V30 8 2 8 9
M  V30 9 1 9 10
M  V30 10 1 10 11
M  V30 11 1 11 12
M  V30 12 1 12 13
M  V30 13 2 13 14
M  V30 14 1 14 15
M  V30 15 2 15 16
M  V30 16 1 16 17
M  V30 17 2 17 18
M  V30 18 1 18 19
M  V30 19 2 19 20
M  V30 20 1 20 21
M  V30 21 2 12 22
M  V30 22 1 22 23
M  V30 23 1 23 6
M  V30 24 2 23 10
M  V30 25 1 21 13
M  V30 26 1 20 15
M  V30 27 1 3 24
M  V30 28 1 4 25
M  V30 29 1 4 26
M  V30 30 1 8 27
M  V30 31 1 14 28
M  V30 32 1 16 29
M  V30 33 1 17 30
M  V30 34 1 18 31
M  V30 35 1 19 32
M  V30 36 1 22 33
M  V30 END BOND
M  V30 END CTAB
M  END
>  <Dataset>  (283) 
ChEMBL_Kinases

>  <Ligand_Instance>  (283) 
nan

>  <PDB_ID>  (283) 
nan

>  <Standardized_SMILES>  (283) 
O=C(O)CSc1ncnc2sc(-c3cc4ccccc4s3)cc12

>  <Name>  (283) 
nan

>  <Pocket>  (283) 
nan

>  <ATP_Site>  (283) 
nan

>  <Peripheral>  (283) 
nan

>  <Num_H_Atoms_ProtBoundConf>  (283) 
nan

>  <Num_Resolved_Atoms>  (283) 
nan

>  <Num_Not_Resolved_Atoms>  (283) 
nan

$$$$
CHEMBL3125726
     RDKit          3D

  0  0  0  0  0  0  0  0  0  0999 V3000
M  V30 BEGIN CTAB
M  V30 COUNTS 54 57 0 0 0
M  V30 BEGIN ATOM
M  V30 1 C -0.436422 -11.073704 -1.748833 0
M  V30 2 O -1.239106 -9.921254 -1.650851 0
M  V30 3 C -0.726052 -8.646661 -1.472972 0
M  V30 4 C 0.633512 -8.453569 -1.384159 0
M  V30 5 C 1.040780 -7.127192 -1.204319 0
M  V30 6 C 0.155644 -6.076132 -1.119998 0
M  V30 7 C 0.701342 -4.736235 -0.920456 0
M  V30 8 N 0.100842 -3.537201 -0.818154 0
M  V30 9 C 0.997847 -2.552401 -0.637393 0
M  V30 10 C 1.003637 -1.181989 -0.474625 0
M  V30 11 C 2.169191 -0.464880 -0.309291 0
M  V30 12 C 2.212722 0.981478 -0.136691 0
M  V30 13 C 3.308020 1.674600 -0.614542 0
M  V30 14 S 2.913857 3.443155 -0.147106 0
M  V30 15 C 1.315633 3.020250 0.635401 0
M  V30 16 C 0.653072 4.211020 1.161747 0
M  V30 17 O 1.238190 5.302861 1.019131 0
M  V30 18 N -0.606304 4.224342 1.821962 0
M  V30 19 C -0.971477 5.570047 2.216787 0
M  V30 20 C -2.292095 5.632585 2.912026 0
M  V30 21 C -2.260435 4.780691 4.171914 0
M  V30 22 C -2.466941 7.073947 3.400103 0
M  V30 23 C -3.428404 5.224155 2.016248 0
M  V30 24 C 1.218697 1.640048 0.484814 0
M  V30 25 C 3.378691 -1.178437 -0.309983 0
M  V30 26 N 3.381239 -2.514349 -0.468329 0
M  V30 27 C 2.236576 -3.199553 -0.628788 0
M  V30 28 N 2.044045 -4.520313 -0.801108 0
M  V30 29 C -1.203623 -6.275174 -1.209557 0
M  V30 30 C -1.632943 -7.601490 -1.390530 0
M  V30 31 H 0.137657 -11.114907 -2.691547 0
M  V30 32 H 0.343947 -11.113229 -0.933497 0
M  V30 33 H -1.002822 -12.003788 -1.642507 0
M  V30 34 H 1.293256 -9.288181 -1.453308 0
M  V30 35 H 2.139377 -7.060667 -1.143535 0
M  V30 36 H 0.058790 -0.680524 -0.480071 0
M  V30 37 H 4.172659 1.337308 -1.121067 0
M  V30 38 H -1.061040 3.284820 1.916945 0
M  V30 39 H -0.202234 5.993588 2.872346 0
M  V30 40 H -1.045789 6.154308 1.279267 0
M  V30 41 H -2.695425 3.783200 3.865538 0
M  V30 42 H -2.821054 5.203309 5.007523 0
M  V30 43 H -1.215858 4.575880 4.421316 0
M  V30 44 H -1.464265 7.355672 3.801151 0
M  V30 45 H -3.247859 7.141697 4.176085 0
M  V30 46 H -2.643115 7.683209 2.512487 0
M  V30 47 H -3.703623 6.069884 1.347176 0
M  V30 48 H -3.106473 4.324892 1.421317 0
M  V30 49 H -4.341321 4.917454 2.558376 0
M  V30 50 H 0.301919 1.281364 0.915761 0
M  V30 51 H 4.316766 -0.618448 -0.179539 0
M  V30 52 H 2.855082 -5.204858 -0.826004 0
M  V30 53 H -1.922022 -5.505666 -1.146296 0
M  V30 54 H -2.695329 -7.758412 -1.461662 0
M  V30 END ATOM
M  V30 BEGIN BOND
M  V30 1 1 1 2
M  V30 2 1 2 3
M  V30 3 2 3 4
M  V30 4 1 4 5
M  V30 5 2 5 6
M  V30 6 1 6 7
M  V30 7 2 7 8
M  V30 8 1 8 9
M  V30 9 2 9 10
M  V30 10 1 10 11
M  V30 11 1 11 12
M  V30 12 2 12 13
M  V30 13 1 13 14
M  V30 14 1 14 15
M  V30 15 1 15 16
M  V30 16 2 16 17
M  V30 17 1 16 18
M  V30 18 1 18 19
M  V30 19 1 19 20
M  V30 20 1 20 21
M  V30 21 1 20 22
M  V30 22 1 20 23
M  V30 23 2 15 24
M  V30 24 2 11 25
M  V30 25 1 25 26
M  V30 26 2 26 27
M  V30 27 1 27 28
M  V30 28 1 6 29
M  V30 29 2 29 30
M  V30 30 1 30 3
M  V30 31 1 28 7
M  V30 32 1 27 9
M  V30 33 1 24 12
M  V30 34 1 1 31
M  V30 35 1 1 32
M  V30 36 1 1 33
M  V30 37 1 4 34
M  V30 38 1 5 35
M  V30 39 1 10 36
M  V30 40 1 13 37
M  V30 41 1 18 38
M  V30 42 1 19 39
M  V30 43 1 19 40
M  V30 44 1 21 41
M  V30 45 1 21 42
M  V30 46 1 21 43
M  V30 47 1 22 44
M  V30 48 1 22 45
M  V30 49 1 22 46
M  V30 50 1 23 47
M  V30 51 1 23 48
M  V30 52 1 23 49
M  V30 53 1 24 50
M  V30 54 1 25 51
M  V30 55 1 28 52
M  V30 56 1 29 53
M  V30 57 1 30 54
M  V30 END BOND
M  V30 END CTAB
M  END
>  <Dataset>  (284) 
ChEMBL_Kinases

>  <Ligand_Instance>  (284) 
nan

>  <PDB_ID>  (284) 
nan

>  <Standardized_SMILES>  (284) 
COc1ccc(-c2nc3cc(-c4csc(C(=O)NCC(C)(C)C)c4)cnc3[nH]2)cc1

>  <Name>  (284) 
nan

>  <Pocket>  (284) 
nan

>  <ATP_Site>  (284) 
nan

>  <Peripheral>  (284) 
nan

>  <Num_H_Atoms_ProtBoundConf>  (284) 
nan

>  <Num_Resolved_Atoms>  (284) 
nan

>  <Num_Not_Resolved_Atoms>  (284) 
nan

$$$$
CHEMBL4763852
     RDKit          3D

  0  0  0  0  0  0  0  0  0  0999 V3000
M  V30 BEGIN CTAB
M  V30 COUNTS 47 52 0 0 0
M  V30 BEGIN ATOM
M  V30 1 N 2.584906 -3.073410 3.206196 0
M  V30 2 C 3.141952 -1.773944 3.209224 0
M  V30 3 C 4.305535 -1.608149 3.916151 0
M  V30 4 N 4.817252 -0.360691 3.902552 0
M  V30 5 C 4.188375 0.627260 3.222001 0
M  V30 6 C 3.029453 0.469059 2.515877 0
M  V30 7 C 2.363216 1.543850 1.790752 0
M  V30 8 C 2.856995 2.830838 1.765062 0
M  V30 9 C 2.230591 3.854210 1.085527 0
M  V30 10 C 1.057475 3.615858 0.390339 0
M  V30 11 N 0.263657 4.418116 -0.338800 0
M  V30 12 N -0.732558 3.636382 -0.774104 0
M  V30 13 C -0.574942 2.399372 -0.340566 0
M  V30 14 C -1.468044 1.282086 -0.619192 0
M  V30 15 N -1.421670 -0.004243 -0.246449 0
M  V30 16 C -2.477979 -0.683270 -0.748213 0
M  V30 17 C -2.887737 -2.020158 -0.656802 0
M  V30 18 C -2.061586 -2.960013 0.126703 0
M  V30 19 C -0.748236 -2.899191 -0.355996 0
M  V30 20 C 0.226123 -3.712721 0.236355 0
M  V30 21 C -0.108644 -4.556854 1.276056 0
M  V30 22 C -1.430430 -4.587201 1.727505 0
M  V30 23 C -2.389548 -3.800983 1.161002 0
M  V30 24 F -3.695226 -3.716854 1.482052 0
M  V30 25 N -4.006689 -2.379200 -1.284382 0
M  V30 26 C -4.738191 -1.488903 -1.994958 0
M  V30 27 C -4.361507 -0.145833 -2.110095 0
M  V30 28 C -3.206824 0.250448 -1.468774 0
M  V30 29 N -2.586132 1.440920 -1.384979 0
M  V30 30 C 0.581931 2.321317 0.429393 0
M  V30 31 N 1.214903 1.331286 1.104253 0
M  V30 32 C 2.474873 -0.798505 2.507684 0
M  V30 33 H 1.809801 -3.465715 3.762926 0
M  V30 34 H 2.332738 -4.060981 3.046710 0
M  V30 35 H 4.765667 -2.454723 4.448883 0
M  V30 36 H 4.670140 1.581496 3.269978 0
M  V30 37 H 3.764132 3.096589 2.282494 0
M  V30 38 H 2.625913 4.882636 1.068090 0
M  V30 39 H 0.432512 5.421969 -0.498991 0
M  V30 40 H -0.339782 -2.302649 -1.147199 0
M  V30 41 H 1.280345 -3.723507 -0.085661 0
M  V30 42 H 0.597048 -5.218465 1.782730 0
M  V30 43 H -1.771319 -5.225600 2.540432 0
M  V30 44 H -5.647896 -1.790079 -2.500735 0
M  V30 45 H -4.965846 0.538546 -2.684551 0
M  V30 46 H -2.958746 2.308715 -1.857276 0
M  V30 47 H 1.554087 -0.983380 1.962393 0
M  V30 END ATOM
M  V30 BEGIN BOND
M  V30 1 1 1 2
M  V30 2 2 2 3
M  V30 3 1 3 4
M  V30 4 2 4 5
M  V30 5 1 5 6
M  V30 6 1 6 7
M  V30 7 2 7 8
M  V30 8 1 8 9
M  V30 9 2 9 10
M  V30 10 1 10 11
M  V30 11 1 11 12
M  V30 12 2 12 13
M  V30 13 1 13 14
M  V30 14 2 14 15
M  V30 15 1 15 16
M  V30 16 2 16 17
M  V30 17 1 17 18
M  V30 18 2 18 19
M  V30 19 1 19 20
M  V30 20 2 20 21
M  V30 21 1 21 22
M  V30 22 2 22 23
M  V30 23 1 23 24
M  V30 24 1 17 25
M  V30 25 2 25 26
M  V30 26 1 26 27
M  V30 27 2 27 28
M  V30 28 1 28 29
M  V30 29 1 13 30
M  V30 30 2 30 31
M  V30 31 2 6 32
M  V30 32 1 32 2
M  V30 33 1 31 7
M  V30 34 1 30 10
M  V30 35 1 29 14
M  V30 36 1 28 16
M  V30 37 1 23 18
M  V30 38 1 1 33
M  V30 39 1 1 34
M  V30 40 1 3 35
M  V30 41 1 5 36
M  V30 42 1 8 37
M  V30 43 1 9 38
M  V30 44 1 11 39
M  V30 45 1 19 40
M  V30 46 1 20 41
M  V30 47 1 21 42
M  V30 48 1 22 43
M  V30 49 1 26 44
M  V30 50 1 27 45
M  V30 51 1 29 46
M  V30 52 1 32 47
M  V30 END BOND
M  V30 END CTAB
M  END
>  <Dataset>  (285) 
ChEMBL_Kinases

>  <Ligand_Instance>  (285) 
nan

>  <PDB_ID>  (285) 
nan

>  <Standardized_SMILES>  (285) 
Nc1cncc(-c2ccc3[nH]nc(-c4nc5c(-c6ccccc6F)nccc5[nH]4)c3n2)c1

>  <Name>  (285) 
nan

>  <Pocket>  (285) 
nan

>  <ATP_Site>  (285) 
nan

>  <Peripheral>  (285) 
nan

>  <Num_H_Atoms_ProtBoundConf>  (285) 
nan

>  <Num_Resolved_Atoms>  (285) 
nan

>  <Num_Not_Resolved_Atoms>  (285) 
nan

$$$$
CHEMBL3125724
     RDKit          3D

  0  0  0  0  0  0  0  0  0  0999 V3000
M  V30 BEGIN CTAB
M  V30 COUNTS 65 69 0 0 0
M  V30 BEGIN ATOM
M  V30 1 C 6.410654 4.124612 5.708156 0
M  V30 2 O 6.652157 3.806167 4.345312 0
M  V30 3 C 5.599386 3.406372 3.530151 0
M  V30 4 C 4.283025 3.284231 3.938318 0
M  V30 5 C 3.286732 2.879891 3.068615 0
M  V30 6 C 3.566569 2.579026 1.746798 0
M  V30 7 C 2.568044 2.147194 0.774580 0
M  V30 8 N 1.272689 2.004436 1.090816 0
M  V30 9 C 0.578461 1.593889 -0.002229 0
M  V30 10 C -0.762608 1.283066 -0.291612 0
M  V30 11 O -1.519297 1.442196 0.796015 0
M  V30 12 C -1.802711 0.724473 1.921604 0
M  V30 13 C -2.358150 -0.647723 1.821901 0
M  V30 14 C -1.464136 -1.649018 1.139649 0
M  V30 15 N -2.140347 -2.954195 1.108998 0
M  V30 16 C -1.318081 -3.918762 0.469823 0
M  V30 17 O -0.181871 -3.554784 0.036459 0
M  V30 18 C -1.816122 -5.333052 0.327116 0
M  V30 19 C -3.095642 -5.398896 -0.470841 0
M  V30 20 C -2.743507 -5.921161 -1.846513 0
M  V30 21 C -1.224092 -5.918411 -1.916811 0
M  V30 22 C -0.790558 -6.121582 -0.480753 0
M  V30 23 C -1.024202 0.902503 -1.567639 0
M  V30 24 C -2.353438 0.599139 -2.004284 0
M  V30 25 C -2.728229 1.494525 -3.203600 0
M  V30 26 S -4.485506 0.947074 -3.652212 0
M  V30 27 C -4.570893 -0.354695 -2.284338 0
M  V30 28 C -5.781434 -1.134570 -2.154521 0
M  V30 29 O -6.689395 -0.888374 -2.962921 0
M  V30 30 O -5.867593 -2.081886 -1.173393 0
M  V30 31 C -3.337816 -0.241131 -1.674670 0
M  V30 32 C 0.006152 0.834866 -2.501221 0
M  V30 33 N 1.301277 1.125519 -2.252137 0
M  V30 34 C 1.572261 1.508138 -0.982994 0
M  V30 35 N 2.776197 1.842128 -0.515984 0
M  V30 36 C 4.893857 2.706999 1.353473 0
M  V30 37 C 5.909799 3.108333 2.198832 0
M  V30 38 H 7.343004 4.036879 6.316825 0
M  V30 39 H 5.907777 5.106403 5.829101 0
M  V30 40 H 5.710630 3.371321 6.167884 0
M  V30 41 H 4.056333 3.520085 4.979312 0
M  V30 42 H 2.262433 2.789167 3.402497 0
M  V30 43 H -0.926367 0.660016 2.639148 0
M  V30 44 H -2.560146 1.324776 2.533929 0
M  V30 45 H -2.477693 -1.060639 2.880292 0
M  V30 46 H -3.394867 -0.681749 1.429669 0
M  V30 47 H -1.183709 -1.407911 0.120088 0
M  V30 48 H -0.518625 -1.803348 1.706019 0
M  V30 49 H -3.088426 -3.255084 1.471376 0
M  V30 50 H -1.926550 -5.746961 1.348384 0
M  V30 51 H -3.612245 -4.444719 -0.593361 0
M  V30 52 H -3.747896 -6.166790 0.018372 0
M  V30 53 H -3.163552 -5.290503 -2.660274 0
M  V30 54 H -3.126050 -6.955266 -2.006818 0
M  V30 55 H -0.939054 -6.759019 -2.584602 0
M  V30 56 H -0.833283 -4.968539 -2.312030 0
M  V30 57 H -0.718896 -7.176336 -0.182283 0
M  V30 58 H 0.221715 -5.650122 -0.319025 0
M  V30 59 H -2.149375 2.272896 -3.707908 0
M  V30 60 H -6.701219 -2.664764 -1.031492 0
M  V30 61 H -3.283942 -0.947086 -0.892012 0
M  V30 62 H -0.237923 0.525152 -3.513427 0
M  V30 63 H 3.692773 1.871756 -1.009511 0
M  V30 64 H 5.168145 2.480571 0.316634 0
M  V30 65 H 6.924315 3.185473 1.820057 0
M  V30 END ATOM
M  V30 BEGIN BOND
M  V30 1 1 1 2
M  V30 2 1 2 3
M  V30 3 2 3 4
M  V30 4 1 4 5
M  V30 5 2 5 6
M  V30 6 1 6 7
M  V30 7 2 7 8
M  V30 8 1 8 9
M  V30 9 2 9 10
M  V30 10 1 10 11
M  V30 11 1 11 12
M  V30 12 1 12 13
M  V30 13 1 13 14
M  V30 14 1 14 15
M  V30 15 1 15 16
M  V30 16 2 16 17
M  V30 17 1 16 18
M  V30 18 1 18 19
M  V30 19 1 19 20
M  V30 20 1 20 21
M  V30 21 1 21 22
M  V30 22 1 10 23
M  V30 23 1 23 24
M  V30 24 2 24 25
M  V30 25 1 25 26
M  V30 26 1 26 27
M  V30 27 1 27 28
M  V30 28 2 28 29
M  V30 29 1 28 30
M  V30 30 2 27 31
M  V30 31 2 23 32
M  V30 32 1 32 33
M  V30 33 2 33 34
M  V30 34 1 34 35
M  V30 35 1 6 36
M  V30 36 2 36 37
M  V30 37 1 37 3
M  V30 38 1 35 7
M  V30 39 1 34 9
M  V30 40 1 22 18
M  V30 41 1 31 24
M  V30 42 1 1 38
M  V30 43 1 1 39
M  V30 44 1 1 40
M  V30 45 1 4 41
M  V30 46 1 5 42
M  V30 47 1 12 43
M  V30 48 1 12 44
M  V30 49 1 13 45
M  V30 50 1 13 46
M  V30 51 1 14 47
M  V30 52 1 14 48
M  V30 53 1 15 49
M  V30 54 1 18 50
M  V30 55 1 19 51
M  V30 56 1 19 52
M  V30 57 1 20 53
M  V30 58 1 20 54
M  V30 59 1 21 55
M  V30 60 1 21 56
M  V30 61 1 22 57
M  V30 62 1 22 58
M  V30 63 1 25 59
M  V30 64 1 30 60
M  V30 65 1 31 61
M  V30 66 1 32 62
M  V30 67 1 35 63
M  V30 68 1 36 64
M  V30 69 1 37 65
M  V30 END BOND
M  V30 END CTAB
M  END
>  <Dataset>  (286) 
ChEMBL_Kinases

>  <Ligand_Instance>  (286) 
nan

>  <PDB_ID>  (286) 
nan

>  <Standardized_SMILES>  (286) 
COc1ccc(-c2nc3c(OCCCNC(=O)C4CCCC4)c(-c4csc(C(=O)O)c4)cnc3[nH]2)cc1

>  <Name>  (286) 
nan

>  <Pocket>  (286) 
nan

>  <ATP_Site>  (286) 
nan

>  <Peripheral>  (286) 
nan

>  <Num_H_Atoms_ProtBoundConf>  (286) 
nan

>  <Num_Resolved_Atoms>  (286) 
nan

>  <Num_Not_Resolved_Atoms>  (286) 
nan

$$$$
CHEMBL3125723
     RDKit          3D

  0  0  0  0  0  0  0  0  0  0999 V3000
M  V30 BEGIN CTAB
M  V30 COUNTS 60 63 0 0 0
M  V30 BEGIN ATOM
M  V30 1 C 1.294774 -5.026881 7.379030 0
M  V30 2 O 1.006946 -3.712432 6.932122 0
M  V30 3 C 1.341900 -3.391468 5.621979 0
M  V30 4 C 1.939772 -4.310577 4.759067 0
M  V30 5 C 2.276699 -4.000306 3.453645 0
M  V30 6 C 2.003176 -2.725342 3.003393 0
M  V30 7 C 2.367890 -2.423015 1.623858 0
M  V30 8 N 2.210537 -1.271239 0.953011 0
M  V30 9 C 2.663343 -1.352065 -0.309614 0
M  V30 10 C 2.686801 -0.393875 -1.300963 0
M  V30 11 N 2.190085 0.928901 -1.202739 0
M  V30 12 C 1.495625 1.738496 -0.241022 0
M  V30 13 C -0.005518 1.597023 -0.234217 0
M  V30 14 C -0.525929 0.258055 0.055244 0
M  V30 15 N -1.977861 0.138645 0.049282 0
M  V30 16 C -2.662960 0.464092 -1.178437 0
M  V30 17 O -2.096787 0.837526 -2.224127 0
M  V30 18 C -4.116592 0.356058 -1.222574 0
M  V30 19 C -4.624324 0.739553 -2.596292 0
M  V30 20 C -5.644362 1.816039 -2.439172 0
M  V30 21 C -6.071446 1.729582 -1.011687 0
M  V30 22 C -4.850504 1.232334 -0.234248 0
M  V30 23 C 3.242320 -0.832469 -2.484503 0
M  V30 24 C 3.357295 0.048084 -3.663845 0
M  V30 25 N 2.335925 0.431602 -4.604825 0
M  V30 26 S 4.840585 0.664404 -3.929057 0
M  V30 27 C 3.714434 -2.114937 -2.615603 0
M  V30 28 N 3.648562 -2.970587 -1.601685 0
M  V30 29 C 3.124468 -2.646274 -0.397227 0
M  V30 30 N 2.943765 -3.286790 0.770109 0
M  V30 31 C 1.413839 -1.770931 3.806053 0
M  V30 32 C 1.096138 -2.129543 5.102283 0
M  V30 33 H 0.795788 -5.243145 8.345562 0
M  V30 34 H 0.861526 -5.745416 6.653516 0
M  V30 35 H 2.381586 -5.212711 7.441975 0
M  V30 36 H 2.150766 -5.314907 5.127298 0
M  V30 37 H 2.738186 -4.753855 2.831202 0
M  V30 38 H 2.362418 1.513437 -2.084756 0
M  V30 39 H 1.824669 1.498875 0.809085 0
M  V30 40 H 1.779310 2.800844 -0.397676 0
M  V30 41 H -0.323322 2.307378 0.596602 0
M  V30 42 H -0.458875 2.093206 -1.127311 0
M  V30 43 H -0.052585 -0.500828 -0.593921 0
M  V30 44 H -0.238377 -0.034971 1.107652 0
M  V30 45 H -2.576375 -0.168421 0.874021 0
M  V30 46 H -4.500822 -0.673965 -1.040846 0
M  V30 47 H -3.769400 1.138573 -3.216024 0
M  V30 48 H -4.993159 -0.128242 -3.178802 0
M  V30 49 H -6.518639 1.643751 -3.116285 0
M  V30 50 H -5.200337 2.806957 -2.715990 0
M  V30 51 H -6.368260 2.721385 -0.619863 0
M  V30 52 H -6.913434 0.995553 -0.943381 0
M  V30 53 H -5.251153 0.670317 0.634492 0
M  V30 54 H -4.255950 2.068404 0.160356 0
M  V30 55 H 1.345743 0.174928 -4.341993 0
M  V30 56 H 1.313353 0.268844 -4.524366 0
M  V30 57 H 4.137768 -2.432261 -3.534665 0
M  V30 58 H 3.229021 -4.280040 0.905049 0
M  V30 59 H 1.209327 -0.777914 3.429879 0
M  V30 60 H 0.629309 -1.402401 5.766820 0
M  V30 END ATOM
M  V30 BEGIN BOND
M  V30 1 1 1 2
M  V30 2 1 2 3
M  V30 3 2 3 4
M  V30 4 1 4 5
M  V30 5 2 5 6
M  V30 6 1 6 7
M  V30 7 2 7 8
M  V30 8 1 8 9
M  V30 9 2 9 10
M  V30 10 1 10 11
M  V30 11 1 11 12
M  V30 12 1 12 13
M  V30 13 1 13 14
M  V30 14 1 14 15
M  V30 15 1 15 16
M  V30 16 2 16 17
M  V30 17 1 16 18
M  V30 18 1 18 19
M  V30 19 1 19 20
M  V30 20 1 20 21
M  V30 21 1 21 22
M  V30 22 1 10 23
M  V30 23 1 23 24
M  V30 24 1 24 25
M  V30 25 2 24 26
M  V30 26 2 23 27
M  V30 27 1 27 28
M  V30 28 2 28 29
M  V30 29 1 29 30
M  V30 30 1 6 31
M  V30 31 2 31 32
M  V30 32 1 32 3
M  V30 33 1 30 7
M  V30 34 1 29 9
M  V30 35 1 22 18
M  V30 36 1 1 33
M  V30 37 1 1 34
M  V30 38 1 1 35
M  V30 39 1 4 36
M  V30 40 1 5 37
M  V30 41 1 11 38
M  V30 42 1 12 39
M  V30 43 1 12 40
M  V30 44 1 13 41
M  V30 45 1 13 42
M  V30 46 1 14 43
M  V30 47 1 14 44
M  V30 48 1 15 45
M  V30 49 1 18 46
M  V30 50 1 19 47
M  V30 51 1 19 48
M  V30 52 1 20 49
M  V30 53 1 20 50
M  V30 54 1 21 51
M  V30 55 1 21 52
M  V30 56 1 22 53
M  V30 57 1 22 54
M  V30 58 1 25 55
M  V30 59 1 25 56
M  V30 60 1 27 57
M  V30 61 1 30 58
M  V30 62 1 31 59
M  V30 63 1 32 60
M  V30 END BOND
M  V30 END CTAB
M  END
>  <Dataset>  (287) 
ChEMBL_Kinases

>  <Ligand_Instance>  (287) 
nan

>  <PDB_ID>  (287) 
nan

>  <Standardized_SMILES>  (287) 
COc1ccc(-c2nc3c(NCCCNC(=O)C4CCCC4)c(C(N)=S)cnc3[nH]2)cc1

>  <Name>  (287) 
nan

>  <Pocket>  (287) 
nan

>  <ATP_Site>  (287) 
nan

>  <Peripheral>  (287) 
nan

>  <Num_H_Atoms_ProtBoundConf>  (287) 
nan

>  <Num_Resolved_Atoms>  (287) 
nan

>  <Num_Not_Resolved_Atoms>  (287) 
nan

$$$$
CHEMBL4763741
     RDKit          3D

  0  0  0  0  0  0  0  0  0  0999 V3000
M  V30 BEGIN CTAB
M  V30 COUNTS 53 58 0 0 0
M  V30 BEGIN ATOM
M  V30 1 N 0.247042 -1.667858 5.338543 0
M  V30 2 C 0.995136 -2.666213 4.623646 0
M  V30 3 C 1.584353 -3.664744 5.373354 0
M  V30 4 N 2.267368 -4.567543 4.666737 0
M  V30 5 C 2.386509 -4.525344 3.308154 0
M  V30 6 C 1.798702 -3.528828 2.557932 0
M  V30 7 C 1.978854 -3.565471 1.124975 0
M  V30 8 C 1.445604 -2.632553 0.265671 0
M  V30 9 C 1.622856 -2.678113 -1.085369 0
M  V30 10 C 1.192766 -1.872106 -2.109903 0
M  V30 11 C 0.395962 -0.683793 -2.121253 0
M  V30 12 C -0.232083 0.104386 -1.211618 0
M  V30 13 C -0.889382 1.174445 -1.776410 0
M  V30 14 C -1.645459 2.213461 -1.239102 0
M  V30 15 N -1.842240 2.279191 0.167114 0
M  V30 16 C -0.754084 2.393757 1.084330 0
M  V30 17 C -1.034005 1.582634 2.306259 0
M  V30 18 C -2.098079 0.546512 2.158852 0
M  V30 19 C -3.358675 1.016454 1.517155 0
M  V30 20 C -3.209226 2.225639 0.658104 0
M  V30 21 C -2.156878 3.121162 -2.143353 0
M  V30 22 N -1.935963 3.005620 -3.463751 0
M  V30 23 C -1.206017 1.998233 -3.955991 0
M  V30 24 C -0.649647 1.037728 -3.139170 0
M  V30 25 N 0.106629 -0.063399 -3.293982 0
M  V30 26 N 1.715664 -2.475948 -3.191163 0
M  V30 27 N 2.406611 -3.554049 -2.886379 0
M  V30 28 C 2.390272 -3.743328 -1.564783 0
M  V30 29 C 2.935229 -4.689125 -0.733619 0
M  V30 30 N 2.708706 -4.568527 0.607063 0
M  V30 31 C 1.089875 -2.585623 3.252355 0
M  V30 32 H -0.687884 -1.961752 5.679166 0
M  V30 33 H 0.440416 -0.671991 5.603416 0
M  V30 34 H 1.491943 -3.699716 6.440955 0
M  V30 35 H 2.979760 -5.343686 2.905911 0
M  V30 36 H 0.876313 -1.852786 0.685853 0
M  V30 37 H -0.236288 -0.058441 -0.165451 0
M  V30 38 H 0.213408 2.174153 0.591675 0
M  V30 39 H -0.699118 3.483840 1.373997 0
M  V30 40 H -1.205583 2.206384 3.210137 0
M  V30 41 H -0.079760 1.023552 2.533521 0
M  V30 42 H -2.374974 0.226699 3.206047 0
M  V30 43 H -1.726567 -0.397897 1.691429 0
M  V30 44 H -4.195110 1.163420 2.259026 0
M  V30 45 H -3.733833 0.189860 0.849601 0
M  V30 46 H -3.377401 3.122998 1.317625 0
M  V30 47 H -3.946411 2.275851 -0.169362 0
M  V30 48 H -2.742466 3.913681 -1.651659 0
M  V30 49 H -1.039939 1.920339 -5.004078 0
M  V30 50 H 0.373819 -0.301985 -4.279431 0
M  V30 51 H 2.870799 -4.125693 -3.626013 0
M  V30 52 H 3.509694 -5.471853 -1.183169 0
M  V30 53 H 0.618849 -1.795617 2.704012 0
M  V30 END ATOM
M  V30 BEGIN BOND
M  V30 1 1 1 2
M  V30 2 2 2 3
M  V30 3 1 3 4
M  V30 4 2 4 5
M  V30 5 1 5 6
M  V30 6 1 6 7
M  V30 7 2 7 8
M  V30 8 1 8 9
M  V30 9 1 9 10
M  V30 10 1 10 11
M  V30 11 2 11 12
M  V30 12 1 12 13
M  V30 13 2 13 14
M  V30 14 1 14 15
M  V30 15 1 15 16
M  V30 16 1 16 17
M  V30 17 1 17 18
M  V30 18 1 18 19
M  V30 19 1 19 20
M  V30 20 1 14 21
M  V30 21 2 21 22
M  V30 22 1 22 23
M  V30 23 2 23 24
M  V30 24 1 24 25
M  V30 25 2 10 26
M  V30 26 1 26 27
M  V30 27 1 27 28
M  V30 28 1 28 29
M  V30 29 2 29 30
M  V30 30 2 6 31
M  V30 31 1 31 2
M  V30 32 1 30 7
M  V30 33 2 28 9
M  V30 34 1 25 11
M  V30 35 1 24 13
M  V30 36 1 20 15
M  V30 37 1 1 32
M  V30 38 1 1 33
M  V30 39 1 3 34
M  V30 40 1 5 35
M  V30 41 1 8 36
M  V30 42 1 12 37
M  V30 43 1 16 38
M  V30 44 1 16 39
M  V30 45 1 17 40
M  V30 46 1 17 41
M  V30 47 1 18 42
M  V30 48 1 18 43
M  V30 49 1 19 44
M  V30 50 1 19 45
M  V30 51 1 20 46
M  V30 52 1 20 47
M  V30 53 1 21 48
M  V30 54 1 23 49
M  V30 55 1 25 50
M  V30 56 1 27 51
M  V30 57 1 29 52
M  V30 58 1 31 53
M  V30 END BOND
M  V30 END CTAB
M  END
>  <Dataset>  (288) 
ChEMBL_Kinases

>  <Ligand_Instance>  (288) 
nan

>  <PDB_ID>  (288) 
nan

>  <Standardized_SMILES>  (288) 
Nc1cncc(-c2cc3c(-c4cc5c(N6CCCCC6)cncc5[nH]4)n[nH]c3cn2)c1

>  <Name>  (288) 
nan

>  <Pocket>  (288) 
nan

>  <ATP_Site>  (288) 
nan

>  <Peripheral>  (288) 
nan

>  <Num_H_Atoms_ProtBoundConf>  (288) 
nan

>  <Num_Resolved_Atoms>  (288) 
nan

>  <Num_Not_Resolved_Atoms>  (288) 
nan

$$$$
CHEMBL3125722
     RDKit          3D

  0  0  0  0  0  0  0  0  0  0999 V3000
M  V30 BEGIN CTAB
M  V30 COUNTS 65 69 0 0 0
M  V30 BEGIN ATOM
M  V30 1 C 6.576643 -1.416462 2.734284 0
M  V30 2 O 6.547934 -0.548097 1.609971 0
M  V30 3 C 5.322703 -0.128007 1.138479 0
M  V30 4 C 5.308276 0.724502 0.034642 0
M  V30 5 C 4.143068 1.206020 -0.520892 0
M  V30 6 C 2.935432 0.837387 0.028732 0
M  V30 7 C 1.722735 1.362991 -0.584285 0
M  V30 8 N 0.463510 1.111193 -0.187386 0
M  V30 9 C -0.406784 1.758256 -0.979050 0
M  V30 10 C -1.783186 1.829323 -0.995301 0
M  V30 11 N -2.634617 1.177096 -0.095757 0
M  V30 12 C -3.309359 -0.062256 0.064165 0
M  V30 13 C -2.447790 -1.265539 0.323488 0
M  V30 14 C -1.639274 -1.199214 1.573266 0
M  V30 15 N -0.825048 -2.405599 1.752123 0
M  V30 16 C -1.449953 -3.677306 1.872376 0
M  V30 17 O -2.691257 -3.879894 1.842248 0
M  V30 18 C -0.505840 -4.818076 2.045596 0
M  V30 19 C 0.407896 -4.956643 0.855442 0
M  V30 20 C 1.806143 -4.675694 1.302226 0
M  V30 21 C 1.805711 -4.709731 2.810838 0
M  V30 22 C 0.375105 -4.555797 3.243997 0
M  V30 23 C -2.305569 2.618840 -1.990017 0
M  V30 24 C -3.724672 2.780678 -2.085291 0
M  V30 25 N -4.760671 2.257065 -1.306445 0
M  V30 26 C -5.938484 2.670551 -1.755732 0
M  V30 27 C -7.091078 2.160895 -0.989136 0
M  V30 28 O -8.286672 2.449116 -1.266768 0
M  V30 29 O -7.126930 1.330063 0.105309 0
M  V30 30 C -6.221109 3.543773 -2.887014 0
M  V30 31 S -4.502326 3.821321 -3.396846 0
M  V30 32 C -1.488814 3.272945 -2.884119 0
M  V30 33 N -0.172477 3.170443 -2.824301 0
M  V30 34 C 0.397781 2.418737 -1.880700 0
M  V30 35 N 1.700481 2.184942 -1.649836 0
M  V30 36 C 2.898191 -0.003376 1.120638 0
M  V30 37 C 4.073554 -0.476104 1.663598 0
M  V30 38 H 5.916049 -1.080860 3.541052 0
M  V30 39 H 7.616562 -1.498395 3.124681 0
M  V30 40 H 6.211177 -2.390579 2.379435 0
M  V30 41 H 6.257970 1.031531 -0.418117 0
M  V30 42 H 4.228741 1.872147 -1.389688 0
M  V30 43 H -2.709692 1.957392 0.623317 0
M  V30 44 H -3.934382 -0.311403 -0.824375 0
M  V30 45 H -4.015954 0.035914 0.913261 0
M  V30 46 H -1.796640 -1.508254 -0.560148 0
M  V30 47 H -3.137209 -2.131643 0.393530 0
M  V30 48 H -1.068176 -0.282665 1.613101 0
M  V30 49 H -2.291362 -1.185383 2.496398 0
M  V30 50 H 0.213871 -2.280343 1.784654 0
M  V30 51 H -1.100302 -5.730168 2.225480 0
M  V30 52 H 0.326582 -5.998413 0.443851 0
M  V30 53 H 0.028808 -4.277824 0.062684 0
M  V30 54 H 2.551567 -5.423130 0.943119 0
M  V30 55 H 2.112147 -3.650911 0.980213 0
M  V30 56 H 2.253285 -5.644462 3.198266 0
M  V30 57 H 2.420806 -3.872673 3.240937 0
M  V30 58 H 0.216122 -3.495028 3.589216 0
M  V30 59 H 0.090672 -5.193868 4.104767 0
M  V30 60 H -7.841468 0.650124 0.322056 0
M  V30 61 H -7.088896 3.849008 -3.219623 0
M  V30 62 H -1.884481 3.898585 -3.674187 0
M  V30 63 H 2.502763 2.587124 -2.217123 0
M  V30 64 H 1.953986 -0.303576 1.566121 0
M  V30 65 H 4.113135 -1.138389 2.519369 0
M  V30 END ATOM
M  V30 BEGIN BOND
M  V30 1 1 1 2
M  V30 2 1 2 3
M  V30 3 2 3 4
M  V30 4 1 4 5
M  V30 5 2 5 6
M  V30 6 1 6 7
M  V30 7 2 7 8
M  V30 8 1 8 9
M  V30 9 2 9 10
M  V30 10 1 10 11
M  V30 11 1 11 12
M  V30 12 1 12 13
M  V30 13 1 13 14
M  V30 14 1 14 15
M  V30 15 1 15 16
M  V30 16 2 16 17
M  V30 17 1 16 18
M  V30 18 1 18 19
M  V30 19 1 19 20
M  V30 20 1 20 21
M  V30 21 1 21 22
M  V30 22 1 10 23
M  V30 23 1 23 24
M  V30 24 2 24 25
M  V30 25 1 25 26
M  V30 26 1 26 27
M  V30 27 2 27 28
M  V30 28 1 27 29
M  V30 29 2 26 30
M  V30 30 1 30 31
M  V30 31 2 23 32
M  V30 32 1 32 33
M  V30 33 2 33 34
M  V30 34 1 34 35
M  V30 35 1 6 36
M  V30 36 2 36 37
M  V30 37 1 37 3
M  V30 38 1 35 7
M  V30 39 1 34 9
M  V30 40 1 22 18
M  V30 41 1 31 24
M  V30 42 1 1 38
M  V30 43 1 1 39
M  V30 44 1 1 40
M  V30 45 1 4 41
M  V30 46 1 5 42
M  V30 47 1 11 43
M  V30 48 1 12 44
M  V30 49 1 12 45
M  V30 50 1 13 46
M  V30 51 1 13 47
M  V30 52 1 14 48
M  V30 53 1 14 49
M  V30 54 1 15 50
M  V30 55 1 18 51
M  V30 56 1 19 52
M  V30 57 1 19 53
M  V30 58 1 20 54
M  V30 59 1 20 55
M  V30 60 1 21 56
M  V30 61 1 21 57
M  V30 62 1 22 58
M  V30 63 1 22 59
M  V30 64 1 29 60
M  V30 65 1 30 61
M  V30 66 1 32 62
M  V30 67 1 35 63
M  V30 68 1 36 64
M  V30 69 1 37 65
M  V30 END BOND
M  V30 END CTAB
M  END
>  <Dataset>  (289) 
ChEMBL_Kinases

>  <Ligand_Instance>  (289) 
nan

>  <PDB_ID>  (289) 
nan

>  <Standardized_SMILES>  (289) 
COc1ccc(-c2nc3c(NCCCNC(=O)C4CCCC4)c(-c4nc(C(=O)O)cs4)cnc3[nH]2)cc1

>  <Name>  (289) 
nan

>  <Pocket>  (289) 
nan

>  <ATP_Site>  (289) 
nan

>  <Peripheral>  (289) 
nan

>  <Num_H_Atoms_ProtBoundConf>  (289) 
nan

>  <Num_Resolved_Atoms>  (289) 
nan

>  <Num_Not_Resolved_Atoms>  (289) 
nan

$$$$
CHEMBL3125720
     RDKit          3D

  0  0  0  0  0  0  0  0  0  0999 V3000
M  V30 BEGIN CTAB
M  V30 COUNTS 78 82 0 0 0
M  V30 BEGIN ATOM
M  V30 1 C 1.720472 0.281588 9.999768 0
M  V30 2 O 1.081243 0.101920 8.773376 0
M  V30 3 C 1.719173 -0.101304 7.566863 0
M  V30 4 C 0.880209 -0.253975 6.484887 0
M  V30 5 C 1.426158 -0.461994 5.235466 0
M  V30 6 C 2.799897 -0.524379 5.021894 0
M  V30 7 C 3.346182 -0.746486 3.684851 0
M  V30 8 N 2.596552 -0.906914 2.579616 0
M  V30 9 C 3.349694 -1.095065 1.485721 0
M  V30 10 C 3.038219 -1.302715 0.137524 0
M  V30 11 N 1.678857 -1.323522 -0.173327 0
M  V30 12 C 0.516372 -2.155050 -0.299272 0
M  V30 13 C -0.709582 -1.335513 -0.657542 0
M  V30 14 C -0.998234 -0.298166 0.416888 0
M  V30 15 N -2.168921 0.480906 0.072185 0
M  V30 16 C -3.441753 -0.123002 -0.111189 0
M  V30 17 O -3.646454 -1.356300 0.009333 0
M  V30 18 C -4.582339 0.788739 -0.467245 0
M  V30 19 C -5.875881 0.066402 -0.636267 0
M  V30 20 C -6.686172 0.297044 0.619851 0
M  V30 21 C -5.889887 1.237771 1.494298 0
M  V30 22 C -4.728832 1.741819 0.680038 0
M  V30 23 C 4.063350 -1.464352 -0.755877 0
M  V30 24 C 3.788118 -1.681612 -2.177313 0
M  V30 25 N 2.530908 -1.758873 -2.835449 0
M  V30 26 C 2.724676 -1.966654 -4.136627 0
M  V30 27 C 1.521574 -2.080477 -4.984667 0
M  V30 28 O 1.597397 -2.263716 -6.243378 0
M  V30 29 N 0.163317 -2.020149 -4.639261 0
M  V30 30 C -1.193668 -2.061021 -5.039957 0
M  V30 31 C -1.558467 -0.951487 -5.970364 0
M  V30 32 C -1.311415 0.412902 -5.379530 0
M  V30 33 C -0.941541 -1.113618 -7.321127 0
M  V30 34 C 3.964544 -2.099308 -4.822255 0
M  V30 35 S 5.041309 -1.891979 -3.357023 0
M  V30 36 C 5.356018 -1.417734 -0.301398 0
M  V30 37 N 5.605474 -1.215985 1.002530 0
M  V30 38 C 4.662364 -1.048041 1.945094 0
M  V30 39 N 4.623600 -0.836807 3.273184 0
M  V30 40 C 3.633623 -0.370195 6.112695 0
M  V30 41 C 3.090569 -0.159298 7.380768 0
M  V30 42 H 0.975143 0.799122 10.667059 0
M  V30 43 H 2.589710 0.983797 9.939257 0
M  V30 44 H 2.013181 -0.636123 10.518804 0
M  V30 45 H -0.191066 -0.227552 6.509767 0
M  V30 46 H 0.808034 -0.587655 4.354231 0
M  V30 47 H 1.575520 -0.288693 -0.377049 0
M  V30 48 H 0.682957 -2.885361 -1.104203 0
M  V30 49 H 0.293957 -2.693506 0.647237 0
M  V30 50 H -0.590844 -0.795685 -1.607641 0
M  V30 51 H -1.554255 -2.043569 -0.763572 0
M  V30 52 H -0.126662 0.359999 0.531644 0
M  V30 53 H -1.233655 -0.823943 1.375699 0
M  V30 54 H -2.071981 1.532389 -0.046350 0
M  V30 55 H -4.309696 1.305196 -1.417270 0
M  V30 56 H -6.469049 0.485572 -1.500592 0
M  V30 57 H -5.732859 -1.011795 -0.868057 0
M  V30 58 H -6.844373 -0.668231 1.117196 0
M  V30 59 H -7.676416 0.754908 0.434577 0
M  V30 60 H -6.487924 2.137836 1.776070 0
M  V30 61 H -5.508317 0.707057 2.403400 0
M  V30 62 H -3.824077 1.777779 1.331375 0
M  V30 63 H -4.871916 2.762026 0.302700 0
M  V30 64 H 0.178104 -1.875319 -3.584425 0
M  V30 65 H -1.879493 -2.082741 -4.151541 0
M  V30 66 H -1.379667 -3.031305 -5.633996 0
M  V30 67 H -2.704913 -0.953423 -6.127129 0
M  V30 68 H -1.856441 1.149032 -6.001905 0
M  V30 69 H -1.712867 0.438557 -4.350769 0
M  V30 70 H -0.237420 0.705642 -5.428064 0
M  V30 71 H -0.697664 -2.160304 -7.585076 0
M  V30 72 H -1.660352 -0.802181 -8.138447 0
M  V30 73 H -0.013906 -0.504860 -7.427667 0
M  V30 74 H 4.218089 -2.253873 -5.775885 0
M  V30 75 H 6.174707 -1.543686 -0.995138 0
M  V30 76 H 5.453432 -0.756027 3.885516 0
M  V30 77 H 4.709934 -0.412465 5.987279 0
M  V30 78 H 3.711170 -0.034481 8.257120 0
M  V30 END ATOM
M  V30 BEGIN BOND
M  V30 1 1 1 2
M  V30 2 1 2 3
M  V30 3 2 3 4
M  V30 4 1 4 5
M  V30 5 2 5 6
M  V30 6 1 6 7
M  V30 7 2 7 8
M  V30 8 1 8 9
M  V30 9 2 9 10
M  V30 10 1 10 11
M  V30 11 1 11 12
M  V30 12 1 12 13
M  V30 13 1 13 14
M  V30 14 1 14 15
M  V30 15 1 15 16
M  V30 16 2 16 17
M  V30 17 1 16 18
M  V30 18 1 18 19
M  V30 19 1 19 20
M  V30 20 1 20 21
M  V30 21 1 21 22
M  V30 22 1 10 23
M  V30 23 1 23 24
M  V30 24 2 24 25
M  V30 25 1 25 26
M  V30 26 1 26 27
M  V30 27 2 27 28
M  V30 28 1 27 29
M  V30 29 1 29 30
M  V30 30 1 30 31
M  V30 31 1 31 32
M  V30 32 1 31 33
M  V30 33 2 26 34
M  V30 34 1 34 35
M  V30 35 2 23 36
M  V30 36 1 36 37
M  V30 37 2 37 38
M  V30 38 1 38 39
M  V30 39 1 6 40
M  V30 40 2 40 41
M  V30 41 1 41 3
M  V30 42 1 39 7
M  V30 43 1 38 9
M  V30 44 1 22 18
M  V30 45 1 35 24
M  V30 46 1 1 42
M  V30 47 1 1 43
M  V30 48 1 1 44
M  V30 49 1 4 45
M  V30 50 1 5 46
M  V30 51 1 11 47
M  V30 52 1 12 48
M  V30 53 1 12 49
M  V30 54 1 13 50
M  V30 55 1 13 51
M  V30 56 1 14 52
M  V30 57 1 14 53
M  V30 58 1 15 54
M  V30 59 1 18 55
M  V30 60 1 19 56
M  V30 61 1 19 57
M  V30 62 1 20 58
M  V30 63 1 20 59
M  V30 64 1 21 60
M  V30 65 1 21 61
M  V30 66 1 22 62
M  V30 67 1 22 63
M  V30 68 1 29 64
M  V30 69 1 30 65
M  V30 70 1 30 66
M  V30 71 1 31 67
M  V30 72 1 32 68
M  V30 73 1 32 69
M  V30 74 1 32 70
M  V30 75 1 33 71
M  V30 76 1 33 72
M  V30 77 1 33 73
M  V30 78 1 34 74
M  V30 79 1 36 75
M  V30 80 1 39 76
M  V30 81 1 40 77
M  V30 82 1 41 78
M  V30 END BOND
M  V30 END CTAB
M  END
>  <Dataset>  (290) 
ChEMBL_Kinases

>  <Ligand_Instance>  (290) 
nan

>  <PDB_ID>  (290) 
nan

>  <Standardized_SMILES>  (290) 
COc1ccc(-c2nc3c(NCCCNC(=O)C4CCCC4)c(-c4nc(C(=O)NCC(C)C)cs4)cnc3[nH]2)cc1

>  <Name>  (290) 
nan

>  <Pocket>  (290) 
nan

>  <ATP_Site>  (290) 
nan

>  <Peripheral>  (290) 
nan

>  <Num_H_Atoms_ProtBoundConf>  (290) 
nan

>  <Num_Resolved_Atoms>  (290) 
nan

>  <Num_Not_Resolved_Atoms>  (290) 
nan

$$$$
CHEMBL4763649
     RDKit          3D

  0  0  0  0  0  0  0  0  0  0999 V3000
M  V30 BEGIN CTAB
M  V30 COUNTS 61 66 0 0 0
M  V30 BEGIN ATOM
M  V30 1 C 3.987496 -2.204887 6.862776 0
M  V30 2 C 3.920987 -3.147136 5.672143 0
M  V30 3 C 5.334937 -3.552897 5.247593 0
M  V30 4 C 3.222937 -4.395698 6.102315 0
M  V30 5 C 3.305072 -2.462486 4.526686 0
M  V30 6 O 2.961561 -1.274821 4.738990 0
M  V30 7 N 3.081161 -3.021114 3.257382 0
M  V30 8 C 2.498988 -2.441849 2.102528 0
M  V30 9 C 2.396697 -3.219212 0.970583 0
M  V30 10 N 1.858966 -2.753226 -0.168952 0
M  V30 11 C 1.383085 -1.500145 -0.288865 0
M  V30 12 C 1.459860 -0.671797 0.819324 0
M  V30 13 C 0.960651 0.705358 0.758555 0
M  V30 14 C 1.545252 1.723335 1.523191 0
M  V30 15 N 1.066584 2.978835 1.447064 0
M  V30 16 C 0.019584 3.299340 0.641901 0
M  V30 17 N -0.663582 4.413084 0.354176 0
M  V30 18 N -1.612007 4.155366 -0.519706 0
M  V30 19 C -1.630957 2.860244 -0.876356 0
M  V30 20 C -2.557448 2.277895 -1.818718 0
M  V30 21 C -2.794830 1.039916 -2.345544 0
M  V30 22 C -3.843144 1.029250 -3.241245 0
M  V30 23 C -4.396498 0.006813 -3.983214 0
M  V30 24 C -3.913573 -1.355028 -3.915327 0
M  V30 25 C -3.691581 -2.023425 -5.123909 0
M  V30 26 C -3.233360 -3.333950 -5.093023 0
M  V30 27 N -2.983148 -4.018978 -3.949712 0
M  V30 28 C -3.193431 -3.385581 -2.785185 0
M  V30 29 C -3.648099 -2.084215 -2.775228 0
M  V30 30 C -5.461554 0.355286 -4.803050 0
M  V30 31 N -5.905624 1.626345 -4.848851 0
M  V30 32 C -5.335695 2.602301 -4.104439 0
M  V30 33 C -4.270729 2.339234 -3.262366 0
M  V30 34 N -3.493554 3.036405 -2.417392 0
M  V30 35 C -0.598986 2.341593 -0.135716 0
M  V30 36 C -0.098403 1.064659 -0.046564 0
M  V30 37 C 2.018373 -1.182483 1.974536 0
M  V30 38 H 4.824467 -1.481565 6.781910 0
M  V30 39 H 4.111850 -2.819167 7.778055 0
M  V30 40 H 3.016747 -1.657293 6.942466 0
M  V30 41 H 5.701102 -2.726338 4.602554 0
M  V30 42 H 5.958378 -3.737173 6.141115 0
M  V30 43 H 5.215977 -4.478455 4.648324 0
M  V30 44 H 3.682713 -5.303895 5.627146 0
M  V30 45 H 2.121212 -4.385519 5.954608 0
M  V30 46 H 3.377599 -4.522207 7.193663 0
M  V30 47 H 3.417179 -4.013715 3.227809 0
M  V30 48 H 2.737284 -4.257978 0.906172 0
M  V30 49 H 0.943770 -1.126590 -1.227093 0
M  V30 50 H 2.382780 1.478844 2.170153 0
M  V30 51 H -0.485367 5.359754 0.754100 0
M  V30 52 H -2.229826 0.161127 -2.097608 0
M  V30 53 H -3.852907 -1.588323 -6.119353 0
M  V30 54 H -3.034268 -3.927716 -5.987237 0
M  V30 55 H -3.014627 -3.871146 -1.826400 0
M  V30 56 H -3.814351 -1.594380 -1.839015 0
M  V30 57 H -5.900350 -0.436479 -5.386849 0
M  V30 58 H -5.699550 3.614581 -4.149296 0
M  V30 59 H -3.710279 4.055332 -2.334470 0
M  V30 60 H -0.527877 0.280786 -0.617594 0
M  V30 61 H 2.054543 -0.509428 2.795888 0
M  V30 END ATOM
M  V30 BEGIN BOND
M  V30 1 1 1 2
M  V30 2 1 2 3
M  V30 3 1 2 4
M  V30 4 1 2 5
M  V30 5 2 5 6
M  V30 6 1 5 7
M  V30 7 1 7 8
M  V30 8 2 8 9
M  V30 9 1 9 10
M  V30 10 2 10 11
M  V30 11 1 11 12
M  V30 12 1 12 13
M  V30 13 2 13 14
M  V30 14 1 14 15
M  V30 15 2 15 16
M  V30 16 1 16 17
M  V30 17 1 17 18
M  V30 18 2 18 19
M  V30 19 1 19 20
M  V30 20 2 20 21
M  V30 21 1 21 22
M  V30 22 2 22 23
M  V30 23 1 23 24
M  V30 24 2 24 25
M  V30 25 1 25 26
M  V30 26 2 26 27
M  V30 27 1 27 28
M  V30 28 2 28 29
M  V30 29 1 23 30
M  V30 30 2 30 31
M  V30 31 1 31 32
M  V30 32 2 32 33
M  V30 33 1 33 34
M  V30 34 1 19 35
M  V30 35 2 35 36
M  V30 36 2 12 37
M  V30 37 1 37 8
M  V30 38 1 36 13
M  V30 39 1 35 16
M  V30 40 1 34 20
M  V30 41 1 33 22
M  V30 42 1 29 24
M  V30 43 1 1 38
M  V30 44 1 1 39
M  V30 45 1 1 40
M  V30 46 1 3 41
M  V30 47 1 3 42
M  V30 48 1 3 43
M  V30 49 1 4 44
M  V30 50 1 4 45
M  V30 51 1 4 46
M  V30 52 1 7 47
M  V30 53 1 9 48
M  V30 54 1 11 49
M  V30 55 1 14 50
M  V30 56 1 17 51
M  V30 57 1 21 52
M  V30 58 1 25 53
M  V30 59 1 26 54
M  V30 60 1 28 55
M  V30 61 1 29 56
M  V30 62 1 30 57
M  V30 63 1 32 58
M  V30 64 1 34 59
M  V30 65 1 36 60
M  V30 66 1 37 61
M  V30 END BOND
M  V30 END CTAB
M  END
>  <Dataset>  (291) 
ChEMBL_Kinases

>  <Ligand_Instance>  (291) 
nan

>  <PDB_ID>  (291) 
nan

>  <Standardized_SMILES>  (291) 
CC(C)(C)C(=O)Nc1cncc(-c2cnc3[nH]nc(-c4cc5c(-c6ccncc6)cncc5[nH]4)c3c2)c1

>  <Name>  (291) 
nan

>  <Pocket>  (291) 
nan

>  <ATP_Site>  (291) 
nan

>  <Peripheral>  (291) 
nan

>  <Num_H_Atoms_ProtBoundConf>  (291) 
nan

>  <Num_Resolved_Atoms>  (291) 
nan

>  <Num_Not_Resolved_Atoms>  (291) 
nan

$$$$
CHEMBL4248525
     RDKit          3D

  0  0  0  0  0  0  0  0  0  0999 V3000
M  V30 BEGIN CTAB
M  V30 COUNTS 65 69 0 0 0
M  V30 BEGIN ATOM
M  V30 1 C 3.064655 4.841296 5.276759 0
M  V30 2 N 3.581250 4.184842 4.132442 0
M  V30 3 C 4.681787 3.322661 4.344766 0
M  V30 4 C 4.875180 2.289974 3.287475 0
M  V30 5 N 3.598995 1.603863 3.061306 0
M  V30 6 C 3.099484 1.126048 4.311354 0
M  V30 7 C 1.945903 0.169312 4.214242 0
M  V30 8 C 2.361106 -1.092510 3.507790 0
M  V30 9 O 2.776448 -0.881584 2.218547 0
M  V30 10 C 2.133635 -0.430541 1.107110 0
M  V30 11 C 3.103763 -0.418670 0.087938 0
M  V30 12 C 2.806758 -0.008875 -1.220159 0
M  V30 13 C 1.499598 0.397949 -1.504596 0
M  V30 14 C 0.554390 0.383740 -0.501598 0
M  V30 15 C -0.851007 0.796034 -0.755435 0
M  V30 16 C -1.693602 -0.410534 -1.088227 0
M  V30 17 O -1.088934 -1.517049 -1.086077 0
M  V30 18 N -3.078541 -0.201883 -1.371247 0
M  V30 19 C -3.761466 -1.411830 -1.661925 0
M  V30 20 N -4.050993 -2.132625 -2.561542 0
M  V30 21 C -4.732586 -3.255424 -2.529538 0
M  V30 22 C -5.083190 -4.046521 -3.677228 0
M  V30 23 C -5.077634 -3.513492 -4.970641 0
M  V30 24 N -5.408770 -4.438476 -5.880605 0
M  V30 25 C -5.647421 -5.614624 -5.259801 0
M  V30 26 N -5.991111 -6.842046 -5.680029 0
M  V30 27 C -6.151399 -7.881456 -4.818594 0
M  V30 28 C -5.944387 -7.634621 -3.457502 0
M  V30 29 C -5.593557 -6.365148 -3.060045 0
M  V30 30 C -5.435994 -5.321366 -3.935372 0
M  V30 31 C -5.165496 -3.591470 -1.110212 0
M  V30 32 S -4.438813 -2.131867 -0.150614 0
M  V30 33 C 0.870903 -0.020318 0.764625 0
M  V30 34 C 2.655359 2.567144 2.480612 0
M  V30 35 C 2.714112 3.932390 3.052554 0
M  V30 36 H 3.628200 5.779680 5.530533 0
M  V30 37 H 3.158967 4.125542 6.144057 0
M  V30 38 H 1.990814 5.127341 5.175172 0
M  V30 39 H 5.607492 3.937946 4.435295 0
M  V30 40 H 4.563124 2.831397 5.352856 0
M  V30 41 H 5.223612 2.752872 2.354393 0
M  V30 42 H 5.588144 1.529446 3.630331 0
M  V30 43 H 3.932605 0.634590 4.856338 0
M  V30 44 H 2.766570 1.993267 4.954238 0
M  V30 45 H 1.080597 0.602620 3.688776 0
M  V30 46 H 1.659626 -0.152743 5.255383 0
M  V30 47 H 3.178977 -1.572818 4.109390 0
M  V30 48 H 1.530272 -1.862805 3.583216 0
M  V30 49 H 4.159995 -0.688957 0.089558 0
M  V30 50 H 3.439578 0.046160 -2.071218 0
M  V30 51 H 1.147846 0.733485 -2.466005 0
M  V30 52 H -0.873137 1.552955 -1.555392 0
M  V30 53 H -1.280062 1.215314 0.188753 0
M  V30 54 H -3.491147 0.752133 -1.353521 0
M  V30 55 H -4.841615 -2.478133 -5.269317 0
M  V30 56 H -5.477427 -4.291708 -6.913190 0
M  V30 57 H -6.426761 -8.818325 -5.257381 0
M  V30 58 H -6.076547 -8.479460 -2.786002 0
M  V30 59 H -5.440730 -6.297461 -2.010313 0
M  V30 60 H -5.842119 -4.574461 -0.772028 0
M  V30 61 H 0.228081 -0.075890 1.607956 0
M  V30 62 H 1.636194 2.124748 2.485791 0
M  V30 63 H 2.927947 2.622702 1.389791 0
M  V30 64 H 2.828354 4.712318 2.233585 0
M  V30 65 H 1.663062 4.158109 3.427218 0
M  V30 END ATOM
M  V30 BEGIN BOND
M  V30 1 1 1 2
M  V30 2 1 2 3
M  V30 3 1 3 4
M  V30 4 1 4 5
M  V30 5 1 5 6
M  V30 6 1 6 7
M  V30 7 1 7 8
M  V30 8 1 8 9
M  V30 9 1 9 10
M  V30 10 2 10 11
M  V30 11 1 11 12
M  V30 12 2 12 13
M  V30 13 1 13 14
M  V30 14 1 14 15
M  V30 15 1 15 16
M  V30 16 2 16 17
M  V30 17 1 16 18
M  V30 18 1 18 19
M  V30 19 2 19 20
M  V30 20 1 20 21
M  V30 21 1 21 22
M  V30 22 2 22 23
M  V30 23 1 23 24
M  V30 24 1 24 25
M  V30 25 2 25 26
M  V30 26 1 26 27
M  V30 27 2 27 28
M  V30 28 1 28 29
M  V30 29 2 29 30
M  V30 30 2 21 31
M  V30 31 1 31 32
M  V30 32 2 14 33
M  V30 33 1 5 34
M  V30 34 1 34 35
M  V30 35 1 35 2
M  V30 36 1 33 10
M  V30 37 1 32 19
M  V30 38 1 30 22
M  V30 39 1 30 25
M  V30 40 1 1 36
M  V30 41 1 1 37
M  V30 42 1 1 38
M  V30 43 1 3 39
M  V30 44 1 3 40
M  V30 45 1 4 41
M  V30 46 1 4 42
M  V30 47 1 6 43
M  V30 48 1 6 44
M  V30 49 1 7 45
M  V30 50 1 7 46
M  V30 51 1 8 47
M  V30 52 1 8 48
M  V30 53 1 11 49
M  V30 54 1 12 50
M  V30 55 1 13 51
M  V30 56 1 15 52
M  V30 57 1 15 53
M  V30 58 1 18 54
M  V30 59 1 23 55
M  V30 60 1 24 56
M  V30 61 1 27 57
M  V30 62 1 28 58
M  V30 63 1 29 59
M  V30 64 1 31 60
M  V30 65 1 33 61
M  V30 66 1 34 62
M  V30 67 1 34 63
M  V30 68 1 35 64
M  V30 69 1 35 65
M  V30 END BOND
M  V30 END CTAB
M  END
>  <Dataset>  (292) 
ChEMBL_Kinases

>  <Ligand_Instance>  (292) 
nan

>  <PDB_ID>  (292) 
nan

>  <Standardized_SMILES>  (292) 
CN1CCN(CCCOc2cccc(CC(=O)Nc3nc(-c4c[nH]c5ncccc45)cs3)c2)CC1

>  <Name>  (292) 
nan

>  <Pocket>  (292) 
nan

>  <ATP_Site>  (292) 
nan

>  <Peripheral>  (292) 
nan

>  <Num_H_Atoms_ProtBoundConf>  (292) 
nan

>  <Num_Resolved_Atoms>  (292) 
nan

>  <Num_Not_Resolved_Atoms>  (292) 
nan

$$$$
CHEMBL424872
     RDKit          3D

  0  0  0  0  0  0  0  0  0  0999 V3000
M  V30 BEGIN CTAB
M  V30 COUNTS 44 45 0 0 0
M  V30 BEGIN ATOM
M  V30 1 C 1.916289 -4.309242 1.295705 0
M  V30 2 C 1.184168 -5.339057 0.440741 0
M  V30 3 O -0.200290 -5.240999 0.633709 0
M  V30 4 C -0.931089 -4.096988 0.364658 0
M  V30 5 N -0.422732 -2.941581 -0.111523 0
M  V30 6 C -1.209262 -1.865506 -0.348293 0
M  V30 7 C -0.653105 -0.622478 -0.864573 0
M  V30 8 O -1.461824 0.345488 -1.050572 0
M  V30 9 N 0.711489 -0.445825 -1.162219 0
M  V30 10 C 1.333364 0.763361 -1.678291 0
M  V30 11 C 1.523703 1.800483 -0.658670 0
M  V30 12 C 2.727008 1.809286 0.057322 0
M  V30 13 C 3.005985 2.739419 1.036059 0
M  V30 14 C 2.100418 3.717577 1.359676 0
M  V30 15 S 2.443326 4.890542 2.585283 0
M  V30 16 C 1.916276 4.250154 4.172358 0
M  V30 17 O 3.856397 5.338422 2.636857 0
M  V30 18 O 1.595533 6.111373 2.337987 0
M  V30 19 C 0.892763 3.740264 0.668558 0
M  V30 20 C 0.645833 2.798562 -0.301475 0
M  V30 21 C -2.534841 -2.017552 -0.079153 0
M  V30 22 C -3.143824 -3.157346 0.408000 0
M  V30 23 N -4.527448 -3.217165 0.653541 0
M  V30 24 C -2.292397 -4.216142 0.628196 0
M  V30 25 C -2.882012 -5.434535 1.138783 0
M  V30 26 N -3.341439 -6.417991 1.541583 0
M  V30 27 H 2.775639 -3.937381 0.698255 0
M  V30 28 H 2.236448 -4.724379 2.275884 0
M  V30 29 H 1.255844 -3.450309 1.490975 0
M  V30 30 H 1.517571 -6.360440 0.776535 0
M  V30 31 H 1.429446 -5.196748 -0.630144 0
M  V30 32 H 1.285021 -1.317140 -0.968892 0
M  V30 33 H 0.778064 1.124199 -2.569387 0
M  V30 34 H 2.333416 0.464006 -2.067614 0
M  V30 35 H 3.488569 1.062387 -0.149501 0
M  V30 36 H 3.961464 2.688428 1.553434 0
M  V30 37 H 1.873748 3.145260 4.085683 0
M  V30 38 H 2.681915 4.512497 4.936667 0
M  V30 39 H 0.920676 4.600450 4.461555 0
M  V30 40 H 0.160789 4.502098 0.904805 0
M  V30 41 H -0.295128 2.817081 -0.839184 0
M  V30 42 H -3.171432 -1.148884 -0.270197 0
M  V30 43 H -5.014797 -4.106941 0.844624 0
M  V30 44 H -5.071657 -2.327528 0.639844 0
M  V30 END ATOM
M  V30 BEGIN BOND
M  V30 1 1 1 2
M  V30 2 1 2 3
M  V30 3 1 3 4
M  V30 4 2 4 5
M  V30 5 1 5 6
M  V30 6 1 6 7
M  V30 7 2 7 8
M  V30 8 1 7 9
M  V30 9 1 9 10
M  V30 10 1 10 11
M  V30 11 2 11 12
M  V30 12 1 12 13
M  V30 13 2 13 14
M  V30 14 1 14 15
M  V30 15 1 15 16
M  V30 16 2 15 17
M  V30 17 2 15 18
M  V30 18 1 14 19
M  V30 19 2 19 20
M  V30 20 2 6 21
M  V30 21 1 21 22
M  V30 22 1 22 23
M  V30 23 2 22 24
M  V30 24 1 24 25
M  V30 25 3 25 26
M  V30 26 1 24 4
M  V30 27 1 20 11
M  V30 28 1 1 27
M  V30 29 1 1 28
M  V30 30 1 1 29
M  V30 31 1 2 30
M  V30 32 1 2 31
M  V30 33 1 9 32
M  V30 34 1 10 33
M  V30 35 1 10 34
M  V30 36 1 12 35
M  V30 37 1 13 36
M  V30 38 1 16 37
M  V30 39 1 16 38
M  V30 40 1 16 39
M  V30 41 1 19 40
M  V30 42 1 20 41
M  V30 43 1 21 42
M  V30 44 1 23 43
M  V30 45 1 23 44
M  V30 END BOND
M  V30 END CTAB
M  END
>  <Dataset>  (293) 
ChEMBL_Kinases

>  <Ligand_Instance>  (293) 
nan

>  <PDB_ID>  (293) 
nan

>  <Standardized_SMILES>  (293) 
CCOc1nc(C(=O)NCc2ccc(S(C)(=O)=O)cc2)cc(N)c1C#N

>  <Name>  (293) 
nan

>  <Pocket>  (293) 
nan

>  <ATP_Site>  (293) 
nan

>  <Peripheral>  (293) 
nan

>  <Num_H_Atoms_ProtBoundConf>  (293) 
nan

>  <Num_Resolved_Atoms>  (293) 
nan

>  <Num_Not_Resolved_Atoms>  (293) 
nan

$$$$
CHEMBL4763521
     RDKit          3D

  0  0  0  0  0  0  0  0  0  0999 V3000
M  V30 BEGIN CTAB
M  V30 COUNTS 75 80 0 0 0
M  V30 BEGIN ATOM
M  V30 1 C 9.687072 -5.446038 4.123624 0
M  V30 2 C 8.853154 -4.538809 3.252819 0
M  V30 3 C 9.416283 -3.149875 3.179546 0
M  V30 4 C 8.524053 -2.334121 2.301671 0
M  V30 5 O 7.855222 -3.390295 2.170496 0
M  V30 6 N 8.545348 -0.984697 1.887238 0
M  V30 7 C 7.368406 -0.911451 1.045029 0
M  V30 8 C 7.650766 -1.200213 -0.274568 0
M  V30 9 N 6.560046 -1.156214 -1.104835 0
M  V30 10 C 5.338908 -0.852103 -0.625128 0
M  V30 11 C 5.074197 -0.566224 0.697536 0
M  V30 12 C 3.745413 -0.254427 1.218686 0
M  V30 13 C 2.609726 -0.241715 0.433298 0
M  V30 14 C 1.375449 0.026744 0.910820 0
M  V30 15 C 0.129735 0.085452 0.328360 0
M  V30 16 C -0.299200 -0.129976 -1.003925 0
M  V30 17 C -1.651250 -0.078649 -1.384937 0
M  V30 18 C -1.838656 -0.340528 -2.704835 0
M  V30 19 C -2.943515 -0.414951 -3.525627 0
M  V30 20 C -4.264937 -0.170502 -2.964935 0
M  V30 21 C -5.153061 -1.196816 -3.297611 0
M  V30 22 C -6.469994 -1.172915 -2.865393 0
M  V30 23 F -7.390936 -2.117464 -3.137804 0
M  V30 24 C -6.791666 -0.061729 -2.099230 0
M  V30 25 C -5.965414 0.972474 -1.742537 0
M  V30 26 N -6.295769 2.075371 -0.952174 0
M  V30 27 C -7.458113 2.498894 -0.208188 0
M  V30 28 C -7.622967 1.874261 1.126053 0
M  V30 29 N -7.767760 0.450507 1.110409 0
M  V30 30 C -7.697345 0.013189 2.521474 0
M  V30 31 C -9.131597 0.070359 0.710237 0
M  V30 32 C -4.667899 0.878614 -2.210046 0
M  V30 33 C -2.826636 -0.719111 -4.867413 0
M  V30 34 C -1.524183 -0.932851 -5.281453 0
M  V30 35 N -0.416163 -0.870248 -4.515712 0
M  V30 36 C -0.583218 -0.571867 -3.220258 0
M  V30 37 N 0.254670 -0.433395 -2.182749 0
M  V30 38 N -0.680211 0.399732 1.375563 0
M  V30 39 N -0.012538 0.523379 2.495213 0
M  V30 40 C 1.275201 0.303816 2.278724 0
M  V30 41 C 2.389564 0.300085 3.090234 0
M  V30 42 N 3.579754 0.020728 2.529172 0
M  V30 43 C 6.134504 -0.595773 1.576407 0
M  V30 44 H 10.749272 -5.131873 4.024534 0
M  V30 45 H 9.406276 -5.228535 5.177026 0
M  V30 46 H 9.517634 -6.517284 3.896978 0
M  V30 47 H 8.833943 -5.019570 2.246774 0
M  V30 48 H 7.823014 -4.560268 3.688011 0
M  V30 49 H 10.442428 -3.232248 2.765167 0
M  V30 50 H 9.456786 -2.749192 4.223028 0
M  V30 51 H 9.368947 -0.513515 2.311654 0
M  V30 52 H 8.636121 -1.444775 -0.642679 0
M  V30 53 H 4.542338 -0.842352 -1.352670 0
M  V30 54 H 2.726493 -0.455241 -0.584582 0
M  V30 55 H -2.512405 0.141689 -0.744262 0
M  V30 56 H -4.902124 -2.078032 -3.904888 0
M  V30 57 H -7.817382 -0.022643 -1.768250 0
M  V30 58 H -5.555476 2.834519 -0.814197 0
M  V30 59 H -7.540295 3.607934 -0.100394 0
M  V30 60 H -8.404522 2.240736 -0.795915 0
M  V30 61 H -6.772833 2.189764 1.773906 0
M  V30 62 H -8.545893 2.294882 1.618764 0
M  V30 63 H -6.706428 0.336480 2.896450 0
M  V30 64 H -7.800721 -1.071612 2.584738 0
M  V30 65 H -8.503476 0.545785 3.051483 0
M  V30 66 H -9.084771 -0.861115 0.118951 0
M  V30 67 H -9.555051 0.876216 0.089926 0
M  V30 68 H -9.788937 -0.065285 1.570552 0
M  V30 69 H -3.920577 1.622806 -2.001311 0
M  V30 70 H -3.645535 -0.789589 -5.542646 0
M  V30 71 H -1.298254 -1.182793 -6.329143 0
M  V30 72 H 1.273139 -0.559741 -2.321691 0
M  V30 73 H -0.507465 0.763825 3.385157 0
M  V30 74 H 2.276244 0.517587 4.140551 0
M  V30 75 H 6.051189 -0.388320 2.646578 0
M  V30 END ATOM
M  V30 BEGIN BOND
M  V30 1 1 1 2
M  V30 2 1 2 3
M  V30 3 1 3 4
M  V30 4 2 4 5
M  V30 5 1 4 6
M  V30 6 1 6 7
M  V30 7 2 7 8
M  V30 8 1 8 9
M  V30 9 2 9 10
M  V30 10 1 10 11
M  V30 11 1 11 12
M  V30 12 2 12 13
M  V30 13 1 13 14
M  V30 14 1 14 15
M  V30 15 1 15 16
M  V30 16 2 16 17
M  V30 17 1 17 18
M  V30 18 2 18 19
M  V30 19 1 19 20
M  V30 20 2 20 21
M  V30 21 1 21 22
M  V30 22 1 22 23
M  V30 23 2 22 24
M  V30 24 1 24 25
M  V30 25 1 25 26
M  V30 26 1 26 27
M  V30 27 1 27 28
M  V30 28 1 28 29
M  V30 29 1 29 30
M  V30 30 1 29 31
M  V30 31 2 25 32
M  V30 32 1 19 33
M  V30 33 2 33 34
M  V30 34 1 34 35
M  V30 35 2 35 36
M  V30 36 1 36 37
M  V30 37 2 15 38
M  V30 38 1 38 39
M  V30 39 1 39 40
M  V30 40 1 40 41
M  V30 41 2 41 42
M  V30 42 2 11 43
M  V30 43 1 43 7
M  V30 44 1 42 12
M  V30 45 2 40 14
M  V30 46 1 37 16
M  V30 47 1 36 18
M  V30 48 1 32 20
M  V30 49 1 1 44
M  V30 50 1 1 45
M  V30 51 1 1 46
M  V30 52 1 2 47
M  V30 53 1 2 48
M  V30 54 1 3 49
M  V30 55 1 3 50
M  V30 56 1 6 51
M  V30 57 1 8 52
M  V30 58 1 10 53
M  V30 59 1 13 54
M  V30 60 1 17 55
M  V30 61 1 21 56
M  V30 62 1 24 57
M  V30 63 1 26 58
M  V30 64 1 27 59
M  V30 65 1 27 60
M  V30 66 1 28 61
M  V30 67 1 28 62
M  V30 68 1 30 63
M  V30 69 1 30 64
M  V30 70 1 30 65
M  V30 71 1 31 66
M  V30 72 1 31 67
M  V30 73 1 31 68
M  V30 74 1 32 69
M  V30 75 1 33 70
M  V30 76 1 34 71
M  V30 77 1 37 72
M  V30 78 1 39 73
M  V30 79 1 41 74
M  V30 80 1 43 75
M  V30 END BOND
M  V30 END CTAB
M  END
>  <Dataset>  (294) 
ChEMBL_Kinases

>  <Ligand_Instance>  (294) 
nan

>  <PDB_ID>  (294) 
nan

>  <Standardized_SMILES>  (294) 
CCCC(=O)Nc1cncc(-c2cc3c(-c4cc5c(-c6cc(F)cc(NCCN(C)C)c6)ccnc5[nH]4)n[nH]c3cn2)c1

>  <Name>  (294) 
nan

>  <Pocket>  (294) 
nan

>  <ATP_Site>  (294) 
nan

>  <Peripheral>  (294) 
nan

>  <Num_H_Atoms_ProtBoundConf>  (294) 
nan

>  <Num_Resolved_Atoms>  (294) 
nan

>  <Num_Not_Resolved_Atoms>  (294) 
nan

$$$$
CHEMBL4763435
     RDKit          3D

  0  0  0  0  0  0  0  0  0  0999 V3000
M  V30 BEGIN CTAB
M  V30 COUNTS 55 60 0 0 0
M  V30 BEGIN ATOM
M  V30 1 C 6.840101 0.941297 3.642895 0
M  V30 2 C 5.884749 1.475780 4.659616 0
M  V30 3 C 5.548039 0.416314 5.694173 0
M  V30 4 N 4.674991 2.008084 4.082316 0
M  V30 5 C 3.773872 1.217211 3.320845 0
M  V30 6 C 3.973040 -0.123984 3.073587 0
M  V30 7 N 3.146613 -0.904070 2.358186 0
M  V30 8 C 2.012462 -0.369799 1.816904 0
M  V30 9 C 1.755914 0.969265 2.028838 0
M  V30 10 C 0.534062 1.502402 1.433977 0
M  V30 11 C 0.100209 2.807169 1.529035 0
M  V30 12 C -1.067853 3.243687 0.940320 0
M  V30 13 C -1.856680 2.369765 0.221865 0
M  V30 14 N -3.024013 2.494430 -0.451959 0
M  V30 15 N -3.310267 1.312922 -0.949981 0
M  V30 16 C -2.355173 0.401036 -0.621032 0
M  V30 17 C -2.321644 -1.024738 -0.992087 0
M  V30 18 N -3.272142 -1.623678 -1.732721 0
M  V30 19 C -2.949217 -2.915152 -1.891320 0
M  V30 20 C -3.549908 -3.970066 -2.545008 0
M  V30 21 C -4.812865 -3.805877 -3.265572 0
M  V30 22 C -5.092924 -4.303035 -4.527915 0
M  V30 23 C -6.338508 -4.058282 -5.067113 0
M  V30 24 C -7.302397 -3.341477 -4.394479 0
M  V30 25 N -7.017876 -2.855687 -3.151891 0
M  V30 26 C -5.793478 -3.094724 -2.618647 0
M  V30 27 N -2.948868 -5.173373 -2.510821 0
M  V30 28 C -1.795014 -5.417230 -1.878173 0
M  V30 29 C -1.193970 -4.353126 -1.221741 0
M  V30 30 C -1.741995 -3.079742 -1.204562 0
M  V30 31 N -1.375913 -1.925966 -0.666002 0
M  V30 32 C -1.413270 1.073364 0.134885 0
M  V30 33 N -0.252148 0.670465 0.728627 0
M  V30 34 C 2.626275 1.741895 2.768810 0
M  V30 35 H 6.353730 1.018774 2.644668 0
M  V30 36 H 7.134414 -0.114889 3.807046 0
M  V30 37 H 7.740248 1.582899 3.618823 0
M  V30 38 H 6.390765 2.292968 5.212031 0
M  V30 39 H 4.441868 0.227875 5.657646 0
M  V30 40 H 6.135793 -0.491743 5.454931 0
M  V30 41 H 5.839731 0.723935 6.725490 0
M  V30 42 H 4.414127 3.028232 4.210548 0
M  V30 43 H 4.823685 -0.632824 3.451716 0
M  V30 44 H 1.363742 -1.022269 1.244303 0
M  V30 45 H 0.711846 3.496358 2.089303 0
M  V30 46 H -1.350275 4.286142 1.055230 0
M  V30 47 H -3.568915 3.386975 -0.537412 0
M  V30 48 H -4.314348 -4.851955 -5.009101 0
M  V30 49 H -6.561833 -4.446026 -6.055720 0
M  V30 50 H -8.279481 -3.153881 -4.826499 0
M  V30 51 H -5.724523 -2.644771 -1.630928 0
M  V30 52 H -1.341282 -6.412601 -1.876245 0
M  V30 53 H -0.255160 -4.550272 -0.706683 0
M  V30 54 H -0.515622 -1.759439 -0.098711 0
M  V30 55 H 2.422374 2.790496 2.932959 0
M  V30 END ATOM
M  V30 BEGIN BOND
M  V30 1 1 1 2
M  V30 2 1 2 3
M  V30 3 1 2 4
M  V30 4 1 4 5
M  V30 5 2 5 6
M  V30 6 1 6 7
M  V30 7 2 7 8
M  V30 8 1 8 9
M  V30 9 1 9 10
M  V30 10 2 10 11
M  V30 11 1 11 12
M  V30 12 2 12 13
M  V30 13 1 13 14
M  V30 14 1 14 15
M  V30 15 2 15 16
M  V30 16 1 16 17
M  V30 17 2 17 18
M  V30 18 1 18 19
M  V30 19 2 19 20
M  V30 20 1 20 21
M  V30 21 2 21 22
M  V30 22 1 22 23
M  V30 23 2 23 24
M  V30 24 1 24 25
M  V30 25 2 25 26
M  V30 26 1 20 27
M  V30 27 2 27 28
M  V30 28 1 28 29
M  V30 29 2 29 30
M  V30 30 1 30 31
M  V30 31 1 16 32
M  V30 32 2 32 33
M  V30 33 2 9 34
M  V30 34 1 34 5
M  V30 35 1 33 10
M  V30 36 1 32 13
M  V30 37 1 31 17
M  V30 38 1 30 19
M  V30 39 1 26 21
M  V30 40 1 1 35
M  V30 41 1 1 36
M  V30 42 1 1 37
M  V30 43 1 2 38
M  V30 44 1 3 39
M  V30 45 1 3 40
M  V30 46 1 3 41
M  V30 47 1 4 42
M  V30 48 1 6 43
M  V30 49 1 8 44
M  V30 50 1 11 45
M  V30 51 1 12 46
M  V30 52 1 14 47
M  V30 53 1 22 48
M  V30 54 1 23 49
M  V30 55 1 24 50
M  V30 56 1 26 51
M  V30 57 1 28 52
M  V30 58 1 29 53
M  V30 59 1 31 54
M  V30 60 1 34 55
M  V30 END BOND
M  V30 END CTAB
M  END
>  <Dataset>  (295) 
ChEMBL_Kinases

>  <Ligand_Instance>  (295) 
nan

>  <PDB_ID>  (295) 
nan

>  <Standardized_SMILES>  (295) 
CC(C)Nc1cncc(-c2ccc3[nH]nc(-c4nc5c(-c6cccnc6)nccc5[nH]4)c3n2)c1

>  <Name>  (295) 
nan

>  <Pocket>  (295) 
nan

>  <ATP_Site>  (295) 
nan

>  <Peripheral>  (295) 
nan

>  <Num_H_Atoms_ProtBoundConf>  (295) 
nan

>  <Num_Resolved_Atoms>  (295) 
nan

>  <Num_Not_Resolved_Atoms>  (295) 
nan

$$$$
CHEMBL4763425
     RDKit          3D

  0  0  0  0  0  0  0  0  0  0999 V3000
M  V30 BEGIN CTAB
M  V30 COUNTS 63 69 0 0 0
M  V30 BEGIN ATOM
M  V30 1 O 2.195323 1.905028 3.229543 0
M  V30 2 C 3.208976 1.961154 2.484410 0
M  V30 3 C 4.469573 1.162541 2.417789 0
M  V30 4 C 4.375763 0.133713 3.486178 0
M  V30 5 C 4.791581 0.232726 4.796483 0
M  V30 6 C 4.633242 -0.817794 5.669090 0
M  V30 7 C 4.049429 -2.029061 5.281186 0
M  V30 8 C 3.628197 -2.143991 3.973838 0
M  V30 9 C 3.794910 -1.079805 3.112077 0
M  V30 10 N 3.093688 3.000238 1.533078 0
M  V30 11 C 1.885066 3.769251 1.593059 0
M  V30 12 C 1.579830 4.918625 2.286483 0
M  V30 13 N 0.361959 5.441390 2.170109 0
M  V30 14 C -0.587948 4.890553 1.399363 0
M  V30 15 C -0.356558 3.734737 0.672090 0
M  V30 16 C -1.407865 3.148546 -0.164476 0
M  V30 17 C -2.340206 3.960445 -0.777996 0
M  V30 18 C -3.317745 3.373980 -1.555348 0
M  V30 19 C -3.328617 2.003671 -1.691066 0
M  V30 20 N -4.131325 1.168194 -2.360746 0
M  V30 21 N -3.739272 -0.073839 -2.185540 0
M  V30 22 C -2.645510 -0.148714 -1.384952 0
M  V30 23 C -1.975367 -1.372856 -0.999634 0
M  V30 24 N -2.405474 -2.579609 -1.422072 0
M  V30 25 C -1.652557 -3.582385 -0.955483 0
M  V30 26 C -1.702978 -4.953385 -1.113041 0
M  V30 27 C -2.788579 -5.500735 -1.958039 0
M  V30 28 C -3.545126 -6.600831 -1.599017 0
M  V30 29 C -4.549393 -7.079371 -2.414206 0
M  V30 30 C -4.763437 -6.402642 -3.612431 0
M  V30 31 C -4.004815 -5.305030 -3.965178 0
M  V30 32 F -4.259074 -4.680584 -5.151076 0
M  V30 33 C -2.998589 -4.828776 -3.144379 0
M  V30 34 C -0.762852 -5.731516 -0.489320 0
M  V30 35 N 0.189913 -5.142943 0.263912 0
M  V30 36 C 0.258501 -3.801977 0.432253 0
M  V30 37 C -0.668931 -3.006849 -0.180794 0
M  V30 38 N -0.919742 -1.691901 -0.250307 0
M  V30 39 C -2.407222 1.171508 -1.087531 0
M  V30 40 C -1.460878 1.781714 -0.331148 0
M  V30 41 C 0.910988 3.175528 0.782227 0
M  V30 42 H 5.355647 1.805347 2.602392 0
M  V30 43 H 4.548229 0.689332 1.439912 0
M  V30 44 H 5.236044 1.181403 5.055693 0
M  V30 45 H 4.966890 -0.716880 6.692279 0
M  V30 46 H 3.922703 -2.858737 5.962601 0
M  V30 47 H 3.164328 -3.061385 3.605255 0
M  V30 48 H 3.439706 -1.228302 2.080600 0
M  V30 49 H 3.768480 3.281807 0.794688 0
M  V30 50 H 2.425363 5.260304 2.867083 0
M  V30 51 H -1.550511 5.364812 1.350843 0
M  V30 52 H -2.338182 5.040962 -0.676010 0
M  V30 53 H -4.080394 3.950587 -2.065759 0
M  V30 54 H -4.963702 1.370855 -2.956990 0
M  V30 55 H -3.303588 -7.056314 -0.652143 0
M  V30 56 H -5.133843 -7.940964 -2.121790 0
M  V30 57 H -5.553770 -6.772617 -4.262683 0
M  V30 58 H -2.450122 -3.963676 -3.493565 0
M  V30 59 H -0.803827 -6.805559 -0.614095 0
M  V30 60 H 1.008962 -3.299377 1.029109 0
M  V30 61 H -0.325032 -1.024702 0.245973 0
M  V30 62 H -0.716299 1.203566 0.166041 0
M  V30 63 H 1.020575 2.268025 0.181473 0
M  V30 END ATOM
M  V30 BEGIN BOND
M  V30 1 2 1 2
M  V30 2 1 2 3
M  V30 3 1 3 4
M  V30 4 2 4 5
M  V30 5 1 5 6
M  V30 6 2 6 7
M  V30 7 1 7 8
M  V30 8 2 8 9
M  V30 9 1 2 10
M  V30 10 1 10 11
M  V30 11 2 11 12
M  V30 12 1 12 13
M  V30 13 2 13 14
M  V30 14 1 14 15
M  V30 15 1 15 16
M  V30 16 2 16 17
M  V30 17 1 17 18
M  V30 18 2 18 19
M  V30 19 1 19 20
M  V30 20 1 20 21
M  V30 21 2 21 22
M  V30 22 1 22 23
M  V30 23 2 23 24
M  V30 24 1 24 25
M  V30 25 2 25 26
M  V30 26 1 26 27
M  V30 27 2 27 28
M  V30 28 1 28 29
M  V30 29 2 29 30
M  V30 30 1 30 31
M  V30 31 1 31 32
M  V30 32 2 31 33
M  V30 33 1 26 34
M  V30 34 2 34 35
M  V30 35 1 35 36
M  V30 36 2 36 37
M  V30 37 1 37 38
M  V30 38 1 22 39
M  V30 39 2 39 40
M  V30 40 2 15 41
M  V30 41 1 9 4
M  V30 42 1 41 11
M  V30 43 1 40 16
M  V30 44 1 39 19
M  V30 45 1 38 23
M  V30 46 1 37 25
M  V30 47 1 33 27
M  V30 48 1 3 42
M  V30 49 1 3 43
M  V30 50 1 5 44
M  V30 51 1 6 45
M  V30 52 1 7 46
M  V30 53 1 8 47
M  V30 54 1 9 48
M  V30 55 1 10 49
M  V30 56 1 12 50
M  V30 57 1 14 51
M  V30 58 1 17 52
M  V30 59 1 18 53
M  V30 60 1 20 54
M  V30 61 1 28 55
M  V30 62 1 29 56
M  V30 63 1 30 57
M  V30 64 1 33 58
M  V30 65 1 34 59
M  V30 66 1 36 60
M  V30 67 1 38 61
M  V30 68 1 40 62
M  V30 69 1 41 63
M  V30 END BOND
M  V30 END CTAB
M  END
>  <Dataset>  (296) 
ChEMBL_Kinases

>  <Ligand_Instance>  (296) 
nan

>  <PDB_ID>  (296) 
nan

>  <Standardized_SMILES>  (296) 
O=C(Cc1ccccc1)Nc1cncc(-c2ccc3[nH]nc(-c4nc5c(-c6cccc(F)c6)cncc5[nH]4)c3c2)c1

>  <Name>  (296) 
nan

>  <Pocket>  (296) 
nan

>  <ATP_Site>  (296) 
nan

>  <Peripheral>  (296) 
nan

>  <Num_H_Atoms_ProtBoundConf>  (296) 
nan

>  <Num_Resolved_Atoms>  (296) 
nan

>  <Num_Not_Resolved_Atoms>  (296) 
nan

$$$$
CHEMBL4763405
     RDKit          3D

  0  0  0  0  0  0  0  0  0  0999 V3000
M  V30 BEGIN CTAB
M  V30 COUNTS 59 64 0 0 0
M  V30 BEGIN ATOM
M  V30 1 C 3.837030 -1.403542 6.436252 0
M  V30 2 C 4.685798 -1.749013 5.301464 0
M  V30 3 C 6.064486 -1.791166 5.466212 0
M  V30 4 C 6.961244 -2.103982 4.465685 0
M  V30 5 N 6.413244 -2.379192 3.267110 0
M  V30 6 C 5.084379 -2.345828 3.080231 0
M  V30 7 C 4.163052 -2.036217 4.062459 0
M  V30 8 C 2.725473 -2.013226 3.810466 0
M  V30 9 C 1.818548 -2.596091 4.673103 0
M  V30 10 N 0.502208 -2.545564 4.394669 0
M  V30 11 C 0.059635 -1.932367 3.283170 0
M  V30 12 N -1.153264 -1.722657 2.747783 0
M  V30 13 N -1.059174 -1.054647 1.620789 0
M  V30 14 C 0.233795 -0.765556 1.316103 0
M  V30 15 C 0.680384 -0.041823 0.144013 0
M  V30 16 N -0.193394 0.419943 -0.777986 0
M  V30 17 C 0.389038 1.050031 -1.772058 0
M  V30 18 C -0.130769 1.667270 -2.909012 0
M  V30 19 C -1.581821 1.657026 -3.109874 0
M  V30 20 C -2.384242 2.702103 -3.499051 0
M  V30 21 C -3.715497 2.460202 -3.620729 0
M  V30 22 F -4.514124 3.487471 -4.004889 0
M  V30 23 C -4.314544 1.256601 -3.385117 0
M  V30 24 C -3.526525 0.186621 -2.991328 0
M  V30 25 C -4.093064 -1.180341 -2.706923 0
M  V30 26 N -4.460362 -1.298251 -1.327661 0
M  V30 27 S -5.117016 -2.838968 -0.929083 0
M  V30 28 C -6.612524 -3.171999 -1.839658 0
M  V30 29 O -5.416967 -2.872402 0.536410 0
M  V30 30 O -4.108604 -3.907993 -1.277842 0
M  V30 31 C -2.149814 0.400872 -2.855998 0
M  V30 32 N 0.764183 2.236432 -3.752794 0
M  V30 33 C 2.085584 2.202930 -3.498548 0
M  V30 34 C 2.633241 1.601112 -2.383990 0
M  V30 35 C 1.728641 1.024863 -1.529583 0
M  V30 36 N 1.842803 0.359041 -0.370554 0
M  V30 37 C 0.901863 -1.328785 2.375576 0
M  V30 38 C 2.242310 -1.390929 2.677398 0
M  V30 39 H 3.751388 -2.256272 7.148738 0
M  V30 40 H 2.885987 -0.902372 6.203244 0
M  V30 41 H 4.411609 -0.635970 7.035937 0
M  V30 42 H 6.469103 -1.564058 6.443925 0
M  V30 43 H 8.010721 -2.111851 4.685061 0
M  V30 44 H 4.692352 -2.580013 2.078606 0
M  V30 45 H 2.150092 -3.095914 5.573590 0
M  V30 46 H -2.079149 -2.022035 3.123848 0
M  V30 47 H -1.874270 3.617412 -3.670566 0
M  V30 48 H -5.374254 1.055842 -3.479746 0
M  V30 49 H -4.917286 -1.420912 -3.394118 0
M  V30 50 H -3.284229 -1.915894 -2.910722 0
M  V30 51 H -5.228706 -0.598097 -1.139725 0
M  V30 52 H -6.738675 -4.264643 -1.909690 0
M  V30 53 H -7.487543 -2.802693 -1.256374 0
M  V30 54 H -6.600638 -2.743804 -2.845931 0
M  V30 55 H -1.571977 -0.473262 -2.543574 0
M  V30 56 H 2.768503 2.673616 -4.204810 0
M  V30 57 H 3.675869 1.549369 -2.139815 0
M  V30 58 H 2.758106 0.179964 0.073007 0
M  V30 59 H 2.966631 -0.945327 2.022446 0
M  V30 END ATOM
M  V30 BEGIN BOND
M  V30 1 1 1 2
M  V30 2 2 2 3
M  V30 3 1 3 4
M  V30 4 2 4 5
M  V30 5 1 5 6
M  V30 6 2 6 7
M  V30 7 1 7 8
M  V30 8 2 8 9
M  V30 9 1 9 10
M  V30 10 2 10 11
M  V30 11 1 11 12
M  V30 12 1 12 13
M  V30 13 2 13 14
M  V30 14 1 14 15
M  V30 15 2 15 16
M  V30 16 1 16 17
M  V30 17 2 17 18
M  V30 18 1 18 19
M  V30 19 2 19 20
M  V30 20 1 20 21
M  V30 21 1 21 22
M  V30 22 2 21 23
M  V30 23 1 23 24
M  V30 24 1 24 25
M  V30 25 1 25 26
M  V30 26 1 26 27
M  V30 27 1 27 28
M  V30 28 2 27 29
M  V30 29 2 27 30
M  V30 30 2 24 31
M  V30 31 1 18 32
M  V30 32 2 32 33
M  V30 33 1 33 34
M  V30 34 2 34 35
M  V30 35 1 35 36
M  V30 36 1 14 37
M  V30 37 2 37 38
M  V30 38 1 7 2
M  V30 39 1 38 8
M  V30 40 1 37 11
M  V30 41 1 36 15
M  V30 42 1 35 17
M  V30 43 1 31 19
M  V30 44 1 1 39
M  V30 45 1 1 40
M  V30 46 1 1 41
M  V30 47 1 3 42
M  V30 48 1 4 43
M  V30 49 1 6 44
M  V30 50 1 9 45
M  V30 51 1 12 46
M  V30 52 1 20 47
M  V30 53 1 23 48
M  V30 54 1 25 49
M  V30 55 1 25 50
M  V30 56 1 26 51
M  V30 57 1 28 52
M  V30 58 1 28 53
M  V30 59 1 28 54
M  V30 60 1 31 55
M  V30 61 1 33 56
M  V30 62 1 34 57
M  V30 63 1 36 58
M  V30 64 1 38 59
M  V30 END BOND
M  V30 END CTAB
M  END
>  <Dataset>  (297) 
ChEMBL_Kinases

>  <Ligand_Instance>  (297) 
nan

>  <PDB_ID>  (297) 
nan

>  <Standardized_SMILES>  (297) 
Cc1ccncc1-c1cnc2[nH]nc(-c3nc4c(-c5cc(F)cc(CNS(C)(=O)=O)c5)nccc4[nH]3)c2c1

>  <Name>  (297) 
nan

>  <Pocket>  (297) 
nan

>  <ATP_Site>  (297) 
nan

>  <Peripheral>  (297) 
nan

>  <Num_H_Atoms_ProtBoundConf>  (297) 
nan

>  <Num_Resolved_Atoms>  (297) 
nan

>  <Num_Not_Resolved_Atoms>  (297) 
nan

$$$$
CHEMBL4763400
     RDKit          3D

  0  0  0  0  0  0  0  0  0  0999 V3000
M  V30 BEGIN CTAB
M  V30 COUNTS 67 73 0 0 0
M  V30 BEGIN ATOM
M  V30 1 C 6.790714 -1.907065 5.497453 0
M  V30 2 N 6.221045 -0.973594 4.544868 0
M  V30 3 C 4.877175 -0.581371 4.910477 0
M  V30 4 C 3.831717 -1.350339 4.133894 0
M  V30 5 N 3.981459 -1.145069 2.712664 0
M  V30 6 C 3.041627 -1.265161 1.677162 0
M  V30 7 C 3.359776 -2.210148 0.720947 0
M  V30 8 C 2.513183 -2.435035 -0.363211 0
M  V30 9 N 1.366194 -1.736440 -0.503063 0
M  V30 10 C 1.033746 -0.810398 0.414855 0
M  V30 11 N 0.009849 0.043101 0.593874 0
M  V30 12 C 0.148115 0.784167 1.703310 0
M  V30 13 C -0.741391 1.809611 2.235078 0
M  V30 14 N -0.578932 2.541446 3.354908 0
M  V30 15 N -1.606055 3.377977 3.507285 0
M  V30 16 C -2.429566 3.174076 2.471745 0
M  V30 17 C -3.631856 3.735154 2.096589 0
M  V30 18 C -4.234430 3.274816 0.927090 0
M  V30 19 C -3.705407 2.291675 0.117758 0
M  V30 20 C -4.378096 1.844903 -1.096681 0
M  V30 21 C -5.577687 2.321467 -1.581574 0
M  V30 22 N -6.113836 1.831299 -2.724960 0
M  V30 23 C -5.496451 0.864100 -3.426758 0
M  V30 24 C -4.293142 0.329795 -3.014430 0
M  V30 25 N -3.568051 -0.700158 -3.698429 0
M  V30 26 C -3.994336 -1.966301 -3.206622 0
M  V30 27 O -4.865760 -1.923485 -2.327232 0
M  V30 28 C -3.487731 -3.258910 -3.656995 0
M  V30 29 C -4.040371 -4.365778 -3.046492 0
M  V30 30 C -3.624453 -5.653891 -3.404780 0
M  V30 31 C -2.641075 -5.801774 -4.390096 0
M  V30 32 C -2.116097 -4.659002 -4.974410 0
M  V30 33 C -2.517922 -3.385461 -4.629669 0
M  V30 34 C -3.775446 0.852733 -1.845026 0
M  V30 35 N -2.532271 1.764984 0.511248 0
M  V30 36 C -1.939071 2.194779 1.631558 0
M  V30 37 C 1.346290 0.404635 2.313734 0
M  V30 38 C 1.860969 -0.576426 1.493017 0
M  V30 39 C 5.330801 -0.749682 2.308863 0
M  V30 40 C 6.288571 -1.503683 3.199011 0
M  V30 41 H 6.149412 -1.821490 6.418803 0
M  V30 42 H 7.821645 -1.572720 5.709959 0
M  V30 43 H 6.718342 -2.952454 5.173150 0
M  V30 44 H 4.745219 -0.819028 5.983142 0
M  V30 45 H 4.733601 0.498629 4.713544 0
M  V30 46 H 3.821966 -2.424621 4.424034 0
M  V30 47 H 2.841170 -0.953281 4.433388 0
M  V30 48 H 4.245052 -2.853940 0.690288 0
M  V30 49 H 2.694263 -3.161768 -1.157633 0
M  V30 50 H -0.815366 0.124168 -0.065044 0
M  V30 51 H -1.779112 4.078934 4.273945 0
M  V30 52 H -4.076102 4.507827 2.706100 0
M  V30 53 H -5.171666 3.756261 0.693253 0
M  V30 54 H -6.064131 3.097261 -1.010709 0
M  V30 55 H -5.924457 0.459190 -4.357734 0
M  V30 56 H -2.819922 -0.704554 -4.455131 0
M  V30 57 H -4.797157 -4.403737 -2.280958 0
M  V30 58 H -4.011754 -6.564386 -2.970404 0
M  V30 59 H -2.271187 -6.764093 -4.717426 0
M  V30 60 H -1.356801 -4.757396 -5.736155 0
M  V30 61 H -2.097435 -2.500501 -5.096431 0
M  V30 62 H -2.821702 0.442984 -1.499953 0
M  V30 63 H 1.752995 0.800145 3.214560 0
M  V30 64 H 5.516037 -0.913708 1.243159 0
M  V30 65 H 5.416473 0.337370 2.599486 0
M  V30 66 H 7.324264 -1.318872 2.815675 0
M  V30 67 H 6.125318 -2.597981 3.172905 0
M  V30 END ATOM
M  V30 BEGIN BOND
M  V30 1 1 1 2
M  V30 2 1 2 3
M  V30 3 1 3 4
M  V30 4 1 4 5
M  V30 5 1 5 6
M  V30 6 2 6 7
M  V30 7 1 7 8
M  V30 8 2 8 9
M  V30 9 1 9 10
M  V30 10 1 10 11
M  V30 11 1 11 12
M  V30 12 1 12 13
M  V30 13 2 13 14
M  V30 14 1 14 15
M  V30 15 1 15 16
M  V30 16 2 16 17
M  V30 17 1 17 18
M  V30 18 2 18 19
M  V30 19 1 19 20
M  V30 20 2 20 21
M  V30 21 1 21 22
M  V30 22 2 22 23
M  V30 23 1 23 24
M  V30 24 1 24 25
M  V30 25 1 25 26
M  V30 26 2 26 27
M  V30 27 1 26 28
M  V30 28 2 28 29
M  V30 29 1 29 30
M  V30 30 2 30 31
M  V30 31 1 31 32
M  V30 32 2 32 33
M  V30 33 2 24 34
M  V30 34 1 19 35
M  V30 35 2 35 36
M  V30 36 2 12 37
M  V30 37 1 37 38
M  V30 38 1 5 39
M  V30 39 1 39 40
M  V30 40 1 40 2
M  V30 41 1 38 6
M  V30 42 2 38 10
M  V30 43 1 36 13
M  V30 44 1 36 16
M  V30 45 1 34 20
M  V30 46 1 33 28
M  V30 47 1 1 41
M  V30 48 1 1 42
M  V30 49 1 1 43
M  V30 50 1 3 44
M  V30 51 1 3 45
M  V30 52 1 4 46
M  V30 53 1 4 47
M  V30 54 1 7 48
M  V30 55 1 8 49
M  V30 56 1 11 50
M  V30 57 1 15 51
M  V30 58 1 17 52
M  V30 59 1 18 53
M  V30 60 1 21 54
M  V30 61 1 23 55
M  V30 62 1 25 56
M  V30 63 1 29 57
M  V30 64 1 30 58
M  V30 65 1 31 59
M  V30 66 1 32 60
M  V30 67 1 33 61
M  V30 68 1 34 62
M  V30 69 1 37 63
M  V30 70 1 39 64
M  V30 71 1 39 65
M  V30 72 1 40 66
M  V30 73 1 40 67
M  V30 END BOND
M  V30 END CTAB
M  END
>  <Dataset>  (298) 
ChEMBL_Kinases

>  <Ligand_Instance>  (298) 
nan

>  <PDB_ID>  (298) 
nan

>  <Standardized_SMILES>  (298) 
CN1CCN(c2ccnc3[nH]c(-c4n[nH]c5ccc(-c6cncc(NC(=O)c7ccccc7)c6)nc45)cc23)CC1

>  <Name>  (298) 
nan

>  <Pocket>  (298) 
nan

>  <ATP_Site>  (298) 
nan

>  <Peripheral>  (298) 
nan

>  <Num_H_Atoms_ProtBoundConf>  (298) 
nan

>  <Num_Resolved_Atoms>  (298) 
nan

>  <Num_Not_Resolved_Atoms>  (298) 
nan

$$$$
CHEMBL4763957
     RDKit          3D

  0  0  0  0  0  0  0  0  0  0999 V3000
M  V30 BEGIN CTAB
M  V30 COUNTS 44 49 0 0 0
M  V30 BEGIN ATOM
M  V30 1 F 4.117240 -0.431176 2.416963 0
M  V30 2 C 3.965987 -1.152839 1.273693 0
M  V30 3 C 4.095079 -2.528690 1.407850 0
M  V30 4 C 3.952835 -3.312109 0.285781 0
M  V30 5 C 3.690789 -2.777510 -0.943443 0
M  V30 6 C 3.559676 -1.412167 -1.093405 0
M  V30 7 C 3.698147 -0.590650 0.024036 0
M  V30 8 C 3.592994 0.869278 0.057614 0
M  V30 9 C 4.662615 1.736849 -0.129433 0
M  V30 10 N 4.457148 3.064494 -0.078457 0
M  V30 11 C 3.246594 3.606433 0.148578 0
M  V30 12 C 2.138153 2.784742 0.343066 0
M  V30 13 N 0.832252 2.998631 0.584854 0
M  V30 14 C 0.142172 1.832634 0.699624 0
M  V30 15 C -1.278548 1.853766 0.961623 0
M  V30 16 N -2.023617 2.958440 1.109456 0
M  V30 17 N -3.291927 2.678123 1.340786 0
M  V30 18 C -3.462012 1.356058 1.359684 0
M  V30 19 N -4.521008 0.541243 1.548433 0
M  V30 20 C -4.417103 -0.801467 1.517766 0
M  V30 21 C -3.161787 -1.347892 1.281059 0
M  V30 22 C -2.988653 -2.793931 1.239338 0
M  V30 23 C -2.023789 -3.399944 0.431285 0
M  V30 24 N -2.080489 -4.746774 0.588892 0
M  V30 25 N -3.052356 -5.018554 1.473146 0
M  V30 26 C -3.609833 -3.849319 1.874752 0
M  V30 27 C -2.087427 -0.513579 1.089550 0
M  V30 28 C -2.200709 0.851252 1.122296 0
M  V30 29 C 1.115288 0.897560 0.511620 0
M  V30 30 C 2.349279 1.422139 0.290607 0
M  V30 31 H 4.302769 -3.007512 2.356107 0
M  V30 32 H 4.053529 -4.404207 0.385726 0
M  V30 33 H 3.570740 -3.366256 -1.860403 0
M  V30 34 H 3.353797 -0.858222 -2.007277 0
M  V30 35 H 5.629920 1.299604 -0.311354 0
M  V30 36 H 3.106757 4.677734 0.184913 0
M  V30 37 H 0.510309 3.990782 0.654012 0
M  V30 38 H -4.014601 3.415766 1.481454 0
M  V30 39 H -5.263119 -1.435900 1.669260 0
M  V30 40 H -1.286503 -3.014785 -0.254086 0
M  V30 41 H -3.358537 -5.952545 1.819591 0
M  V30 42 H -4.415695 -3.675873 2.576958 0
M  V30 43 H -1.147341 -0.958993 0.911839 0
M  V30 44 H 0.938872 -0.155454 0.533235 0
M  V30 END ATOM
M  V30 BEGIN BOND
M  V30 1 1 1 2
M  V30 2 2 2 3
M  V30 3 1 3 4
M  V30 4 2 4 5
M  V30 5 1 5 6
M  V30 6 2 6 7
M  V30 7 1 7 8
M  V30 8 2 8 9
M  V30 9 1 9 10
M  V30 10 2 10 11
M  V30 11 1 11 12
M  V30 12 1 12 13
M  V30 13 1 13 14
M  V30 14 1 14 15
M  V30 15 2 15 16
M  V30 16 1 16 17
M  V30 17 1 17 18
M  V30 18 2 18 19
M  V30 19 1 19 20
M  V30 20 2 20 21
M  V30 21 1 21 22
M  V30 22 1 22 23
M  V30 23 2 23 24
M  V30 24 1 24 25
M  V30 25 1 25 26
M  V30 26 1 21 27
M  V30 27 2 27 28
M  V30 28 2 14 29
M  V30 29 1 29 30
M  V30 30 1 7 2
M  V30 31 1 30 8
M  V30 32 2 30 12
M  V30 33 1 28 15
M  V30 34 1 28 18
M  V30 35 2 26 22
M  V30 36 1 3 31
M  V30 37 1 4 32
M  V30 38 1 5 33
M  V30 39 1 6 34
M  V30 40 1 9 35
M  V30 41 1 11 36
M  V30 42 1 13 37
M  V30 43 1 17 38
M  V30 44 1 20 39
M  V30 45 1 23 40
M  V30 46 1 25 41
M  V30 47 1 26 42
M  V30 48 1 27 43
M  V30 49 1 29 44
M  V30 END BOND
M  V30 END CTAB
M  END
>  <Dataset>  (299) 
ChEMBL_Kinases

>  <Ligand_Instance>  (299) 
nan

>  <PDB_ID>  (299) 
nan

>  <Standardized_SMILES>  (299) 
Fc1ccccc1-c1cncc2[nH]c(-c3n[nH]c4ncc(-c5cn[nH]c5)cc34)cc12

>  <Name>  (299) 
nan

>  <Pocket>  (299) 
nan

>  <ATP_Site>  (299) 
nan

>  <Peripheral>  (299) 
nan

>  <Num_H_Atoms_ProtBoundConf>  (299) 
nan

>  <Num_Resolved_Atoms>  (299) 
nan

>  <Num_Not_Resolved_Atoms>  (299) 
nan

$$$$
CHEMBL4784341
     RDKit          3D

  0  0  0  0  0  0  0  0  0  0999 V3000
M  V30 BEGIN CTAB
M  V30 COUNTS 67 72 0 0 0
M  V30 BEGIN ATOM
M  V30 1 C 2.122974 -2.399760 7.074080 0
M  V30 2 C 2.564837 -3.634205 6.278491 0
M  V30 3 C 3.895670 -4.103867 6.760506 0
M  V30 4 C 1.466962 -4.655378 6.423887 0
M  V30 5 C 2.689997 -3.191931 4.859792 0
M  V30 6 O 3.678933 -3.186976 4.075312 0
M  V30 7 N 1.451672 -2.700337 4.355150 0
M  V30 8 C 1.289037 -2.207926 3.010774 0
M  V30 9 C 0.921471 -3.135279 2.053234 0
M  V30 10 N 0.757533 -2.722076 0.781789 0
M  V30 11 C 0.946193 -1.416820 0.426489 0
M  V30 12 C 1.315239 -0.515178 1.417912 0
M  V30 13 C 1.503803 0.870036 0.978595 0
M  V30 14 C 2.405300 1.741697 1.560867 0
M  V30 15 C 2.546529 3.049310 1.105507 0
M  V30 16 C 1.779924 3.511865 0.048515 0
M  V30 17 N 1.751146 4.733247 -0.553350 0
M  V30 18 N 0.830771 4.657258 -1.527632 0
M  V30 19 C 0.301007 3.427596 -1.534767 0
M  V30 20 C -0.732902 2.964210 -2.452468 0
M  V30 21 N -1.300608 1.745544 -2.505378 0
M  V30 22 C -2.218680 1.709080 -3.495045 0
M  V30 23 C -3.047046 0.695828 -3.930105 0
M  V30 24 N -3.073709 -0.602494 -3.350802 0
M  V30 25 C -3.909003 -1.717252 -3.758635 0
M  V30 26 C -3.092878 -2.985738 -3.860723 0
M  V30 27 C -2.501612 -3.350010 -2.516317 0
M  V30 28 C -2.428841 -2.188500 -1.581694 0
M  V30 29 C -2.185176 -0.860883 -2.238057 0
M  V30 30 C -3.858719 1.058369 -4.989959 0
M  V30 31 N -3.890044 2.245886 -5.579391 0
M  V30 32 C -3.079794 3.241204 -5.155763 0
M  V30 33 C -2.249495 2.943365 -4.105727 0
M  V30 34 N -1.325722 3.669529 -3.432123 0
M  V30 35 C 0.878021 2.659684 -0.543189 0
M  V30 36 C 0.752381 1.367608 -0.077978 0
M  V30 37 C 1.499068 -0.874900 2.737747 0
M  V30 38 H 1.140815 -2.042693 6.733570 0
M  V30 39 H 2.008767 -2.694171 8.146422 0
M  V30 40 H 2.905437 -1.609317 7.056722 0
M  V30 41 H 4.696758 -3.577075 6.239245 0
M  V30 42 H 3.963198 -3.930616 7.855046 0
M  V30 43 H 3.973570 -5.198956 6.558177 0
M  V30 44 H 0.506435 -4.128538 6.250410 0
M  V30 45 H 1.597471 -5.503174 5.745018 0
M  V30 46 H 1.456619 -4.962266 7.505388 0
M  V30 47 H 0.495404 -2.588482 4.765931 0
M  V30 48 H 0.764791 -4.176102 2.305004 0
M  V30 49 H 0.804374 -1.126338 -0.604775 0
M  V30 50 H 3.001009 1.365414 2.390059 0
M  V30 51 H 3.251151 3.725053 1.563270 0
M  V30 52 H 2.332166 5.579147 -0.310957 0
M  V30 53 H -4.399616 -1.565460 -4.730344 0
M  V30 54 H -4.655897 -1.874250 -2.930164 0
M  V30 55 H -2.302419 -2.851219 -4.625408 0
M  V30 56 H -3.775493 -3.779405 -4.245938 0
M  V30 57 H -1.547862 -3.888410 -2.661180 0
M  V30 58 H -3.234959 -4.073107 -2.053559 0
M  V30 59 H -3.340087 -2.116152 -0.928335 0
M  V30 60 H -1.567606 -2.355480 -0.879558 0
M  V30 61 H -2.434613 -0.073534 -1.478498 0
M  V30 62 H -1.118706 -0.744328 -2.486497 0
M  V30 63 H -4.549429 0.347880 -5.415568 0
M  V30 64 H -3.100970 4.211867 -5.632707 0
M  V30 65 H -1.132507 4.670432 -3.688000 0
M  V30 66 H 0.032028 0.772250 -0.590390 0
M  V30 67 H 1.786696 -0.154993 3.492849 0
M  V30 END ATOM
M  V30 BEGIN BOND
M  V30 1 1 1 2
M  V30 2 1 2 3
M  V30 3 1 2 4
M  V30 4 1 2 5
M  V30 5 2 5 6
M  V30 6 1 5 7
M  V30 7 1 7 8
M  V30 8 2 8 9
M  V30 9 1 9 10
M  V30 10 2 10 11
M  V30 11 1 11 12
M  V30 12 1 12 13
M  V30 13 2 13 14
M  V30 14 1 14 15
M  V30 15 2 15 16
M  V30 16 1 16 17
M  V30 17 1 17 18
M  V30 18 2 18 19
M  V30 19 1 19 20
M  V30 20 2 20 21
M  V30 21 1 21 22
M  V30 22 2 22 23
M  V30 23 1 23 24
M  V30 24 1 24 25
M  V30 25 1 25 26
M  V30 26 1 26 27
M  V30 27 1 27 28
M  V30 28 1 28 29
M  V30 29 1 23 30
M  V30 30 2 30 31
M  V30 31 1 31 32
M  V30 32 2 32 33
M  V30 33 1 33 34
M  V30 34 1 19 35
M  V30 35 2 35 36
M  V30 36 2 12 37
M  V30 37 1 37 8
M  V30 38 1 36 13
M  V30 39 1 35 16
M  V30 40 1 34 20
M  V30 41 1 33 22
M  V30 42 1 29 24
M  V30 43 1 1 38
M  V30 44 1 1 39
M  V30 45 1 1 40
M  V30 46 1 3 41
M  V30 47 1 3 42
M  V30 48 1 3 43
M  V30 49 1 4 44
M  V30 50 1 4 45
M  V30 51 1 4 46
M  V30 52 1 7 47
M  V30 53 1 9 48
M  V30 54 1 11 49
M  V30 55 1 14 50
M  V30 56 1 15 51
M  V30 57 1 17 52
M  V30 58 1 25 53
M  V30 59 1 25 54
M  V30 60 1 26 55
M  V30 61 1 26 56
M  V30 62 1 27 57
M  V30 63 1 27 58
M  V30 64 1 28 59
M  V30 65 1 28 60
M  V30 66 1 29 61
M  V30 67 1 29 62
M  V30 68 1 30 63
M  V30 69 1 32 64
M  V30 70 1 34 65
M  V30 71 1 36 66
M  V30 72 1 37 67
M  V30 END BOND
M  V30 END CTAB
M  END
>  <Dataset>  (300) 
ChEMBL_Kinases

>  <Ligand_Instance>  (300) 
nan

>  <PDB_ID>  (300) 
nan

>  <Standardized_SMILES>  (300) 
CC(C)(C)C(=O)Nc1cncc(-c2ccc3[nH]nc(-c4nc5c(N6CCCCC6)cncc5[nH]4)c3c2)c1

>  <Name>  (300) 
nan

>  <Pocket>  (300) 
nan

>  <ATP_Site>  (300) 
nan

>  <Peripheral>  (300) 
nan

>  <Num_H_Atoms_ProtBoundConf>  (300) 
nan

>  <Num_Resolved_Atoms>  (300) 
nan

>  <Num_Not_Resolved_Atoms>  (300) 
nan

$$$$
CHEMBL4204030
     RDKit          3D

  0  0  0  0  0  0  0  0  0  0999 V3000
M  V30 BEGIN CTAB
M  V30 COUNTS 69 73 0 0 0
M  V30 BEGIN ATOM
M  V30 1 C 1.294205 -3.184738 3.821634 0
M  V30 2 C 2.432443 -3.643340 2.920360 0
M  V30 3 N 2.385517 -2.986216 1.652609 0
M  V30 4 C 2.658438 -1.596111 1.694679 0
M  V30 5 C 2.472808 -1.099859 0.246340 0
M  V30 6 N 3.645390 -1.545296 -0.484403 0
M  V30 7 C 3.570084 -1.202904 -1.886622 0
M  V30 8 C 2.879572 0.136994 -2.010718 0
M  V30 9 C 3.339663 1.422246 -1.873679 0
M  V30 10 N 2.522762 2.472294 -2.043547 0
M  V30 11 C 1.226267 2.328221 -2.353714 0
M  V30 12 N 0.310580 3.428762 -2.521933 0
M  V30 13 C -0.229125 3.753648 -1.221667 0
M  V30 14 C -1.140318 2.910415 -0.676880 0
M  V30 15 C -1.787134 3.009113 0.557616 0
M  V30 16 C -2.733551 2.015658 1.009964 0
M  V30 17 C -3.801180 2.240475 1.835695 0
M  V30 18 C -4.673294 1.270285 2.249417 0
M  V30 19 F -5.715732 1.475855 3.062322 0
M  V30 20 C -4.443203 -0.008960 1.790696 0
M  V30 21 N -5.107308 -1.155496 2.026820 0
M  V30 22 C -4.496856 -2.150652 1.365090 0
M  V30 23 C -4.964839 -3.578295 1.437966 0
M  V30 24 N -3.419728 -1.673795 0.678053 0
M  V30 25 C -2.527790 -2.431459 -0.168424 0
M  V30 26 C -2.296479 -1.797194 -1.511368 0
M  V30 27 C -1.219610 -2.785702 0.448060 0
M  V30 28 C -3.376466 -0.334004 0.939269 0
M  V30 29 C -2.527462 0.715167 0.562582 0
M  V30 30 C -1.373371 4.165199 1.248869 0
M  V30 31 C -0.451931 5.022700 0.697823 0
M  V30 32 N 0.121237 4.846708 -0.504167 0
M  V30 33 C 0.754493 1.043129 -2.496906 0
M  V30 34 N 1.559427 -0.015281 -2.329725 0
M  V30 35 C 3.926161 -2.919088 -0.331546 0
M  V30 36 C 3.030202 -3.653736 0.588066 0
M  V30 37 H 0.649555 -4.013965 4.165191 0
M  V30 38 H 0.676960 -2.418189 3.315111 0
M  V30 39 H 1.696257 -2.691578 4.749323 0
M  V30 40 H 3.367395 -3.556974 3.468343 0
M  V30 41 H 2.237060 -4.730149 2.736457 0
M  V30 42 H 3.700076 -1.324702 1.996401 0
M  V30 43 H 1.982138 -1.006546 2.348025 0
M  V30 44 H 1.537009 -1.531840 -0.121312 0
M  V30 45 H 2.378884 0.000390 0.241932 0
M  V30 46 H 3.042357 -1.996070 -2.428129 0
M  V30 47 H 4.607549 -1.050683 -2.315992 0
M  V30 48 H 4.388747 1.422872 -1.622072 0
M  V30 49 H 0.009371 3.971161 -3.361792 0
M  V30 50 H -1.443984 2.025516 -1.240049 0
M  V30 51 H -3.983487 3.252044 2.196049 0
M  V30 52 H -4.587364 -4.055333 2.369660 0
M  V30 53 H -6.066378 -3.560143 1.505285 0
M  V30 54 H -4.699300 -4.173063 0.568996 0
M  V30 55 H -3.053150 -3.416863 -0.360627 0
M  V30 56 H -1.235271 -1.498398 -1.589108 0
M  V30 57 H -2.995503 -0.939758 -1.616732 0
M  V30 58 H -2.464434 -2.556209 -2.308278 0
M  V30 59 H -0.923338 -1.989242 1.167008 0
M  V30 60 H -1.245076 -3.739813 1.034630 0
M  V30 61 H -0.406261 -2.928570 -0.298767 0
M  V30 62 H -1.733364 0.397328 -0.082384 0
M  V30 63 H -1.840384 4.306608 2.221682 0
M  V30 64 H -0.219662 5.877475 1.321761 0
M  V30 65 H -0.257125 0.777815 -2.766412 0
M  V30 66 H 3.776466 -3.387675 -1.356833 0
M  V30 67 H 5.003108 -3.054268 -0.046438 0
M  V30 68 H 2.210573 -4.181934 0.007401 0
M  V30 69 H 3.655541 -4.529765 0.987366 0
M  V30 END ATOM
M  V30 BEGIN BOND
M  V30 1 1 1 2
M  V30 2 1 2 3
M  V30 3 1 3 4
M  V30 4 1 4 5
M  V30 5 1 5 6
M  V30 6 1 6 7
M  V30 7 1 7 8
M  V30 8 2 8 9
M  V30 9 1 9 10
M  V30 10 2 10 11
M  V30 11 1 11 12
M  V30 12 1 12 13
M  V30 13 2 13 14
M  V30 14 1 14 15
M  V30 15 1 15 16
M  V30 16 2 16 17
M  V30 17 1 17 18
M  V30 18 1 18 19
M  V30 19 2 18 20
M  V30 20 1 20 21
M  V30 21 2 21 22
M  V30 22 1 22 23
M  V30 23 1 22 24
M  V30 24 1 24 25
M  V30 25 1 25 26
M  V30 26 1 25 27
M  V30 27 1 24 28
M  V30 28 2 28 29
M  V30 29 2 15 30
M  V30 30 1 30 31
M  V30 31 2 31 32
M  V30 32 1 11 33
M  V30 33 2 33 34
M  V30 34 1 6 35
M  V30 35 1 35 36
M  V30 36 1 36 3
M  V30 37 1 34 8
M  V30 38 1 32 13
M  V30 39 1 29 16
M  V30 40 1 28 20
M  V30 41 1 1 37
M  V30 42 1 1 38
M  V30 43 1 1 39
M  V30 44 1 2 40
M  V30 45 1 2 41
M  V30 46 1 4 42
M  V30 47 1 4 43
M  V30 48 1 5 44
M  V30 49 1 5 45
M  V30 50 1 7 46
M  V30 51 1 7 47
M  V30 52 1 9 48
M  V30 53 1 12 49
M  V30 54 1 14 50
M  V30 55 1 17 51
M  V30 56 1 23 52
M  V30 57 1 23 53
M  V30 58 1 23 54
M  V30 59 1 25 55
M  V30 60 1 26 56
M  V30 61 1 26 57
M  V30 62 1 26 58
M  V30 63 1 27 59
M  V30 64 1 27 60
M  V30 65 1 27 61
M  V30 66 1 29 62
M  V30 67 1 30 63
M  V30 68 1 31 64
M  V30 69 1 33 65
M  V30 70 1 35 66
M  V30 71 1 35 67
M  V30 72 1 36 68
M  V30 73 1 36 69
M  V30 END BOND
M  V30 END CTAB
M  END
>  <Dataset>  (301) 
ChEMBL_Kinases

>  <Ligand_Instance>  (301) 
nan

>  <PDB_ID>  (301) 
nan

>  <Standardized_SMILES>  (301) 
CCN1CCN(Cc2cnc(Nc3cc(-c4cc(F)c5nc(C)n(C(C)C)c5c4)ccn3)cn2)CC1

>  <Name>  (301) 
nan

>  <Pocket>  (301) 
nan

>  <ATP_Site>  (301) 
nan

>  <Peripheral>  (301) 
nan

>  <Num_H_Atoms_ProtBoundConf>  (301) 
nan

>  <Num_Resolved_Atoms>  (301) 
nan

>  <Num_Not_Resolved_Atoms>  (301) 
nan

$$$$
CHEMBL4784177
     RDKit          3D

  0  0  0  0  0  0  0  0  0  0999 V3000
M  V30 BEGIN CTAB
M  V30 COUNTS 56 61 0 0 0
M  V30 BEGIN ATOM
M  V30 1 C 6.577247 -0.420791 1.175104 0
M  V30 2 C 5.770260 -1.235325 0.213571 0
M  V30 3 C 5.785275 -2.674616 0.645892 0
M  V30 4 N 4.398377 -0.797533 0.112425 0
M  V30 5 C 4.056101 0.510262 -0.331537 0
M  V30 6 C 5.007594 1.438330 -0.697335 0
M  V30 7 N 4.682582 2.674483 -1.115717 0
M  V30 8 C 3.399173 3.071333 -1.199123 0
M  V30 9 C 2.395826 2.195199 -0.849314 0
M  V30 10 C 0.968830 2.508913 -0.897845 0
M  V30 11 C 0.479605 3.732725 -1.305721 0
M  V30 12 C -0.848155 4.026399 -1.351862 0
M  V30 13 C -1.794046 3.092093 -0.984077 0
M  V30 14 N -3.133405 3.040541 -0.908894 0
M  V30 15 N -3.482387 1.828216 -0.469307 0
M  V30 16 C -2.382743 1.084950 -0.255808 0
M  V30 17 C -2.309039 -0.296093 0.224922 0
M  V30 18 C -3.414829 -1.070429 0.543091 0
M  V30 19 C -2.875812 -2.274251 0.941858 0
M  V30 20 C -3.556889 -3.397844 1.364781 0
M  V30 21 C -5.000876 -3.565783 1.482684 0
M  V30 22 C -5.538119 -4.156998 2.631290 0
M  V30 23 C -6.896131 -4.349100 2.810855 0
M  V30 24 C -7.770738 -3.945718 1.824082 0
M  V30 25 N -7.252235 -3.369215 0.703151 0
M  V30 26 C -5.930995 -3.186772 0.537715 0
M  V30 27 C -2.840858 -4.521337 1.728567 0
M  V30 28 C -1.455523 -4.488754 1.658455 0
M  V30 29 N -0.833243 -3.375399 1.241532 0
M  V30 30 C -1.497943 -2.263851 0.879809 0
M  V30 31 N -1.171529 -1.023458 0.431468 0
M  V30 32 C -1.284493 1.865850 -0.576207 0
M  V30 33 N 0.032653 1.627137 -0.548870 0
M  V30 34 C 2.759845 0.933950 -0.423784 0
M  V30 35 H 7.531505 -0.030407 0.759084 0
M  V30 36 H 5.913145 0.386294 1.580746 0
M  V30 37 H 6.875333 -1.058959 2.029270 0
M  V30 38 H 6.196724 -1.169134 -0.817086 0
M  V30 39 H 4.970130 -2.887275 1.395677 0
M  V30 40 H 5.557570 -3.383326 -0.190291 0
M  V30 41 H 6.719877 -2.969447 1.149947 0
M  V30 42 H 3.601137 -1.439107 0.366657 0
M  V30 43 H 6.054033 1.208332 -0.663387 0
M  V30 44 H 3.134460 4.055739 -1.532057 0
M  V30 45 H 1.155400 4.514007 -1.608280 0
M  V30 46 H -1.197790 5.003543 -1.679273 0
M  V30 47 H -3.761054 3.836230 -1.160854 0
M  V30 48 H -4.454992 -0.781877 0.486552 0
M  V30 49 H -4.883422 -4.494157 3.443689 0
M  V30 50 H -7.301367 -4.806949 3.702155 0
M  V30 51 H -8.845213 -4.052374 1.871386 0
M  V30 52 H -5.563738 -2.728504 -0.362601 0
M  V30 53 H -3.191887 -5.488978 2.082904 0
M  V30 54 H -0.726497 -5.258971 1.897759 0
M  V30 55 H -0.186329 -0.706334 0.278552 0
M  V30 56 H 1.983096 0.228677 -0.143557 0
M  V30 END ATOM
M  V30 BEGIN BOND
M  V30 1 1 1 2
M  V30 2 1 2 3
M  V30 3 1 2 4
M  V30 4 1 4 5
M  V30 5 2 5 6
M  V30 6 1 6 7
M  V30 7 2 7 8
M  V30 8 1 8 9
M  V30 9 1 9 10
M  V30 10 2 10 11
M  V30 11 1 11 12
M  V30 12 2 12 13
M  V30 13 1 13 14
M  V30 14 1 14 15
M  V30 15 2 15 16
M  V30 16 1 16 17
M  V30 17 2 17 18
M  V30 18 1 18 19
M  V30 19 2 19 20
M  V30 20 1 20 21
M  V30 21 2 21 22
M  V30 22 1 22 23
M  V30 23 2 23 24
M  V30 24 1 24 25
M  V30 25 2 25 26
M  V30 26 1 20 27
M  V30 27 2 27 28
M  V30 28 1 28 29
M  V30 29 2 29 30
M  V30 30 1 30 31
M  V30 31 1 16 32
M  V30 32 2 32 33
M  V30 33 2 9 34
M  V30 34 1 34 5
M  V30 35 1 33 10
M  V30 36 1 32 13
M  V30 37 1 31 17
M  V30 38 1 30 19
M  V30 39 1 26 21
M  V30 40 1 1 35
M  V30 41 1 1 36
M  V30 42 1 1 37
M  V30 43 1 2 38
M  V30 44 1 3 39
M  V30 45 1 3 40
M  V30 46 1 3 41
M  V30 47 1 4 42
M  V30 48 1 6 43
M  V30 49 1 8 44
M  V30 50 1 11 45
M  V30 51 1 12 46
M  V30 52 1 14 47
M  V30 53 1 18 48
M  V30 54 1 22 49
M  V30 55 1 23 50
M  V30 56 1 24 51
M  V30 57 1 26 52
M  V30 58 1 27 53
M  V30 59 1 28 54
M  V30 60 1 31 55
M  V30 61 1 34 56
M  V30 END BOND
M  V30 END CTAB
M  END
>  <Dataset>  (302) 
ChEMBL_Kinases

>  <Ligand_Instance>  (302) 
nan

>  <PDB_ID>  (302) 
nan

>  <Standardized_SMILES>  (302) 
CC(C)Nc1cncc(-c2ccc3[nH]nc(-c4cc5c(-c6cccnc6)ccnc5[nH]4)c3n2)c1

>  <Name>  (302) 
nan

>  <Pocket>  (302) 
nan

>  <ATP_Site>  (302) 
nan

>  <Peripheral>  (302) 
nan

>  <Num_H_Atoms_ProtBoundConf>  (302) 
nan

>  <Num_Resolved_Atoms>  (302) 
nan

>  <Num_Not_Resolved_Atoms>  (302) 
nan

$$$$
CHEMBL4204681
     RDKit          3D

  0  0  0  0  0  0  0  0  0  0999 V3000
M  V30 BEGIN CTAB
M  V30 COUNTS 56 60 0 0 0
M  V30 BEGIN ATOM
M  V30 1 C 4.515535 -2.885435 3.379245 0
M  V30 2 O 4.875751 -2.310875 2.126361 0
M  V30 3 C 4.288231 -1.127460 1.705871 0
M  V30 4 C 3.353360 -0.493566 2.489190 0
M  V30 5 C 2.803123 0.666160 2.035139 0
M  V30 6 C 3.080096 1.302225 0.844114 0
M  V30 7 C 2.496558 2.546317 0.346382 0
M  V30 8 N 1.324066 2.401282 -0.458413 0
M  V30 9 C 0.036740 2.399260 -0.031000 0
M  V30 10 S -0.247496 2.624323 1.714663 0
M  V30 11 C -2.018356 2.584829 2.060470 0
M  V30 12 C -2.572044 1.228799 1.788618 0
M  V30 13 O -3.806949 1.085946 1.994834 0
M  V30 14 N -1.707859 0.190627 1.323399 0
M  V30 15 C -2.120970 -1.153512 1.026807 0
M  V30 16 N -2.122617 -2.051319 1.839626 0
M  V30 17 C -2.505965 -3.299863 1.559639 0
M  V30 18 C -2.522421 -4.365514 2.471732 0
M  V30 19 C -2.941893 -5.577394 2.025410 0
M  V30 20 C -3.362445 -5.898727 0.761926 0
M  V30 21 C -3.816878 -7.229891 0.297823 0
M  V30 22 F -5.205771 -7.319934 0.320833 0
M  V30 23 F -3.327858 -7.548567 -0.955543 0
M  V30 24 F -3.373275 -8.231949 1.167552 0
M  V30 25 C -3.351018 -4.861328 -0.142601 0
M  V30 26 C -2.928248 -3.592320 0.263584 0
M  V30 27 S -2.764133 -2.017927 -0.565307 0
M  V30 28 N -1.014521 2.251037 -0.850655 0
M  V30 29 C -0.904559 2.089139 -2.182999 0
M  V30 30 C 0.394093 2.087615 -2.647814 0
M  V30 31 C 1.443158 2.240706 -1.786849 0
M  V30 32 O 2.544968 2.212653 -2.401045 0
M  V30 33 S 0.184576 1.858060 -4.434492 0
M  V30 34 C -1.544094 2.488351 -4.485917 0
M  V30 35 C -2.011243 1.917754 -3.153389 0
M  V30 36 C 4.037946 0.605857 0.096864 0
M  V30 37 C 4.636170 -0.572449 0.494647 0
M  V30 38 H 3.448729 -3.199233 3.392220 0
M  V30 39 H 4.747196 -2.183426 4.211308 0
M  V30 40 H 5.135636 -3.792431 3.518337 0
M  V30 41 H 3.100919 -0.948032 3.428831 0
M  V30 42 H 2.087833 1.109565 2.694295 0
M  V30 43 H 2.269068 3.188293 1.235058 0
M  V30 44 H 3.275743 3.105736 -0.216066 0
M  V30 45 H -2.265754 2.958738 3.064738 0
M  V30 46 H -2.495082 3.264233 1.313360 0
M  V30 47 H -0.685912 0.333320 1.160082 0
M  V30 48 H -2.215427 -4.269832 3.520980 0
M  V30 49 H -2.954017 -6.414189 2.744140 0
M  V30 50 H -3.640214 -4.916412 -1.163211 0
M  V30 51 H -1.586227 3.583347 -4.434251 0
M  V30 52 H -2.113540 2.034112 -5.307661 0
M  V30 53 H -2.181887 0.822804 -3.327008 0
M  V30 54 H -2.912360 2.426074 -2.791891 0
M  V30 55 H 4.391965 0.945102 -0.865266 0
M  V30 56 H 5.373080 -1.096542 -0.093852 0
M  V30 END ATOM
M  V30 BEGIN BOND
M  V30 1 1 1 2
M  V30 2 1 2 3
M  V30 3 2 3 4
M  V30 4 1 4 5
M  V30 5 2 5 6
M  V30 6 1 6 7
M  V30 7 1 7 8
M  V30 8 1 8 9
M  V30 9 1 9 10
M  V30 10 1 10 11
M  V30 11 1 11 12
M  V30 12 2 12 13
M  V30 13 1 12 14
M  V30 14 1 14 15
M  V30 15 2 15 16
M  V30 16 1 16 17
M  V30 17 2 17 18
M  V30 18 1 18 19
M  V30 19 2 19 20
M  V30 20 1 20 21
M  V30 21 1 21 22
M  V30 22 1 21 23
M  V30 23 1 21 24
M  V30 24 1 20 25
M  V30 25 2 25 26
M  V30 26 1 26 27
M  V30 27 2 9 28
M  V30 28 1 28 29
M  V30 29 2 29 30
M  V30 30 1 30 31
M  V30 31 2 31 32
M  V30 32 1 30 33
M  V30 33 1 33 34
M  V30 34 1 34 35
M  V30 35 1 6 36
M  V30 36 2 36 37
M  V30 37 1 37 3
M  V30 38 1 31 8
M  V30 39 1 27 15
M  V30 40 1 35 29
M  V30 41 1 26 17
M  V30 42 1 1 38
M  V30 43 1 1 39
M  V30 44 1 1 40
M  V30 45 1 4 41
M  V30 46 1 5 42
M  V30 47 1 7 43
M  V30 48 1 7 44
M  V30 49 1 11 45
M  V30 50 1 11 46
M  V30 51 1 14 47
M  V30 52 1 18 48
M  V30 53 1 19 49
M  V30 54 1 25 50
M  V30 55 1 34 51
M  V30 56 1 34 52
M  V30 57 1 35 53
M  V30 58 1 35 54
M  V30 59 1 36 55
M  V30 60 1 37 56
M  V30 END BOND
M  V30 END CTAB
M  END
>  <Dataset>  (303) 
ChEMBL_Kinases

>  <Ligand_Instance>  (303) 
nan

>  <PDB_ID>  (303) 
nan

>  <Standardized_SMILES>  (303) 
COc1ccc(Cn2c(SCC(=O)Nc3nc4ccc(C(F)(F)F)cc4s3)nc3c(c2=O)SCC3)cc1

>  <Name>  (303) 
nan

>  <Pocket>  (303) 
nan

>  <ATP_Site>  (303) 
nan

>  <Peripheral>  (303) 
nan

>  <Num_H_Atoms_ProtBoundConf>  (303) 
nan

>  <Num_Resolved_Atoms>  (303) 
nan

>  <Num_Not_Resolved_Atoms>  (303) 
nan

$$$$
CHEMBL4784131
     RDKit          3D

  0  0  0  0  0  0  0  0  0  0999 V3000
M  V30 BEGIN CTAB
M  V30 COUNTS 56 61 0 0 0
M  V30 BEGIN ATOM
M  V30 1 C 3.342728 -3.528397 4.640053 0
M  V30 2 C 2.712943 -2.518264 3.741484 0
M  V30 3 C 3.705328 -1.852466 2.822160 0
M  V30 4 C 3.084567 -0.860160 1.942389 0
M  V30 5 O 1.842066 -0.770389 2.068221 0
M  V30 6 N 3.773314 -0.047833 1.016982 0
M  V30 7 C 3.248632 0.927757 0.141454 0
M  V30 8 C 4.122908 1.638997 -0.626164 0
M  V30 9 N 3.746327 2.596610 -1.484083 0
M  V30 10 C 2.450935 2.917039 -1.639290 0
M  V30 11 C 1.485934 2.255875 -0.909543 0
M  V30 12 C 0.034613 2.538069 -0.967784 0
M  V30 13 C -0.275229 3.865242 -1.190923 0
M  V30 14 C -1.606668 4.241019 -1.258853 0
M  V30 15 C -2.570239 3.273163 -1.100970 0
M  V30 16 N -3.916851 3.362573 -1.112016 0
M  V30 17 N -4.415084 2.146748 -0.907461 0
M  V30 18 C -3.391608 1.256982 -0.762279 0
M  V30 19 C -3.567362 -0.172799 -0.525606 0
M  V30 20 N -2.595297 -1.082948 -0.424211 0
M  V30 21 C -3.175100 -2.284964 -0.243014 0
M  V30 22 C -2.760309 -3.596793 -0.074659 0
M  V30 23 C -1.330893 -3.873513 -0.102342 0
M  V30 24 C -0.321441 -3.205657 0.496697 0
M  V30 25 C 0.966423 -3.641309 0.326618 0
M  V30 26 S 0.813437 -5.103384 -0.751109 0
M  V30 27 C -0.950324 -5.011997 -0.884728 0
M  V30 28 C -3.692578 -4.610973 0.090270 0
M  V30 29 C -5.045088 -4.339257 0.089522 0
M  V30 30 N -5.457664 -3.064038 -0.075277 0
M  V30 31 C -4.539167 -2.089164 -0.234245 0
M  V30 32 N -4.773111 -0.766232 -0.411925 0
M  V30 33 C -2.211182 1.959233 -0.881349 0
M  V30 34 C -0.895850 1.533355 -0.804820 0
M  V30 35 C 1.932262 1.276192 -0.039237 0
M  V30 36 H 2.672151 -3.649111 5.533958 0
M  V30 37 H 4.360718 -3.241005 4.963695 0
M  V30 38 H 3.341798 -4.508863 4.142500 0
M  V30 39 H 2.146486 -1.728518 4.294543 0
M  V30 40 H 1.965059 -3.042398 3.117480 0
M  V30 41 H 4.480006 -1.387742 3.501249 0
M  V30 42 H 4.242537 -2.636093 2.242882 0
M  V30 43 H 4.795774 -0.244338 1.033126 0
M  V30 44 H 5.199553 1.498329 -0.615783 0
M  V30 45 H 2.104439 3.686108 -2.323187 0
M  V30 46 H 0.475672 4.626992 -1.315215 0
M  V30 47 H -1.928084 5.251106 -1.429018 0
M  V30 48 H -4.512940 4.231268 -1.255360 0
M  V30 49 H -0.533115 -2.336807 1.102754 0
M  V30 50 H 1.880325 -3.203107 0.744688 0
M  V30 51 H -1.542828 -5.711313 -1.459322 0
M  V30 52 H -3.374706 -5.625035 0.221464 0
M  V30 53 H -5.781005 -5.129823 0.218551 0
M  V30 54 H -5.721504 -0.300589 -0.451890 0
M  V30 55 H -0.606163 0.516736 -0.635051 0
M  V30 56 H 1.187961 0.760021 0.526817 0
M  V30 END ATOM
M  V30 BEGIN BOND
M  V30 1 1 1 2
M  V30 2 1 2 3
M  V30 3 1 3 4
M  V30 4 2 4 5
M  V30 5 1 4 6
M  V30 6 1 6 7
M  V30 7 2 7 8
M  V30 8 1 8 9
M  V30 9 2 9 10
M  V30 10 1 10 11
M  V30 11 1 11 12
M  V30 12 2 12 13
M  V30 13 1 13 14
M  V30 14 2 14 15
M  V30 15 1 15 16
M  V30 16 1 16 17
M  V30 17 2 17 18
M  V30 18 1 18 19
M  V30 19 2 19 20
M  V30 20 1 20 21
M  V30 21 2 21 22
M  V30 22 1 22 23
M  V30 23 1 23 24
M  V30 24 2 24 25
M  V30 25 1 25 26
M  V30 26 1 26 27
M  V30 27 1 22 28
M  V30 28 2 28 29
M  V30 29 1 29 30
M  V30 30 2 30 31
M  V30 31 1 31 32
M  V30 32 1 18 33
M  V30 33 2 33 34
M  V30 34 2 11 35
M  V30 35 1 35 7
M  V30 36 1 34 12
M  V30 37 1 33 15
M  V30 38 1 32 19
M  V30 39 1 31 21
M  V30 40 2 27 23
M  V30 41 1 1 36
M  V30 42 1 1 37
M  V30 43 1 1 38
M  V30 44 1 2 39
M  V30 45 1 2 40
M  V30 46 1 3 41
M  V30 47 1 3 42
M  V30 48 1 6 43
M  V30 49 1 8 44
M  V30 50 1 10 45
M  V30 51 1 13 46
M  V30 52 1 14 47
M  V30 53 1 16 48
M  V30 54 1 24 49
M  V30 55 1 25 50
M  V30 56 1 27 51
M  V30 57 1 28 52
M  V30 58 1 29 53
M  V30 59 1 32 54
M  V30 60 1 34 55
M  V30 61 1 35 56
M  V30 END BOND
M  V30 END CTAB
M  END
>  <Dataset>  (304) 
ChEMBL_Kinases

>  <Ligand_Instance>  (304) 
nan

>  <PDB_ID>  (304) 
nan

>  <Standardized_SMILES>  (304) 
CCCC(=O)Nc1cncc(-c2ccc3[nH]nc(-c4nc5c(-c6ccsc6)ccnc5[nH]4)c3c2)c1

>  <Name>  (304) 
nan

>  <Pocket>  (304) 
nan

>  <ATP_Site>  (304) 
nan

>  <Peripheral>  (304) 
nan

>  <Num_H_Atoms_ProtBoundConf>  (304) 
nan

>  <Num_Resolved_Atoms>  (304) 
nan

>  <Num_Not_Resolved_Atoms>  (304) 
nan

$$$$
CHEMBL4205366
     RDKit          3D

  0  0  0  0  0  0  0  0  0  0999 V3000
M  V30 BEGIN CTAB
M  V30 COUNTS 69 73 0 0 0
M  V30 BEGIN ATOM
M  V30 1 C 4.510277 -4.913684 2.835170 0
M  V30 2 C 5.709797 -4.464686 2.027113 0
M  V30 3 N 5.322809 -3.392598 1.096518 0
M  V30 4 C 5.004741 -2.239578 1.922776 0
M  V30 5 C 4.450216 -1.218058 0.920222 0
M  V30 6 N 5.478616 -0.742942 0.040787 0
M  V30 7 C 4.988234 -0.288855 -1.236622 0
M  V30 8 C 4.010266 0.808278 -1.112094 0
M  V30 9 C 4.305716 2.153336 -1.087656 0
M  V30 10 C 3.296698 3.078847 -0.968092 0
M  V30 11 C 1.965396 2.705973 -0.868867 0
M  V30 12 N 0.944412 3.682626 -0.743367 0
M  V30 13 C -0.452934 3.492175 -0.647139 0
M  V30 14 C -1.095468 2.288940 -0.675218 0
M  V30 15 C -2.456943 2.093695 -0.580184 0
M  V30 16 C -3.085085 0.778349 -0.619586 0
M  V30 17 C -2.468777 -0.204435 -1.393294 0
M  V30 18 C -3.010617 -1.492969 -1.483761 0
M  V30 19 F -2.456704 -2.486894 -2.219006 0
M  V30 20 C -4.174243 -1.714671 -0.766672 0
M  V30 21 N -4.895188 -2.822119 -0.670003 0
M  V30 22 C -5.948891 -2.577621 0.138658 0
M  V30 23 C -6.994233 -3.571816 0.497497 0
M  V30 24 N -5.920061 -1.310375 0.573069 0
M  V30 25 C -6.833458 -0.598376 1.454611 0
M  V30 26 C -6.568822 -0.951129 2.912097 0
M  V30 27 C -8.270188 -0.789185 1.103897 0
M  V30 28 C -4.800747 -0.783904 -0.004389 0
M  V30 29 C -4.248591 0.497447 0.076403 0
M  V30 30 C -3.234971 3.221323 -0.444486 0
M  V30 31 C -2.601153 4.439819 -0.414859 0
M  V30 32 N -1.273314 4.535645 -0.513648 0
M  V30 33 N 1.795201 1.388253 -0.902913 0
M  V30 34 N 2.718838 0.466194 -1.015253 0
M  V30 35 C 6.579227 -1.637043 -0.128607 0
M  V30 36 C 6.323928 -3.081313 0.138869 0
M  V30 37 H 4.422144 -6.008766 2.799497 0
M  V30 38 H 3.580978 -4.455890 2.412786 0
M  V30 39 H 4.574378 -4.606110 3.895899 0
M  V30 40 H 6.469942 -4.079977 2.733874 0
M  V30 41 H 6.181889 -5.304963 1.474245 0
M  V30 42 H 5.885342 -1.841873 2.467055 0
M  V30 43 H 4.172089 -2.513433 2.597381 0
M  V30 44 H 3.982580 -0.422134 1.529730 0
M  V30 45 H 3.656365 -1.727472 0.361622 0
M  V30 46 H 5.833133 0.034787 -1.849564 0
M  V30 47 H 4.517897 -1.147818 -1.751422 0
M  V30 48 H 5.330165 2.437858 -1.163840 0
M  V30 49 H 3.608222 4.122784 -0.956019 0
M  V30 50 H 1.281596 4.691292 -0.720274 0
M  V30 51 H -0.531123 1.376300 -0.780393 0
M  V30 52 H -1.573013 0.009007 -1.929286 0
M  V30 53 H -8.001036 -3.258713 0.111499 0
M  V30 54 H -6.999878 -3.822853 1.570360 0
M  V30 55 H -6.805891 -4.540061 -0.045167 0
M  V30 56 H -6.620104 0.493929 1.362808 0
M  V30 57 H -5.504967 -0.693783 3.102391 0
M  V30 58 H -6.722626 -2.017232 3.126524 0
M  V30 59 H -7.290931 -0.372630 3.511654 0
M  V30 60 H -8.428679 -0.857736 0.018728 0
M  V30 61 H -8.840763 0.126054 1.440803 0
M  V30 62 H -8.755173 -1.616388 1.688409 0
M  V30 63 H -4.722670 1.268865 0.677378 0
M  V30 64 H -4.314678 3.198060 -0.360211 0
M  V30 65 H -3.159086 5.360092 -0.311072 0
M  V30 66 H 6.943421 -1.547134 -1.174142 0
M  V30 67 H 7.427387 -1.254863 0.509326 0
M  V30 68 H 7.300021 -3.519449 0.502898 0
M  V30 69 H 6.097932 -3.664179 -0.791122 0
M  V30 END ATOM
M  V30 BEGIN BOND
M  V30 1 1 1 2
M  V30 2 1 2 3
M  V30 3 1 3 4
M  V30 4 1 4 5
M  V30 5 1 5 6
M  V30 6 1 6 7
M  V30 7 1 7 8
M  V30 8 2 8 9
M  V30 9 1 9 10
M  V30 10 2 10 11
M  V30 11 1 11 12
M  V30 12 1 12 13
M  V30 13 2 13 14
M  V30 14 1 14 15
M  V30 15 1 15 16
M  V30 16 2 16 17
M  V30 17 1 17 18
M  V30 18 1 18 19
M  V30 19 2 18 20
M  V30 20 1 20 21
M  V30 21 2 21 22
M  V30 22 1 22 23
M  V30 23 1 22 24
M  V30 24 1 24 25
M  V30 25 1 25 26
M  V30 26 1 25 27
M  V30 27 1 24 28
M  V30 28 2 28 29
M  V30 29 2 15 30
M  V30 30 1 30 31
M  V30 31 2 31 32
M  V30 32 1 11 33
M  V30 33 2 33 34
M  V30 34 1 6 35
M  V30 35 1 35 36
M  V30 36 1 36 3
M  V30 37 1 34 8
M  V30 38 1 32 13
M  V30 39 1 29 16
M  V30 40 1 28 20
M  V30 41 1 1 37
M  V30 42 1 1 38
M  V30 43 1 1 39
M  V30 44 1 2 40
M  V30 45 1 2 41
M  V30 46 1 4 42
M  V30 47 1 4 43
M  V30 48 1 5 44
M  V30 49 1 5 45
M  V30 50 1 7 46
M  V30 51 1 7 47
M  V30 52 1 9 48
M  V30 53 1 10 49
M  V30 54 1 12 50
M  V30 55 1 14 51
M  V30 56 1 17 52
M  V30 57 1 23 53
M  V30 58 1 23 54
M  V30 59 1 23 55
M  V30 60 1 25 56
M  V30 61 1 26 57
M  V30 62 1 26 58
M  V30 63 1 26 59
M  V30 64 1 27 60
M  V30 65 1 27 61
M  V30 66 1 27 62
M  V30 67 1 29 63
M  V30 68 1 30 64
M  V30 69 1 31 65
M  V30 70 1 35 66
M  V30 71 1 35 67
M  V30 72 1 36 68
M  V30 73 1 36 69
M  V30 END BOND
M  V30 END CTAB
M  END
>  <Dataset>  (305) 
ChEMBL_Kinases

>  <Ligand_Instance>  (305) 
nan

>  <PDB_ID>  (305) 
nan

>  <Standardized_SMILES>  (305) 
CCN1CCN(Cc2ccc(Nc3cc(-c4cc(F)c5nc(C)n(C(C)C)c5c4)ccn3)nn2)CC1

>  <Name>  (305) 
nan

>  <Pocket>  (305) 
nan

>  <ATP_Site>  (305) 
nan

>  <Peripheral>  (305) 
nan

>  <Num_H_Atoms_ProtBoundConf>  (305) 
nan

>  <Num_Resolved_Atoms>  (305) 
nan

>  <Num_Not_Resolved_Atoms>  (305) 
nan

$$$$
CHEMBL4784103
     RDKit          3D

  0  0  0  0  0  0  0  0  0  0999 V3000
M  V30 BEGIN CTAB
M  V30 COUNTS 58 63 0 0 0
M  V30 BEGIN ATOM
M  V30 1 O 3.299166 -1.484685 -0.518382 0
M  V30 2 C 3.913053 -0.667048 -1.289886 0
M  V30 3 C 4.551481 0.549003 -0.806639 0
M  V30 4 C 4.269954 0.938140 0.592191 0
M  V30 5 C 2.988459 1.596091 0.877585 0
M  V30 6 C 3.070790 2.845077 0.267236 0
M  V30 7 C 2.065999 3.827280 0.325994 0
M  V30 8 C 0.921223 3.470372 1.063475 0
M  V30 9 C 0.873848 2.205687 1.661532 0
M  V30 10 C 1.867493 1.262816 1.590838 0
M  V30 11 C -0.404628 2.124056 2.352895 0
M  V30 12 C -0.521744 3.044212 3.410253 0
M  V30 13 N -1.631204 3.186203 4.205509 0
M  V30 14 C -2.713097 2.380412 3.966691 0
M  V30 15 C -2.625208 1.474376 2.940771 0
M  V30 16 C -1.511011 1.338155 2.149525 0
M  V30 17 N -3.682804 0.598068 2.573542 0
M  V30 18 C -3.826286 -0.766920 2.382959 0
M  V30 19 O -2.625735 -0.700084 2.712903 0
M  V30 20 C -4.063225 -2.136418 2.166560 0
M  V30 21 N -5.001217 -2.836040 2.814392 0
M  V30 22 N -4.955983 -4.098501 2.336033 0
M  V30 23 C -3.971601 -4.142275 1.387869 0
M  V30 24 C -3.417175 -5.096174 0.534356 0
M  V30 25 C -2.369383 -4.688535 -0.309329 0
M  V30 26 C -1.802419 -3.392533 -0.389630 0
M  V30 27 C -2.406039 -2.514044 0.479780 0
M  V30 28 C -3.422269 -2.920657 1.290729 0
M  V30 29 C -0.746115 -3.271237 -1.357086 0
M  V30 30 C -1.384831 -3.422630 -2.598476 0
M  V30 31 N -0.670441 -3.372573 -3.769051 0
M  V30 32 C 0.659553 -3.170841 -3.561354 0
M  V30 33 C 1.382552 -3.012151 -2.371290 0
M  V30 34 C 0.607760 -3.068525 -1.238958 0
M  V30 35 C 2.814452 -2.882945 -2.399072 0
M  V30 36 N 3.475215 -1.659084 -2.156609 0
M  V30 37 H 4.347150 1.420113 -1.520633 0
M  V30 38 H 5.686590 0.501535 -0.882873 0
M  V30 39 H 5.093075 1.545493 0.997443 0
M  V30 40 H 4.353652 -0.035058 1.197502 0
M  V30 41 H 3.885670 3.258326 -0.331809 0
M  V30 42 H 2.113854 4.807991 -0.143513 0
M  V30 43 H 0.131102 4.221589 1.128866 0
M  V30 44 H 1.712145 0.343870 2.088330 0
M  V30 45 H 0.322519 3.707623 3.622939 0
M  V30 46 H -3.652139 2.375194 4.500784 0
M  V30 47 H -1.353081 0.660127 1.324221 0
M  V30 48 H -4.511711 1.214498 2.432152 0
M  V30 49 H -5.536140 -4.910194 2.607391 0
M  V30 50 H -3.811033 -6.083262 0.566438 0
M  V30 51 H -1.952866 -5.447833 -0.981182 0
M  V30 52 H -2.095468 -1.476602 0.542950 0
M  V30 53 H -2.455649 -3.598340 -2.761140 0
M  V30 54 H 1.230259 -3.134027 -4.504065 0
M  V30 55 H 0.844982 -2.981112 -0.193717 0
M  V30 56 H 3.156789 -3.188126 -3.454322 0
M  V30 57 H 3.295636 -3.721501 -1.759194 0
M  V30 58 H 3.930690 -1.054205 -2.907157 0
M  V30 END ATOM
M  V30 BEGIN BOND
M  V30 1 2 1 2
M  V30 2 1 2 3
M  V30 3 1 3 4
M  V30 4 1 4 5
M  V30 5 1 5 6
M  V30 6 2 6 7
M  V30 7 1 7 8
M  V30 8 2 8 9
M  V30 9 1 9 10
M  V30 10 1 9 11
M  V30 11 1 11 12
M  V30 12 2 12 13
M  V30 13 1 13 14
M  V30 14 2 14 15
M  V30 15 1 15 16
M  V30 16 1 15 17
M  V30 17 1 17 18
M  V30 18 2 18 19
M  V30 19 1 18 20
M  V30 20 2 20 21
M  V30 21 1 21 22
M  V30 22 1 22 23
M  V30 23 2 23 24
M  V30 24 1 24 25
M  V30 25 2 25 26
M  V30 26 1 26 27
M  V30 27 2 27 28
M  V30 28 1 26 29
M  V30 29 1 29 30
M  V30 30 2 30 31
M  V30 31 1 31 32
M  V30 32 2 32 33
M  V30 33 1 33 34
M  V30 34 1 33 35
M  V30 35 1 35 36
M  V30 36 1 36 2
M  V30 37 2 10 5
M  V30 38 2 16 11
M  V30 39 1 28 20
M  V30 40 2 34 29
M  V30 41 1 28 23
M  V30 42 1 3 37
M  V30 43 1 3 38
M  V30 44 1 4 39
M  V30 45 1 4 40
M  V30 46 1 6 41
M  V30 47 1 7 42
M  V30 48 1 8 43
M  V30 49 1 10 44
M  V30 50 1 12 45
M  V30 51 1 14 46
M  V30 52 1 16 47
M  V30 53 1 17 48
M  V30 54 1 22 49
M  V30 55 1 24 50
M  V30 56 1 25 51
M  V30 57 1 27 52
M  V30 58 1 30 53
M  V30 59 1 32 54
M  V30 60 1 34 55
M  V30 61 1 35 56
M  V30 62 1 35 57
M  V30 63 1 36 58
M  V30 END BOND
M  V30 END CTAB
M  END
>  <Dataset>  (306) 
ChEMBL_Kinases

>  <Ligand_Instance>  (306) 
nan

>  <PDB_ID>  (306) 
nan

>  <Standardized_SMILES>  (306) 
O=C1CCc2cccc(c2)-c2cncc(c2)NC(=O)c2n[nH]c3ccc(cc23)-c2cncc(c2)CN1

>  <Name>  (306) 
nan

>  <Pocket>  (306) 
nan

>  <ATP_Site>  (306) 
nan

>  <Peripheral>  (306) 
nan

>  <Num_H_Atoms_ProtBoundConf>  (306) 
nan

>  <Num_Resolved_Atoms>  (306) 
nan

>  <Num_Not_Resolved_Atoms>  (306) 
nan

$$$$
CHEMBL4784092
     RDKit          3D

  0  0  0  0  0  0  0  0  0  0999 V3000
M  V30 BEGIN CTAB
M  V30 COUNTS 47 50 0 0 0
M  V30 BEGIN ATOM
M  V30 1 C -1.410897 -0.212982 -2.124652 0
M  V30 2 C 0.013175 0.180872 -1.897980 0
M  V30 3 S 1.439714 0.054339 -2.984708 0
M  V30 4 C 2.602644 0.759467 -1.834105 0
M  V30 5 C 4.005331 0.940291 -2.133625 0
M  V30 6 O 4.414364 0.577940 -3.266823 0
M  V30 7 N 4.807415 1.510930 -1.127610 0
M  V30 8 C 6.214009 1.712670 -1.376557 0
M  V30 9 C 6.803807 3.031969 -0.988772 0
M  V30 10 O 7.979355 2.319259 -0.654511 0
M  V30 11 C 7.100872 1.296283 -0.228248 0
M  V30 12 C 1.883000 1.037051 -0.747314 0
M  V30 13 C 0.543145 0.774908 -0.686542 0
M  V30 14 N -0.334988 1.021163 0.406597 0
M  V30 15 C -1.126491 0.114116 1.017300 0
M  V30 16 C -1.838146 0.709871 2.034651 0
M  V30 17 N -2.783952 0.164266 2.943016 0
M  V30 18 C -3.182592 -1.198984 2.949878 0
M  V30 19 O -2.693659 -2.005837 2.119009 0
M  V30 20 N -4.122568 -1.743763 3.851826 0
M  V30 21 C -4.336863 -3.138174 3.636015 0
M  V30 22 C -5.290908 -3.679180 2.791157 0
M  V30 23 F -6.080204 -2.796726 2.119421 0
M  V30 24 C -5.402744 -5.053782 2.665274 0
M  V30 25 C -4.548253 -5.857356 3.395596 0
M  V30 26 C -3.598538 -5.318908 4.236617 0
M  V30 27 C -3.474083 -3.947961 4.373454 0
M  V30 28 Cl -2.251363 -3.338236 5.454513 0
M  V30 29 C -1.439877 2.028172 2.013321 0
M  V30 30 N -0.539345 2.161419 1.020299 0
M  V30 31 H -1.569284 -0.190578 -3.222955 0
M  V30 32 H -1.665881 -1.201195 -1.740974 0
M  V30 33 H -2.010217 0.562151 -1.606803 0
M  V30 34 H 4.445699 1.806214 -0.188844 0
M  V30 35 H 6.576642 1.400611 -2.358098 0
M  V30 36 H 6.450601 3.515206 -0.069989 0
M  V30 37 H 7.023137 3.667707 -1.862507 0
M  V30 38 H 6.663590 1.535424 0.750708 0
M  V30 39 H 7.464358 0.266982 -0.396556 0
M  V30 40 H 2.385655 1.481067 0.100835 0
M  V30 41 H -1.176175 -0.909931 0.734764 0
M  V30 42 H -3.236167 0.740812 3.655159 0
M  V30 43 H -4.565563 -1.112659 4.571477 0
M  V30 44 H -6.149954 -5.451258 2.004112 0
M  V30 45 H -4.646523 -6.944248 3.287460 0
M  V30 46 H -2.941180 -5.996677 4.797233 0
M  V30 47 H -1.810010 2.783005 2.690082 0
M  V30 END ATOM
M  V30 BEGIN BOND
M  V30 1 1 1 2
M  V30 2 1 2 3
M  V30 3 1 3 4
M  V30 4 1 4 5
M  V30 5 2 5 6
M  V30 6 1 5 7
M  V30 7 1 7 8
M  V30 8 1 8 9
M  V30 9 1 9 10
M  V30 10 1 10 11
M  V30 11 2 4 12
M  V30 12 1 12 13
M  V30 13 1 13 14
M  V30 14 1 14 15
M  V30 15 2 15 16
M  V30 16 1 16 17
M  V30 17 1 17 18
M  V30 18 2 18 19
M  V30 19 1 18 20
M  V30 20 1 20 21
M  V30 21 2 21 22
M  V30 22 1 22 23
M  V30 23 1 22 24
M  V30 24 2 24 25
M  V30 25 1 25 26
M  V30 26 2 26 27
M  V30 27 1 27 28
M  V30 28 1 16 29
M  V30 29 2 29 30
M  V30 30 2 13 2
M  V30 31 1 30 14
M  V30 32 1 11 8
M  V30 33 1 27 21
M  V30 34 1 1 31
M  V30 35 1 1 32
M  V30 36 1 1 33
M  V30 37 1 7 34
M  V30 38 1 8 35
M  V30 39 1 9 36
M  V30 40 1 9 37
M  V30 41 1 11 38
M  V30 42 1 11 39
M  V30 43 1 12 40
M  V30 44 1 15 41
M  V30 45 1 17 42
M  V30 46 1 20 43
M  V30 47 1 24 44
M  V30 48 1 25 45
M  V30 49 1 26 46
M  V30 50 1 29 47
M  V30 END BOND
M  V30 END CTAB
M  END
>  <Dataset>  (307) 
ChEMBL_Kinases

>  <Ligand_Instance>  (307) 
nan

>  <PDB_ID>  (307) 
nan

>  <Standardized_SMILES>  (307) 
Cc1sc(C(=O)NC2COC2)cc1-n1cc(NC(=O)Nc2c(F)cccc2Cl)cn1

>  <Name>  (307) 
nan

>  <Pocket>  (307) 
nan

>  <ATP_Site>  (307) 
nan

>  <Peripheral>  (307) 
nan

>  <Num_H_Atoms_ProtBoundConf>  (307) 
nan

>  <Num_Resolved_Atoms>  (307) 
nan

>  <Num_Not_Resolved_Atoms>  (307) 
nan

$$$$
CHEMBL4206023
     RDKit          3D

  0  0  0  0  0  0  0  0  0  0999 V3000
M  V30 BEGIN CTAB
M  V30 COUNTS 48 53 0 0 0
M  V30 BEGIN ATOM
M  V30 1 C -3.252013 -0.093540 1.413485 0
M  V30 2 O -2.176177 0.091073 0.533597 0
M  V30 3 C -1.929652 -0.741197 -0.537925 0
M  V30 4 C -2.733790 -1.822624 -0.821666 0
M  V30 5 C -2.470233 -2.633965 -1.893449 0
M  V30 6 C -1.394044 -2.370405 -2.696447 0
M  V30 7 C -0.616553 -1.288518 -2.385339 0
M  V30 8 C -0.832531 -0.422254 -1.305257 0
M  V30 9 C 0.123803 0.659131 -1.138996 0
M  V30 10 C 0.437347 1.457835 -2.246500 0
M  V30 11 N 1.339198 2.389119 -1.892980 0
M  V30 12 C 1.610317 2.213390 -0.607987 0
M  V30 13 C 2.433490 2.823904 0.315518 0
M  V30 14 C 2.505866 2.393138 1.630507 0
M  V30 15 C 1.728114 1.311055 2.044056 0
M  V30 16 C 1.885270 0.945563 3.448886 0
M  V30 17 C 1.876649 1.994820 4.375099 0
M  V30 18 C 2.018194 1.743008 5.727709 0
M  V30 19 N 2.166682 0.478760 6.170963 0
M  V30 20 C 2.179612 -0.557982 5.305294 0
M  V30 21 N 2.310187 -1.907987 5.458317 0
M  V30 22 C 2.251713 -2.490908 4.226221 0
M  V30 23 C 2.081946 -1.520561 3.258337 0
M  V30 24 C 2.040034 -0.329495 3.952052 0
M  V30 25 C 0.914329 0.719452 1.101658 0
M  V30 26 N 0.882993 1.178796 -0.159942 0
M  V30 27 C -1.353374 -3.394207 -3.760252 0
M  V30 28 N -2.082709 -4.506891 -3.197104 0
M  V30 29 C -3.143263 -3.856320 -2.447987 0
M  V30 30 H -3.132786 -0.937048 2.119988 0
M  V30 31 H -3.439809 0.827829 1.991186 0
M  V30 32 H -4.196651 -0.309895 0.840243 0
M  V30 33 H -3.579549 -2.001678 -0.162632 0
M  V30 34 H 0.225749 -1.114370 -3.045983 0
M  V30 35 H 0.053830 1.401352 -3.276664 0
M  V30 36 H 3.037774 3.658995 0.008054 0
M  V30 37 H 3.165144 2.908960 2.302264 0
M  V30 38 H 1.764153 3.036236 4.120820 0
M  V30 39 H 2.021392 2.499335 6.501722 0
M  V30 40 H 2.434332 -2.382384 6.396370 0
M  V30 41 H 2.334557 -3.565029 4.109709 0
M  V30 42 H 2.001620 -1.679015 2.191750 0
M  V30 43 H 0.339137 -0.114177 1.462131 0
M  V30 44 H -0.300549 -3.703856 -3.932489 0
M  V30 45 H -1.845905 -3.091135 -4.702990 0
M  V30 46 H -1.469467 -4.973017 -2.471554 0
M  V30 47 H -3.934726 -3.582031 -3.186658 0
M  V30 48 H -3.535630 -4.508474 -1.640412 0
M  V30 END ATOM
M  V30 BEGIN BOND
M  V30 1 1 1 2
M  V30 2 1 2 3
M  V30 3 2 3 4
M  V30 4 1 4 5
M  V30 5 2 5 6
M  V30 6 1 6 7
M  V30 7 2 7 8
M  V30 8 1 8 9
M  V30 9 2 9 10
M  V30 10 1 10 11
M  V30 11 2 11 12
M  V30 12 1 12 13
M  V30 13 2 13 14
M  V30 14 1 14 15
M  V30 15 1 15 16
M  V30 16 2 16 17
M  V30 17 1 17 18
M  V30 18 2 18 19
M  V30 19 1 19 20
M  V30 20 1 20 21
M  V30 21 1 21 22
M  V30 22 2 22 23
M  V30 23 1 23 24
M  V30 24 2 15 25
M  V30 25 1 25 26
M  V30 26 1 6 27
M  V30 27 1 27 28
M  V30 28 1 28 29
M  V30 29 1 8 3
M  V30 30 1 26 9
M  V30 31 1 29 5
M  V30 32 1 26 12
M  V30 33 1 24 16
M  V30 34 2 24 20
M  V30 35 1 1 30
M  V30 36 1 1 31
M  V30 37 1 1 32
M  V30 38 1 4 33
M  V30 39 1 7 34
M  V30 40 1 10 35
M  V30 41 1 13 36
M  V30 42 1 14 37
M  V30 43 1 17 38
M  V30 44 1 18 39
M  V30 45 1 21 40
M  V30 46 1 22 41
M  V30 47 1 23 42
M  V30 48 1 25 43
M  V30 49 1 27 44
M  V30 50 1 27 45
M  V30 51 1 28 46
M  V30 52 1 29 47
M  V30 53 1 29 48
M  V30 END BOND
M  V30 END CTAB
M  END
>  <Dataset>  (308) 
ChEMBL_Kinases

>  <Ligand_Instance>  (308) 
nan

>  <PDB_ID>  (308) 
nan

>  <Standardized_SMILES>  (308) 
COc1cc2c(cc1-c1cnc3ccc(-c4ccnc5[nH]ccc45)cn13)CNC2

>  <Name>  (308) 
nan

>  <Pocket>  (308) 
nan

>  <ATP_Site>  (308) 
nan

>  <Peripheral>  (308) 
nan

>  <Num_H_Atoms_ProtBoundConf>  (308) 
nan

>  <Num_Resolved_Atoms>  (308) 
nan

>  <Num_Not_Resolved_Atoms>  (308) 
nan

$$$$
CHEMBL4784018
     RDKit          3D

  0  0  0  0  0  0  0  0  0  0999 V3000
M  V30 BEGIN CTAB
M  V30 COUNTS 51 56 0 0 0
M  V30 BEGIN ATOM
M  V30 1 F 7.043088 -2.479716 2.787770 0
M  V30 2 C 5.931964 -2.562206 2.002830 0
M  V30 3 F 5.355221 -3.822748 1.979339 0
M  V30 4 C 6.216626 -2.131106 0.566187 0
M  V30 5 C 5.951153 -0.620224 0.584505 0
M  V30 6 N 5.475725 -0.324812 1.898661 0
M  V30 7 C 4.663536 0.843949 2.019435 0
M  V30 8 C 3.424442 0.826600 1.213627 0
M  V30 9 C 3.353507 1.303884 -0.078776 0
M  V30 10 N 2.197210 1.262446 -0.765985 0
M  V30 11 C 1.074990 0.757355 -0.221610 0
M  V30 12 C 1.058146 0.259721 1.063500 0
M  V30 13 C -0.091180 -0.309569 1.756476 0
M  V30 14 C -1.341043 -0.423139 1.192738 0
M  V30 15 C -2.437588 -0.953934 1.821648 0
M  V30 16 C -3.730267 -1.146259 1.433688 0
M  V30 17 C -4.418458 -0.852984 0.196105 0
M  V30 18 C -4.117613 -0.306504 -1.021006 0
M  V30 19 C -5.207799 -0.270934 -1.863582 0
M  V30 20 C -5.348959 0.189354 -3.160146 0
M  V30 21 C -6.572324 0.107999 -3.789651 0
M  V30 22 C -7.580055 -0.449271 -3.030650 0
M  V30 23 N -7.422043 -0.891651 -1.769167 0
M  V30 24 C -6.233079 -0.820477 -1.136792 0
M  V30 25 N -5.733606 -1.144852 0.052051 0
M  V30 26 N -4.284905 -1.703621 2.504562 0
M  V30 27 N -3.424786 -1.855409 3.491678 0
M  V30 28 C -2.236977 -1.396260 3.112230 0
M  V30 29 C -1.002611 -1.295138 3.697745 0
M  V30 30 N 0.013038 -0.770991 3.030516 0
M  V30 31 C 2.256871 0.315279 1.743066 0
M  V30 32 C 4.879990 -1.519568 2.404283 0
M  V30 33 H 5.503836 -2.662214 -0.108652 0
M  V30 34 H 7.276701 -2.358042 0.310025 0
M  V30 35 H 5.262465 -0.424415 -0.237139 0
M  V30 36 H 6.951062 -0.130873 0.446342 0
M  V30 37 H 5.275694 1.742076 1.812815 0
M  V30 38 H 4.344586 0.900762 3.085409 0
M  V30 39 H 4.218528 1.712550 -0.548055 0
M  V30 40 H 0.151681 0.724739 -0.771584 0
M  V30 41 H -1.446376 -0.064977 0.187003 0
M  V30 42 H -3.159241 0.051080 -1.293611 0
M  V30 43 H -4.511259 0.609027 -3.677553 0
M  V30 44 H -6.762775 0.445066 -4.799019 0
M  V30 45 H -8.592692 -0.569677 -3.413434 0
M  V30 46 H -6.420384 -1.586248 0.729852 0
M  V30 47 H -3.690090 -2.277070 4.407954 0
M  V30 48 H -0.876297 -1.648591 4.705642 0
M  V30 49 H 2.303859 -0.063542 2.762458 0
M  V30 50 H 3.951297 -1.842615 1.904929 0
M  V30 51 H 4.754896 -1.498955 3.506006 0
M  V30 END ATOM
M  V30 BEGIN BOND
M  V30 1 1 1 2
M  V30 2 1 2 3
M  V30 3 1 2 4
M  V30 4 1 4 5
M  V30 5 1 5 6
M  V30 6 1 6 7
M  V30 7 1 7 8
M  V30 8 2 8 9
M  V30 9 1 9 10
M  V30 10 2 10 11
M  V30 11 1 11 12
M  V30 12 1 12 13
M  V30 13 2 13 14
M  V30 14 1 14 15
M  V30 15 1 15 16
M  V30 16 1 16 17
M  V30 17 2 17 18
M  V30 18 1 18 19
M  V30 19 2 19 20
M  V30 20 1 20 21
M  V30 21 2 21 22
M  V30 22 1 22 23
M  V30 23 2 23 24
M  V30 24 1 24 25
M  V30 25 2 16 26
M  V30 26 1 26 27
M  V30 27 1 27 28
M  V30 28 1 28 29
M  V30 29 2 29 30
M  V30 30 2 12 31
M  V30 31 1 6 32
M  V30 32 1 32 2
M  V30 33 1 31 8
M  V30 34 1 30 13
M  V30 35 2 28 15
M  V30 36 1 25 17
M  V30 37 1 24 19
M  V30 38 1 4 33
M  V30 39 1 4 34
M  V30 40 1 5 35
M  V30 41 1 5 36
M  V30 42 1 7 37
M  V30 43 1 7 38
M  V30 44 1 9 39
M  V30 45 1 11 40
M  V30 46 1 14 41
M  V30 47 1 18 42
M  V30 48 1 20 43
M  V30 49 1 21 44
M  V30 50 1 22 45
M  V30 51 1 25 46
M  V30 52 1 27 47
M  V30 53 1 29 48
M  V30 54 1 31 49
M  V30 55 1 32 50
M  V30 56 1 32 51
M  V30 END BOND
M  V30 END CTAB
M  END
>  <Dataset>  (309) 
ChEMBL_Kinases

>  <Ligand_Instance>  (309) 
nan

>  <PDB_ID>  (309) 
nan

>  <Standardized_SMILES>  (309) 
FC1(F)CCN(Cc2cncc(-c3cc4c(-c5cc6cccnc6[nH]5)n[nH]c4cn3)c2)C1

>  <Name>  (309) 
nan

>  <Pocket>  (309) 
nan

>  <ATP_Site>  (309) 
nan

>  <Peripheral>  (309) 
nan

>  <Num_H_Atoms_ProtBoundConf>  (309) 
nan

>  <Num_Resolved_Atoms>  (309) 
nan

>  <Num_Not_Resolved_Atoms>  (309) 
nan

$$$$
CHEMBL4206065
     RDKit          3D

  0  0  0  0  0  0  0  0  0  0999 V3000
M  V30 BEGIN CTAB
M  V30 COUNTS 51 56 0 0 0
M  V30 BEGIN ATOM
M  V30 1 C -3.850015 -1.053367 -0.512515 0
M  V30 2 O -2.484992 -0.788715 -0.852236 0
M  V30 3 C -1.503811 -1.751841 -0.713467 0
M  V30 4 C -1.714782 -3.034468 -0.248666 0
M  V30 5 C -0.714584 -3.971451 -0.122089 0
M  V30 6 C 0.557753 -3.580850 -0.486525 0
M  V30 7 C 0.826478 -2.315280 -0.956317 0
M  V30 8 C -0.217753 -1.392104 -1.070186 0
M  V30 9 C 0.177213 -0.067157 -1.583019 0
M  V30 10 C 0.234627 0.407018 -2.877507 0
M  V30 11 N 0.657073 1.691234 -2.850668 0
M  V30 12 N 0.876793 2.074157 -1.601977 0
M  V30 13 C 1.296961 3.231421 -1.055099 0
M  V30 14 C 1.436638 3.342670 0.311714 0
M  V30 15 C 1.143282 2.255105 1.141349 0
M  V30 16 C 1.353428 2.571303 2.551193 0
M  V30 17 C 2.513085 3.248524 2.944329 0
M  V30 18 C 2.739442 3.560695 4.268285 0
M  V30 19 N 1.854359 3.226707 5.235539 0
M  V30 20 C 0.718003 2.568588 4.888332 0
M  V30 21 N -0.331732 2.114765 5.634922 0
M  V30 22 C -1.233964 1.512412 4.805544 0
M  V30 23 C -0.725364 1.600065 3.527592 0
M  V30 24 C 0.478208 2.249729 3.567851 0
M  V30 25 C 0.714726 1.081003 0.556225 0
M  V30 26 C 0.591785 1.022178 -0.816144 0
M  V30 27 C 1.415645 -4.771949 -0.249312 0
M  V30 28 N 0.501496 -5.895852 -0.182282 0
M  V30 29 C 0.225283 -6.359740 -1.524967 0
M  V30 30 C -0.741560 -5.363717 0.345164 0
M  V30 31 H -4.420737 -0.111894 -0.653833 0
M  V30 32 H -4.255128 -1.909592 -1.092417 0
M  V30 33 H -3.950285 -1.304057 0.569835 0
M  V30 34 H -2.770211 -3.209686 0.004233 0
M  V30 35 H 1.867463 -2.087607 -1.223978 0
M  V30 36 H -0.037378 -0.228513 -3.723653 0
M  V30 37 H 1.513445 4.048358 -1.729574 0
M  V30 38 H 1.775777 4.302103 0.643283 0
M  V30 39 H 3.281341 3.554693 2.217452 0
M  V30 40 H 3.605939 4.078568 4.644199 0
M  V30 41 H -0.427164 2.215748 6.688409 0
M  V30 42 H -2.181274 1.052001 5.126822 0
M  V30 43 H -1.228369 1.205547 2.657797 0
M  V30 44 H 0.515986 0.307064 1.277277 0
M  V30 45 H 2.075249 -4.932640 -1.149955 0
M  V30 46 H 2.026715 -4.684489 0.665795 0
M  V30 47 H 0.769991 -7.317321 -1.741538 0
M  V30 48 H -0.862017 -6.636272 -1.632294 0
M  V30 49 H 0.526155 -5.634099 -2.315868 0
M  V30 50 H -0.732400 -5.368103 1.468744 0
M  V30 51 H -1.639118 -5.877595 -0.051143 0
M  V30 END ATOM
M  V30 BEGIN BOND
M  V30 1 1 1 2
M  V30 2 1 2 3
M  V30 3 2 3 4
M  V30 4 1 4 5
M  V30 5 2 5 6
M  V30 6 1 6 7
M  V30 7 2 7 8
M  V30 8 1 8 9
M  V30 9 1 9 10
M  V30 10 2 10 11
M  V30 11 1 11 12
M  V30 12 1 12 13
M  V30 13 2 13 14
M  V30 14 1 14 15
M  V30 15 1 15 16
M  V30 16 2 16 17
M  V30 17 1 17 18
M  V30 18 2 18 19
M  V30 19 1 19 20
M  V30 20 1 20 21
M  V30 21 1 21 22
M  V30 22 2 22 23
M  V30 23 1 23 24
M  V30 24 2 15 25
M  V30 25 1 25 26
M  V30 26 1 6 27
M  V30 27 1 27 28
M  V30 28 1 28 29
M  V30 29 1 28 30
M  V30 30 1 8 3
M  V30 31 2 26 9
M  V30 32 1 30 5
M  V30 33 1 26 12
M  V30 34 1 24 16
M  V30 35 2 24 20
M  V30 36 1 1 31
M  V30 37 1 1 32
M  V30 38 1 1 33
M  V30 39 1 4 34
M  V30 40 1 7 35
M  V30 41 1 10 36
M  V30 42 1 13 37
M  V30 43 1 14 38
M  V30 44 1 17 39
M  V30 45 1 18 40
M  V30 46 1 21 41
M  V30 47 1 22 42
M  V30 48 1 23 43
M  V30 49 1 25 44
M  V30 50 1 27 45
M  V30 51 1 27 46
M  V30 52 1 29 47
M  V30 53 1 29 48
M  V30 54 1 29 49
M  V30 55 1 30 50
M  V30 56 1 30 51
M  V30 END BOND
M  V30 END CTAB
M  END
>  <Dataset>  (310) 
ChEMBL_Kinases

>  <Ligand_Instance>  (310) 
nan

>  <PDB_ID>  (310) 
nan

>  <Standardized_SMILES>  (310) 
COc1cc2c(cc1-c1cnn3ccc(-c4ccnc5[nH]ccc45)cc13)CN(C)C2

>  <Name>  (310) 
nan

>  <Pocket>  (310) 
nan

>  <ATP_Site>  (310) 
nan

>  <Peripheral>  (310) 
nan

>  <Num_H_Atoms_ProtBoundConf>  (310) 
nan

>  <Num_Resolved_Atoms>  (310) 
nan

>  <Num_Not_Resolved_Atoms>  (310) 
nan

$$$$
CHEMBL4783909
     RDKit          3D

  0  0  0  0  0  0  0  0  0  0999 V3000
M  V30 BEGIN CTAB
M  V30 COUNTS 55 60 0 0 0
M  V30 BEGIN ATOM
M  V30 1 C 2.574801 -4.216580 3.591861 0
M  V30 2 C 3.696363 -3.585811 2.841078 0
M  V30 3 C 3.335607 -2.309859 2.208005 0
M  V30 4 O 2.153012 -1.915589 2.355121 0
M  V30 5 N 4.232966 -1.518509 1.457557 0
M  V30 6 C 4.014128 -0.286086 0.805625 0
M  V30 7 C 5.069890 0.305079 0.152718 0
M  V30 8 N 4.974350 1.472381 -0.493243 0
M  V30 9 C 3.827418 2.167016 -0.556054 0
M  V30 10 C 2.726652 1.630791 0.077974 0
M  V30 11 C 1.501691 2.413242 -0.003846 0
M  V30 12 C 1.654216 3.806330 -0.043869 0
M  V30 13 N 0.626212 4.703562 -0.126763 0
M  V30 14 C -0.655844 4.249405 -0.176283 0
M  V30 15 N -1.853746 4.852931 -0.257909 0
M  V30 16 N -2.763031 3.894362 -0.272137 0
M  V30 17 C -2.207631 2.685771 -0.202958 0
M  V30 18 C -2.935298 1.423776 -0.201720 0
M  V30 19 N -2.495987 0.160414 -0.144703 0
M  V30 20 C -3.580196 -0.647159 -0.180428 0
M  V30 21 C -3.810189 -2.020019 -0.156386 0
M  V30 22 C -2.688639 -2.911925 -0.077237 0
M  V30 23 C -2.745611 -4.005508 -0.950836 0
M  V30 24 C -1.723623 -4.920803 -0.957873 0
M  V30 25 C -0.624487 -4.785111 -0.110432 0
M  V30 26 F 0.403990 -5.668613 -0.089218 0
M  V30 27 C -0.654576 -3.680103 0.712836 0
M  V30 28 C -1.632611 -2.726915 0.778714 0
M  V30 29 C -5.072858 -2.572519 -0.208337 0
M  V30 30 N -6.157413 -1.775813 -0.286634 0
M  V30 31 C -6.012676 -0.436058 -0.314571 0
M  V30 32 C -4.734639 0.120861 -0.261874 0
M  V30 33 N -4.294450 1.398214 -0.272662 0
M  V30 34 C -0.843999 2.883792 -0.139340 0
M  V30 35 C 0.193279 1.976975 -0.055496 0
M  V30 36 C 2.844883 0.429022 0.737123 0
M  V30 37 H 2.630565 -5.331007 3.415253 0
M  V30 38 H 1.568262 -3.903672 3.308382 0
M  V30 39 H 2.743469 -4.070269 4.683527 0
M  V30 40 H 4.055286 -4.267276 2.023028 0
M  V30 41 H 4.543864 -3.401962 3.508885 0
M  V30 42 H 5.173552 -1.950848 1.409915 0
M  V30 43 H 6.062185 -0.168409 0.132948 0
M  V30 44 H 3.866661 3.094810 -1.102985 0
M  V30 45 H 2.619060 4.308979 -0.012047 0
M  V30 46 H -1.906980 5.895405 -0.295659 0
M  V30 47 H -3.552050 -4.194952 -1.641372 0
M  V30 48 H -1.739683 -5.767157 -1.614263 0
M  V30 49 H 0.204200 -3.580696 1.369911 0
M  V30 50 H -1.601562 -1.883172 1.443495 0
M  V30 51 H -5.219299 -3.645571 -0.187117 0
M  V30 52 H -6.897236 0.201130 -0.378376 0
M  V30 53 H -4.980420 2.188884 -0.329915 0
M  V30 54 H 0.067467 0.904367 -0.025077 0
M  V30 55 H 1.965789 0.039535 1.220910 0
M  V30 END ATOM
M  V30 BEGIN BOND
M  V30 1 1 1 2
M  V30 2 1 2 3
M  V30 3 2 3 4
M  V30 4 1 3 5
M  V30 5 1 5 6
M  V30 6 2 6 7
M  V30 7 1 7 8
M  V30 8 2 8 9
M  V30 9 1 9 10
M  V30 10 1 10 11
M  V30 11 2 11 12
M  V30 12 1 12 13
M  V30 13 2 13 14
M  V30 14 1 14 15
M  V30 15 1 15 16
M  V30 16 2 16 17
M  V30 17 1 17 18
M  V30 18 2 18 19
M  V30 19 1 19 20
M  V30 20 2 20 21
M  V30 21 1 21 22
M  V30 22 2 22 23
M  V30 23 1 23 24
M  V30 24 2 24 25
M  V30 25 1 25 26
M  V30 26 1 25 27
M  V30 27 2 27 28
M  V30 28 1 21 29
M  V30 29 2 29 30
M  V30 30 1 30 31
M  V30 31 2 31 32
M  V30 32 1 32 33
M  V30 33 1 17 34
M  V30 34 2 34 35
M  V30 35 2 10 36
M  V30 36 1 36 6
M  V30 37 1 35 11
M  V30 38 1 34 14
M  V30 39 1 33 18
M  V30 40 1 32 20
M  V30 41 1 28 22
M  V30 42 1 1 37
M  V30 43 1 1 38
M  V30 44 1 1 39
M  V30 45 1 2 40
M  V30 46 1 2 41
M  V30 47 1 5 42
M  V30 48 1 7 43
M  V30 49 1 9 44
M  V30 50 1 12 45
M  V30 51 1 15 46
M  V30 52 1 23 47
M  V30 53 1 24 48
M  V30 54 1 27 49
M  V30 55 1 28 50
M  V30 56 1 29 51
M  V30 57 1 31 52
M  V30 58 1 33 53
M  V30 59 1 35 54
M  V30 60 1 36 55
M  V30 END BOND
M  V30 END CTAB
M  END
>  <Dataset>  (311) 
ChEMBL_Kinases

>  <Ligand_Instance>  (311) 
nan

>  <PDB_ID>  (311) 
nan

>  <Standardized_SMILES>  (311) 
CCC(=O)Nc1cncc(-c2cnc3[nH]nc(-c4nc5c(-c6ccc(F)cc6)cncc5[nH]4)c3c2)c1

>  <Name>  (311) 
nan

>  <Pocket>  (311) 
nan

>  <ATP_Site>  (311) 
nan

>  <Peripheral>  (311) 
nan

>  <Num_H_Atoms_ProtBoundConf>  (311) 
nan

>  <Num_Resolved_Atoms>  (311) 
nan

>  <Num_Not_Resolved_Atoms>  (311) 
nan

$$$$
CHEMBL4783818
     RDKit          3D

  0  0  0  0  0  0  0  0  0  0999 V3000
M  V30 BEGIN CTAB
M  V30 COUNTS 61 65 0 0 0
M  V30 BEGIN ATOM
M  V30 1 O 1.952045 -2.787938 3.498365 0
M  V30 2 C 1.753358 -2.797849 2.261269 0
M  V30 3 N 2.534776 -1.980238 1.411865 0
M  V30 4 C 3.551994 -1.146987 2.010508 0
M  V30 5 C 4.883836 -1.454515 2.260093 0
M  V30 6 N 5.483007 -0.391026 2.832374 0
M  V30 7 N 4.578427 0.590160 2.958404 0
M  V30 8 C 3.393380 0.147570 2.462206 0
M  V30 9 C 2.142518 0.897566 2.404613 0
M  V30 10 O 1.153395 0.324719 1.913066 0
M  V30 11 N 1.993138 2.221807 2.870063 0
M  V30 12 C 0.869235 3.053748 2.878928 0
M  V30 13 C 0.971623 4.330036 3.397494 0
M  V30 14 N -0.061433 5.186489 3.441492 0
M  V30 15 C -1.281577 4.882370 2.987930 0
M  V30 16 C -1.454022 3.619817 2.455368 0
M  V30 17 C -2.770192 3.212022 1.936819 0
M  V30 18 C -2.747520 2.318111 0.888263 0
M  V30 19 C -3.922677 1.865568 0.322757 0
M  V30 20 C -5.112589 2.335397 0.839419 0
M  V30 21 C -5.173329 3.230138 1.887821 0
M  V30 22 F -6.355917 3.652729 2.350129 0
M  V30 23 C -3.981385 3.657855 2.424732 0
M  V30 24 C -0.381615 2.753217 2.418337 0
M  V30 25 C 0.713333 -3.659918 1.733970 0
M  V30 26 C -0.018220 -4.437472 2.641280 0
M  V30 27 N -0.990122 -5.249724 2.211853 0
M  V30 28 C -1.292987 -5.343804 0.900536 0
M  V30 29 C -0.618229 -4.609965 -0.060665 0
M  V30 30 O -0.973168 -4.750917 -1.369602 0
M  V30 31 C -0.428975 -4.114990 -2.477970 0
M  V30 32 C -1.454871 -3.257453 -3.221847 0
M  V30 33 C -0.619150 -2.358230 -4.141514 0
M  V30 34 N 0.070963 -3.166556 -5.096651 0
M  V30 35 C 0.833444 -4.238482 -4.549513 0
M  V30 36 C 0.091992 -5.076666 -3.524648 0
M  V30 37 C 0.375478 -3.785511 0.422727 0
M  V30 38 H 2.408365 -1.953478 0.376020 0
M  V30 39 H 5.359004 -2.417199 2.022545 0
M  V30 40 H 6.504499 -0.425576 3.100546 0
M  V30 41 H 2.901974 2.593043 3.262143 0
M  V30 42 H 1.929873 4.692451 3.801416 0
M  V30 43 H -2.122432 5.557787 3.015524 0
M  V30 44 H -1.857791 1.891176 0.412452 0
M  V30 45 H -3.982230 1.162156 -0.504681 0
M  V30 46 H -6.050813 1.985964 0.402225 0
M  V30 47 H -3.950418 4.367647 3.258974 0
M  V30 48 H -0.579256 1.801163 1.998427 0
M  V30 49 H 0.178451 -4.405916 3.710947 0
M  V30 50 H -2.102959 -6.038554 0.674418 0
M  V30 51 H 0.385371 -3.426902 -2.215603 0
M  V30 52 H -2.089245 -3.880192 -3.889453 0
M  V30 53 H -2.062930 -2.638061 -2.552409 0
M  V30 54 H -1.215365 -1.604777 -4.654269 0
M  V30 55 H 0.137385 -1.869552 -3.480119 0
M  V30 56 H -0.395373 -3.329606 -5.992582 0
M  V30 57 H 1.751134 -3.870908 -4.047360 0
M  V30 58 H 1.141352 -4.901088 -5.384312 0
M  V30 59 H -0.750707 -5.602678 -4.046955 0
M  V30 60 H 0.796598 -5.823191 -3.141815 0
M  V30 61 H 0.929731 -3.195404 -0.270919 0
M  V30 END ATOM
M  V30 BEGIN BOND
M  V30 1 2 1 2
M  V30 2 1 2 3
M  V30 3 1 3 4
M  V30 4 2 4 5
M  V30 5 1 5 6
M  V30 6 1 6 7
M  V30 7 2 7 8
M  V30 8 1 8 9
M  V30 9 2 9 10
M  V30 10 1 9 11
M  V30 11 1 11 12
M  V30 12 2 12 13
M  V30 13 1 13 14
M  V30 14 2 14 15
M  V30 15 1 15 16
M  V30 16 1 16 17
M  V30 17 2 17 18
M  V30 18 1 18 19
M  V30 19 2 19 20
M  V30 20 1 20 21
M  V30 21 1 21 22
M  V30 22 2 21 23
M  V30 23 2 16 24
M  V30 24 1 2 25
M  V30 25 2 25 26
M  V30 26 1 26 27
M  V30 27 2 27 28
M  V30 28 1 28 29
M  V30 29 1 29 30
M  V30 30 1 30 31
M  V30 31 1 31 32
M  V30 32 1 32 33
M  V30 33 1 33 34
M  V30 34 1 34 35
M  V30 35 1 35 36
M  V30 36 2 29 37
M  V30 37 1 8 4
M  V30 38 1 24 12
M  V30 39 1 37 25
M  V30 40 1 23 17
M  V30 41 1 36 31
M  V30 42 1 3 38
M  V30 43 1 5 39
M  V30 44 1 6 40
M  V30 45 1 11 41
M  V30 46 1 13 42
M  V30 47 1 15 43
M  V30 48 1 18 44
M  V30 49 1 19 45
M  V30 50 1 20 46
M  V30 51 1 23 47
M  V30 52 1 24 48
M  V30 53 1 26 49
M  V30 54 1 28 50
M  V30 55 1 31 51
M  V30 56 1 32 52
M  V30 57 1 32 53
M  V30 58 1 33 54
M  V30 59 1 33 55
M  V30 60 1 34 56
M  V30 61 1 35 57
M  V30 62 1 35 58
M  V30 63 1 36 59
M  V30 64 1 36 60
M  V30 65 1 37 61
M  V30 END BOND
M  V30 END CTAB
M  END
>  <Dataset>  (312) 
ChEMBL_Kinases

>  <Ligand_Instance>  (312) 
nan

>  <PDB_ID>  (312) 
nan

>  <Standardized_SMILES>  (312) 
O=C(Nc1c[nH]nc1C(=O)Nc1cncc(-c2cccc(F)c2)c1)c1cncc(OC2CCNCC2)c1

>  <Name>  (312) 
nan

>  <Pocket>  (312) 
nan

>  <ATP_Site>  (312) 
nan

>  <Peripheral>  (312) 
nan

>  <Num_H_Atoms_ProtBoundConf>  (312) 
nan

>  <Num_Resolved_Atoms>  (312) 
nan

>  <Num_Not_Resolved_Atoms>  (312) 
nan

$$$$
CHEMBL4783817
     RDKit          3D

  0  0  0  0  0  0  0  0  0  0999 V3000
M  V30 BEGIN CTAB
M  V30 COUNTS 53 58 0 0 0
M  V30 BEGIN ATOM
M  V30 1 C -4.472016 -3.690006 -4.132605 0
M  V30 2 C -3.170473 -3.769720 -3.402006 0
M  V30 3 C -3.286702 -3.343287 -1.963619 0
M  V30 4 O -4.149005 -2.923621 -1.149997 0
M  V30 5 N -2.025480 -3.433525 -1.271678 0
M  V30 6 C -2.052327 -3.041213 0.114280 0
M  V30 7 C -2.321022 -3.985706 1.086999 0
M  V30 8 N -2.343057 -3.599735 2.390071 0
M  V30 9 C -2.105748 -2.304656 2.749138 0
M  V30 10 C -1.832897 -1.333397 1.793839 0
M  V30 11 C -1.580238 0.049333 2.181818 0
M  V30 12 C -2.126795 0.713899 3.257272 0
M  V30 13 C -1.819194 2.025215 3.539095 0
M  V30 14 C -0.941866 2.726294 2.743552 0
M  V30 15 N -0.463351 3.981930 2.770089 0
M  V30 16 N 0.363750 4.133501 1.752448 0
M  V30 17 C 0.456553 3.009963 1.037387 0
M  V30 18 C 1.276698 2.814080 -0.152535 0
M  V30 19 N 1.401356 1.705734 -0.903208 0
M  V30 20 C 2.279347 2.017344 -1.902989 0
M  V30 21 C 2.775681 1.282428 -2.949601 0
M  V30 22 C 2.382413 -0.100947 -3.157920 0
M  V30 23 C 3.238628 -1.120572 -3.458053 0
M  V30 24 C 2.761783 -2.383589 -3.633211 0
M  V30 25 S 0.964049 -2.310661 -3.389626 0
M  V30 26 C 1.029819 -0.449832 -3.050121 0
M  V30 27 C 3.675545 1.861050 -3.837359 0
M  V30 28 N 4.054226 3.156117 -3.655577 0
M  V30 29 C 3.567460 3.883239 -2.626087 0
M  V30 30 C 2.674961 3.338773 -1.729709 0
M  V30 31 N 2.045389 3.814389 -0.643437 0
M  V30 32 C -0.372601 2.099357 1.657739 0
M  V30 33 C -0.697373 0.785621 1.397207 0
M  V30 34 C -1.806832 -1.709236 0.465186 0
M  V30 35 H -5.277575 -3.255925 -3.506280 0
M  V30 36 H -4.346304 -3.010599 -4.999517 0
M  V30 37 H -4.770144 -4.674873 -4.544492 0
M  V30 38 H -2.774080 -4.807501 -3.451988 0
M  V30 39 H -2.411226 -3.096794 -3.850116 0
M  V30 40 H -1.106749 -3.750620 -1.669389 0
M  V30 41 H -2.509034 -5.009853 0.812932 0
M  V30 42 H -2.121285 -1.990134 3.781305 0
M  V30 43 H -2.811313 0.145365 3.866605 0
M  V30 44 H -2.247794 2.537338 4.376718 0
M  V30 45 H -0.749651 4.667443 3.510683 0
M  V30 46 H 4.304574 -0.972716 -3.566376 0
M  V30 47 H 3.278741 -3.307899 -3.872408 0
M  V30 48 H 0.173776 0.284022 -2.803028 0
M  V30 49 H 4.064641 1.277916 -4.661162 0
M  V30 50 H 3.903716 4.917375 -2.525484 0
M  V30 51 H 2.181156 4.796833 -0.304100 0
M  V30 52 H -0.219017 0.348991 0.531968 0
M  V30 53 H -1.600342 -1.001477 -0.322244 0
M  V30 END ATOM
M  V30 BEGIN BOND
M  V30 1 1 1 2
M  V30 2 1 2 3
M  V30 3 2 3 4
M  V30 4 1 3 5
M  V30 5 1 5 6
M  V30 6 2 6 7
M  V30 7 1 7 8
M  V30 8 2 8 9
M  V30 9 1 9 10
M  V30 10 1 10 11
M  V30 11 2 11 12
M  V30 12 1 12 13
M  V30 13 2 13 14
M  V30 14 1 14 15
M  V30 15 1 15 16
M  V30 16 2 16 17
M  V30 17 1 17 18
M  V30 18 2 18 19
M  V30 19 1 19 20
M  V30 20 2 20 21
M  V30 21 1 21 22
M  V30 22 1 22 23
M  V30 23 2 23 24
M  V30 24 1 24 25
M  V30 25 1 25 26
M  V30 26 1 21 27
M  V30 27 2 27 28
M  V30 28 1 28 29
M  V30 29 2 29 30
M  V30 30 1 30 31
M  V30 31 1 17 32
M  V30 32 2 32 33
M  V30 33 2 10 34
M  V30 34 1 34 6
M  V30 35 1 33 11
M  V30 36 1 32 14
M  V30 37 1 31 18
M  V30 38 1 30 20
M  V30 39 2 26 22
M  V30 40 1 1 35
M  V30 41 1 1 36
M  V30 42 1 1 37
M  V30 43 1 2 38
M  V30 44 1 2 39
M  V30 45 1 5 40
M  V30 46 1 7 41
M  V30 47 1 9 42
M  V30 48 1 12 43
M  V30 49 1 13 44
M  V30 50 1 15 45
M  V30 51 1 23 46
M  V30 52 1 24 47
M  V30 53 1 26 48
M  V30 54 1 27 49
M  V30 55 1 29 50
M  V30 56 1 31 51
M  V30 57 1 33 52
M  V30 58 1 34 53
M  V30 END BOND
M  V30 END CTAB
M  END
>  <Dataset>  (313) 
ChEMBL_Kinases

>  <Ligand_Instance>  (313) 
nan

>  <PDB_ID>  (313) 
nan

>  <Standardized_SMILES>  (313) 
CCC(=O)Nc1cncc(-c2ccc3[nH]nc(-c4nc5c(-c6ccsc6)cncc5[nH]4)c3c2)c1

>  <Name>  (313) 
nan

>  <Pocket>  (313) 
nan

>  <ATP_Site>  (313) 
nan

>  <Peripheral>  (313) 
nan

>  <Num_H_Atoms_ProtBoundConf>  (313) 
nan

>  <Num_Resolved_Atoms>  (313) 
nan

>  <Num_Not_Resolved_Atoms>  (313) 
nan

$$$$
CHEMBL4778878
     RDKit          3D

  0  0  0  0  0  0  0  0  0  0999 V3000
M  V30 BEGIN CTAB
M  V30 COUNTS 57 61 0 0 0
M  V30 BEGIN ATOM
M  V30 1 C 6.075545 -4.246039 -5.013298 0
M  V30 2 N 5.415974 -3.312555 -4.172451 0
M  V30 3 C 5.097328 -3.747595 -2.873190 0
M  V30 4 C 5.366304 -2.680192 -1.859832 0
M  V30 5 C 4.484289 -1.510471 -2.261308 0
M  V30 6 O 3.153885 -1.907724 -2.474053 0
M  V30 7 C 2.090523 -1.395481 -1.746030 0
M  V30 8 N 2.173007 -0.482444 -0.760429 0
M  V30 9 C 1.080125 -0.037981 -0.100933 0
M  V30 10 C -0.183799 -0.522311 -0.430326 0
M  V30 11 N -1.287972 -0.031896 0.290712 0
M  V30 12 C -2.040203 1.101578 -0.057430 0
M  V30 13 O -1.518532 1.556104 -1.127251 0
M  V30 14 C -3.175906 1.794192 0.492589 0
M  V30 15 N -3.650700 2.829818 -0.223854 0
M  V30 16 N -4.697833 3.361515 0.427788 0
M  V30 17 C -4.963259 2.723433 1.577047 0
M  V30 18 C -5.879341 2.837542 2.599317 0
M  V30 19 C -5.751530 1.918989 3.612912 0
M  V30 20 F -6.662031 2.030879 4.634394 0
M  V30 21 C -4.805632 0.937797 3.663779 0
M  V30 22 C -4.717290 -0.011833 4.770027 0
M  V30 23 C -4.536380 -1.360987 4.546509 0
M  V30 24 N -4.498602 -1.940363 5.747451 0
M  V30 25 N -4.641231 -1.066063 6.723965 0
M  V30 26 C -4.646075 -1.363619 8.146683 0
M  V30 27 C -4.778207 0.134591 6.137502 0
M  V30 28 C -3.906632 0.850771 2.628190 0
M  V30 29 C -3.995255 1.747049 1.592462 0
M  V30 30 C -0.269983 -1.470876 -1.454616 0
M  V30 31 C 0.866156 -1.914531 -2.119984 0
M  V30 32 F 0.658247 -2.840992 -3.101103 0
M  V30 33 C 5.088043 -0.961610 -3.508558 0
M  V30 34 C 5.769741 -1.949918 -4.372322 0
M  V30 35 H 6.058771 -3.911546 -6.063227 0
M  V30 36 H 7.123781 -4.492431 -4.716654 0
M  V30 37 H 5.531384 -5.228076 -4.887275 0
M  V30 38 H 4.075697 -4.176859 -2.803932 0
M  V30 39 H 5.778136 -4.606411 -2.599555 0
M  V30 40 H 5.205510 -3.035235 -0.846735 0
M  V30 41 H 6.407311 -2.354599 -1.974226 0
M  V30 42 H 4.479629 -0.718975 -1.487842 0
M  V30 43 H 1.249237 0.705505 0.685460 0
M  V30 44 H -1.622104 -0.501704 1.152336 0
M  V30 45 H -5.228861 4.183171 0.053594 0
M  V30 46 H -6.616296 3.621825 2.534911 0
M  V30 47 H -4.437228 -1.909906 3.611111 0
M  V30 48 H -4.201739 -2.388622 8.289561 0
M  V30 49 H -3.935160 -0.660916 8.659512 0
M  V30 50 H -5.669114 -1.325071 8.553608 0
M  V30 51 H -4.916501 1.092852 6.608429 0
M  V30 52 H -3.157903 0.083981 2.660898 0
M  V30 53 H -1.282167 -1.790437 -1.644122 0
M  V30 54 H 5.758813 -0.095520 -3.245144 0
M  V30 55 H 4.257676 -0.512056 -4.118918 0
M  V30 56 H 5.626388 -1.718433 -5.456717 0
M  V30 57 H 6.863982 -1.843064 -4.208341 0
M  V30 END ATOM
M  V30 BEGIN BOND
M  V30 1 1 1 2
M  V30 2 1 2 3
M  V30 3 1 3 4
M  V30 4 1 4 5
M  V30 5 1 5 6
M  V30 6 1 6 7
M  V30 7 2 7 8
M  V30 8 1 8 9
M  V30 9 2 9 10
M  V30 10 1 10 11
M  V30 11 1 11 12
M  V30 12 2 12 13
M  V30 13 1 12 14
M  V30 14 2 14 15
M  V30 15 1 15 16
M  V30 16 1 16 17
M  V30 17 2 17 18
M  V30 18 1 18 19
M  V30 19 1 19 20
M  V30 20 2 19 21
M  V30 21 1 21 22
M  V30 22 1 22 23
M  V30 23 2 23 24
M  V30 24 1 24 25
M  V30 25 1 25 26
M  V30 26 1 25 27
M  V30 27 1 21 28
M  V30 28 2 28 29
M  V30 29 1 10 30
M  V30 30 2 30 31
M  V30 31 1 31 32
M  V30 32 1 5 33
M  V30 33 1 33 34
M  V30 34 1 34 2
M  V30 35 1 31 7
M  V30 36 1 29 14
M  V30 37 1 29 17
M  V30 38 2 27 22
M  V30 39 1 1 35
M  V30 40 1 1 36
M  V30 41 1 1 37
M  V30 42 1 3 38
M  V30 43 1 3 39
M  V30 44 1 4 40
M  V30 45 1 4 41
M  V30 46 1 5 42
M  V30 47 1 9 43
M  V30 48 1 11 44
M  V30 49 1 16 45
M  V30 50 1 18 46
M  V30 51 1 23 47
M  V30 52 1 26 48
M  V30 53 1 26 49
M  V30 54 1 26 50
M  V30 55 1 27 51
M  V30 56 1 28 52
M  V30 57 1 30 53
M  V30 58 1 33 54
M  V30 59 1 33 55
M  V30 60 1 34 56
M  V30 61 1 34 57
M  V30 END BOND
M  V30 END CTAB
M  END
>  <Dataset>  (314) 
ChEMBL_Kinases

>  <Ligand_Instance>  (314) 
nan

>  <PDB_ID>  (314) 
nan

>  <Standardized_SMILES>  (314) 
CN1CCC(Oc2ncc(NC(=O)c3n[nH]c4cc(F)c(-c5cnn(C)c5)cc34)cc2F)CC1

>  <Name>  (314) 
nan

>  <Pocket>  (314) 
nan

>  <ATP_Site>  (314) 
nan

>  <Peripheral>  (314) 
nan

>  <Num_H_Atoms_ProtBoundConf>  (314) 
nan

>  <Num_Resolved_Atoms>  (314) 
nan

>  <Num_Not_Resolved_Atoms>  (314) 
nan

$$$$
CHEMBL4783783
     RDKit          3D

  0  0  0  0  0  0  0  0  0  0999 V3000
M  V30 BEGIN CTAB
M  V30 COUNTS 53 58 0 0 0
M  V30 BEGIN ATOM
M  V30 1 C 6.344540 1.266215 5.044367 0
M  V30 2 N 5.382907 1.958346 4.190015 0
M  V30 3 C 5.425837 3.373204 3.958925 0
M  V30 4 C 4.359560 1.155590 3.567482 0
M  V30 5 C 4.361978 -0.217243 3.824942 0
M  V30 6 N 3.410466 -0.971277 3.247529 0
M  V30 7 C 2.482834 -0.389144 2.439322 0
M  V30 8 C 2.463012 0.964216 2.172359 0
M  V30 9 C 1.418226 1.475951 1.288889 0
M  V30 10 C 1.276862 2.782960 0.938924 0
M  V30 11 C 0.284716 3.249120 0.103700 0
M  V30 12 C -0.600288 2.286518 -0.384707 0
M  V30 13 N -1.671235 2.374695 -1.208998 0
M  V30 14 N -2.195406 1.163760 -1.378969 0
M  V30 15 C -1.484582 0.259574 -0.674424 0
M  V30 16 C -1.679334 -1.182719 -0.552839 0
M  V30 17 N -2.674677 -1.874932 -1.174843 0
M  V30 18 C -2.567192 -3.182708 -0.850317 0
M  V30 19 C -3.316976 -4.267191 -1.214075 0
M  V30 20 C -4.449179 -4.056380 -2.107385 0
M  V30 21 C -5.288659 -2.985387 -1.839236 0
M  V30 22 C -6.381627 -2.742233 -2.661281 0
M  V30 23 C -6.682621 -3.530324 -3.757519 0
M  V30 24 C -5.840310 -4.583856 -4.005136 0
M  V30 25 F -6.035196 -5.425662 -5.052209 0
M  V30 26 C -4.750634 -4.855182 -3.214972 0
M  V30 27 C -2.946049 -5.481922 -0.708159 0
M  V30 28 N -1.892726 -5.653916 0.118452 0
M  V30 29 C -1.173581 -4.562834 0.457871 0
M  V30 30 C -1.477623 -3.291990 -0.008035 0
M  V30 31 N -0.954896 -2.081174 0.160905 0
M  V30 32 C -0.471491 0.956272 -0.039898 0
M  V30 33 N 0.541015 0.587406 0.792570 0
M  V30 34 C 3.425345 1.762904 2.749620 0
M  V30 35 H 7.126775 2.011347 5.304190 0
M  V30 36 H 6.794365 0.438320 4.447737 0
M  V30 37 H 5.888771 0.862261 5.969047 0
M  V30 38 H 5.799965 3.659347 2.971823 0
M  V30 39 H 6.120354 3.818423 4.703815 0
M  V30 40 H 4.438691 3.877202 4.169631 0
M  V30 41 H 5.093610 -0.689004 4.464735 0
M  V30 42 H 1.777361 -1.107287 2.040837 0
M  V30 43 H 1.970926 3.512401 1.326698 0
M  V30 44 H 0.187172 4.291901 -0.164020 0
M  V30 45 H -1.970416 3.296492 -1.606298 0
M  V30 46 H -5.109916 -2.326124 -0.993664 0
M  V30 47 H -7.018626 -1.890014 -2.417573 0
M  V30 48 H -7.529732 -3.350104 -4.403027 0
M  V30 49 H -4.086409 -5.678467 -3.402607 0
M  V30 50 H -3.527686 -6.353008 -0.984794 0
M  V30 51 H -0.320880 -4.648527 1.117081 0
M  V30 52 H -0.124428 -1.826946 0.740059 0
M  V30 53 H 3.433152 2.807147 2.561061 0
M  V30 END ATOM
M  V30 BEGIN BOND
M  V30 1 1 1 2
M  V30 2 1 2 3
M  V30 3 1 2 4
M  V30 4 2 4 5
M  V30 5 1 5 6
M  V30 6 2 6 7
M  V30 7 1 7 8
M  V30 8 1 8 9
M  V30 9 2 9 10
M  V30 10 1 10 11
M  V30 11 2 11 12
M  V30 12 1 12 13
M  V30 13 1 13 14
M  V30 14 2 14 15
M  V30 15 1 15 16
M  V30 16 2 16 17
M  V30 17 1 17 18
M  V30 18 2 18 19
M  V30 19 1 19 20
M  V30 20 2 20 21
M  V30 21 1 21 22
M  V30 22 2 22 23
M  V30 23 1 23 24
M  V30 24 1 24 25
M  V30 25 2 24 26
M  V30 26 1 19 27
M  V30 27 2 27 28
M  V30 28 1 28 29
M  V30 29 2 29 30
M  V30 30 1 30 31
M  V30 31 1 15 32
M  V30 32 2 32 33
M  V30 33 2 8 34
M  V30 34 1 34 4
M  V30 35 1 33 9
M  V30 36 1 32 12
M  V30 37 1 31 16
M  V30 38 1 30 18
M  V30 39 1 26 20
M  V30 40 1 1 35
M  V30 41 1 1 36
M  V30 42 1 1 37
M  V30 43 1 3 38
M  V30 44 1 3 39
M  V30 45 1 3 40
M  V30 46 1 5 41
M  V30 47 1 7 42
M  V30 48 1 10 43
M  V30 49 1 11 44
M  V30 50 1 13 45
M  V30 51 1 21 46
M  V30 52 1 22 47
M  V30 53 1 23 48
M  V30 54 1 26 49
M  V30 55 1 27 50
M  V30 56 1 29 51
M  V30 57 1 31 52
M  V30 58 1 34 53
M  V30 END BOND
M  V30 END CTAB
M  END
>  <Dataset>  (315) 
ChEMBL_Kinases

>  <Ligand_Instance>  (315) 
nan

>  <PDB_ID>  (315) 
nan

>  <Standardized_SMILES>  (315) 
CN(C)c1cncc(-c2ccc3[nH]nc(-c4nc5c(-c6cccc(F)c6)cncc5[nH]4)c3n2)c1

>  <Name>  (315) 
nan

>  <Pocket>  (315) 
nan

>  <ATP_Site>  (315) 
nan

>  <Peripheral>  (315) 
nan

>  <Num_H_Atoms_ProtBoundConf>  (315) 
nan

>  <Num_Resolved_Atoms>  (315) 
nan

>  <Num_Not_Resolved_Atoms>  (315) 
nan

$$$$
CHEMBL4783753
     RDKit          3D

  0  0  0  0  0  0  0  0  0  0999 V3000
M  V30 BEGIN CTAB
M  V30 COUNTS 49 54 0 0 0
M  V30 BEGIN ATOM
M  V30 1 C 5.727151 -4.223102 1.771925 0
M  V30 2 O 4.886029 -3.256589 1.222587 0
M  V30 3 C 5.037091 -1.889416 1.452430 0
M  V30 4 C 6.036605 -1.364485 2.247692 0
M  V30 5 C 6.093809 -0.002253 2.406636 0
M  V30 6 C 5.192825 0.852041 1.802800 0
M  V30 7 C 4.180722 0.357446 1.000668 0
M  V30 8 C 3.166029 1.147003 0.305955 0
M  V30 9 C 3.401488 2.306167 -0.418160 0
M  V30 10 N 2.358061 2.916370 -0.999495 0
M  V30 11 C 1.093173 2.475281 -0.925458 0
M  V30 12 C 0.786220 1.334670 -0.225838 0
M  V30 13 N -0.331341 0.617621 0.055460 0
M  V30 14 C -0.022936 -0.436029 0.803237 0
M  V30 15 C -0.897903 -1.485256 1.345223 0
M  V30 16 N -0.525094 -2.531666 2.099262 0
M  V30 17 N -1.564716 -3.285580 2.418271 0
M  V30 18 C -2.628152 -2.692472 1.844806 0
M  V30 19 C -3.943262 -3.077134 1.873066 0
M  V30 20 C -4.842587 -2.284132 1.195905 0
M  V30 21 C -4.489740 -1.144971 0.505088 0
M  V30 22 C -5.426007 -0.293205 -0.217186 0
M  V30 23 C -4.918083 0.815063 -0.861062 0
M  V30 24 C -5.706787 1.693417 -1.575585 0
M  V30 25 C -7.062181 1.391246 -1.608648 0
M  V30 26 N -7.572542 0.313089 -0.985048 0
M  V30 27 C -6.780059 -0.540472 -0.286232 0
M  V30 28 N -3.188027 -0.807494 0.505651 0
M  V30 29 C -2.264864 -1.553908 1.156172 0
M  V30 30 N 1.314173 -0.378977 0.994860 0
M  V30 31 C 1.844130 0.704620 0.371070 0
M  V30 32 C 4.144340 -1.033478 0.854915 0
M  V30 33 H 5.269588 -5.222328 1.521550 0
M  V30 34 H 6.734106 -4.236933 1.295245 0
M  V30 35 H 5.783805 -4.195146 2.879929 0
M  V30 36 H 6.704895 -2.074332 2.689097 0
M  V30 37 H 6.874587 0.393324 3.026622 0
M  V30 38 H 5.220254 1.931227 1.915284 0
M  V30 39 H 4.427292 2.645342 -0.465970 0
M  V30 40 H 0.287615 3.013464 -1.418510 0
M  V30 41 H -1.293376 0.875738 -0.279719 0
M  V30 42 H -1.550971 -4.157860 2.995919 0
M  V30 43 H -4.281072 -3.962533 2.399103 0
M  V30 44 H -5.878354 -2.578450 1.212467 0
M  V30 45 H -3.857609 1.070701 -0.847870 0
M  V30 46 H -5.335923 2.571218 -2.090943 0
M  V30 47 H -7.766203 2.026611 -2.148391 0
M  V30 48 H -7.195173 -1.396007 0.206869 0
M  V30 49 H 3.351876 -1.454902 0.223950 0
M  V30 END ATOM
M  V30 BEGIN BOND
M  V30 1 1 1 2
M  V30 2 1 2 3
M  V30 3 2 3 4
M  V30 4 1 4 5
M  V30 5 2 5 6
M  V30 6 1 6 7
M  V30 7 1 7 8
M  V30 8 2 8 9
M  V30 9 1 9 10
M  V30 10 2 10 11
M  V30 11 1 11 12
M  V30 12 1 12 13
M  V30 13 1 13 14
M  V30 14 1 14 15
M  V30 15 2 15 16
M  V30 16 1 16 17
M  V30 17 1 17 18
M  V30 18 2 18 19
M  V30 19 1 19 20
M  V30 20 2 20 21
M  V30 21 1 21 22
M  V30 22 2 22 23
M  V30 23 1 23 24
M  V30 24 2 24 25
M  V30 25 1 25 26
M  V30 26 2 26 27
M  V30 27 1 21 28
M  V30 28 2 28 29
M  V30 29 2 14 30
M  V30 30 1 30 31
M  V30 31 2 7 32
M  V30 32 1 32 3
M  V30 33 1 31 8
M  V30 34 2 31 12
M  V30 35 1 29 15
M  V30 36 1 29 18
M  V30 37 1 27 22
M  V30 38 1 1 33
M  V30 39 1 1 34
M  V30 40 1 1 35
M  V30 41 1 4 36
M  V30 42 1 5 37
M  V30 43 1 6 38
M  V30 44 1 9 39
M  V30 45 1 11 40
M  V30 46 1 13 41
M  V30 47 1 17 42
M  V30 48 1 19 43
M  V30 49 1 20 44
M  V30 50 1 23 45
M  V30 51 1 24 46
M  V30 52 1 25 47
M  V30 53 1 27 48
M  V30 54 1 32 49
M  V30 END BOND
M  V30 END CTAB
M  END
>  <Dataset>  (316) 
ChEMBL_Kinases

>  <Ligand_Instance>  (316) 
nan

>  <PDB_ID>  (316) 
nan

>  <Standardized_SMILES>  (316) 
COc1cccc(-c2cncc3[nH]c(-c4n[nH]c5ccc(-c6cccnc6)nc45)nc23)c1

>  <Name>  (316) 
nan

>  <Pocket>  (316) 
nan

>  <ATP_Site>  (316) 
nan

>  <Peripheral>  (316) 
nan

>  <Num_H_Atoms_ProtBoundConf>  (316) 
nan

>  <Num_Resolved_Atoms>  (316) 
nan

>  <Num_Not_Resolved_Atoms>  (316) 
nan

$$$$
CHEMBL1761554
     RDKit          3D

  0  0  0  0  0  0  0  0  0  0999 V3000
M  V30 BEGIN CTAB
M  V30 COUNTS 57 62 0 0 0
M  V30 BEGIN ATOM
M  V30 1 C 1.347408 -4.969165 4.267832 0
M  V30 2 N 1.729541 -4.317304 3.005597 0
M  V30 3 C 2.316059 -3.054859 3.021980 0
M  V30 4 C 2.548800 -2.751678 1.675097 0
M  V30 5 C 3.191057 -1.481538 1.418674 0
M  V30 6 C 4.130195 -0.930457 2.332561 0
M  V30 7 C 4.666060 0.361479 2.135881 0
M  V30 8 C 4.278968 1.141295 1.011901 0
M  V30 9 C 4.831933 2.371554 1.008502 0
M  V30 10 N 4.353444 3.163261 -0.056249 0
M  V30 11 C 3.464562 2.581212 -0.856823 0
M  V30 12 N 2.750463 3.268775 -1.959851 0
M  V30 13 C 1.333592 2.931666 -1.940395 0
M  V30 14 C 1.039902 2.673698 -0.574925 0
M  V30 15 C -0.274180 2.202622 -0.303679 0
M  V30 16 C -1.266836 1.986196 -1.281598 0
M  V30 17 N -2.580392 1.444920 -0.982173 0
M  V30 18 C -1.997980 0.100866 -0.997238 0
M  V30 19 N -2.932286 -0.861439 -0.759880 0
M  V30 20 C -4.117214 -0.246982 -0.585884 0
M  V30 21 N -4.958212 -1.407867 -0.349203 0
M  V30 22 C -5.595881 -1.776872 0.896276 0
M  V30 23 C -5.379050 -3.309600 0.977694 0
M  V30 24 O -4.182810 -3.667109 0.333810 0
M  V30 25 C -4.262542 -3.553248 -1.063805 0
M  V30 26 C -5.233740 -2.407711 -1.408624 0
M  V30 27 N -3.357053 0.615298 -0.783662 0
M  V30 28 C -0.853389 2.279045 -2.551021 0
M  V30 29 C 0.399673 2.741875 -2.907855 0
M  V30 30 N 2.977503 1.297458 -0.747243 0
M  V30 31 C 3.397264 0.464075 0.272371 0
M  V30 32 C 2.778105 -0.752761 0.291598 0
M  V30 33 C 2.116509 -3.802142 0.918330 0
M  V30 34 N 1.614708 -4.757761 1.749256 0
M  V30 35 H 1.186397 -4.139956 5.019708 0
M  V30 36 H 2.148636 -5.603949 4.632665 0
M  V30 37 H 0.361298 -5.466053 4.204362 0
M  V30 38 H 2.495963 -2.470790 3.915393 0
M  V30 39 H 4.431319 -1.540023 3.185688 0
M  V30 40 H 5.351840 0.642527 2.894521 0
M  V30 41 H 5.557121 2.688488 1.743421 0
M  V30 42 H 3.131016 3.898510 -2.669490 0
M  V30 43 H 1.498999 2.738031 0.389767 0
M  V30 44 H -0.697582 1.969099 0.690744 0
M  V30 45 H -0.956628 -0.483471 -1.142663 0
M  V30 46 H -5.132388 -1.267017 1.742839 0
M  V30 47 H -6.672115 -1.599114 0.901350 0
M  V30 48 H -5.250949 -3.543873 2.042692 0
M  V30 49 H -6.238572 -3.786043 0.508882 0
M  V30 50 H -3.256920 -3.206577 -1.426495 0
M  V30 51 H -4.558915 -4.482155 -1.575838 0
M  V30 52 H -6.244475 -2.776493 -1.339856 0
M  V30 53 H -4.956080 -1.960343 -2.396007 0
M  V30 54 H -1.544504 2.154018 -3.392512 0
M  V30 55 H 0.838103 2.997501 -3.846687 0
M  V30 56 H 2.092605 -1.064175 -0.445244 0
M  V30 57 H 2.203667 -3.788695 -0.153401 0
M  V30 END ATOM
M  V30 BEGIN BOND
M  V30 1 1 1 2
M  V30 2 1 2 3
M  V30 3 2 3 4
M  V30 4 1 4 5
M  V30 5 2 5 6
M  V30 6 1 6 7
M  V30 7 2 7 8
M  V30 8 1 8 9
M  V30 9 2 9 10
M  V30 10 1 10 11
M  V30 11 1 11 12
M  V30 12 1 12 13
M  V30 13 2 13 14
M  V30 14 1 14 15
M  V30 15 2 15 16
M  V30 16 1 16 17
M  V30 17 1 17 18
M  V30 18 2 18 19
M  V30 19 1 19 20
M  V30 20 1 20 21
M  V30 21 1 21 22
M  V30 22 1 22 23
M  V30 23 1 23 24
M  V30 24 1 24 25
M  V30 25 1 25 26
M  V30 26 2 20 27
M  V30 27 1 16 28
M  V30 28 2 28 29
M  V30 29 2 11 30
M  V30 30 1 30 31
M  V30 31 2 31 32
M  V30 32 1 4 33
M  V30 33 2 33 34
M  V30 34 1 34 2
M  V30 35 1 32 5
M  V30 36 1 31 8
M  V30 37 1 29 13
M  V30 38 1 27 17
M  V30 39 1 26 21
M  V30 40 1 1 35
M  V30 41 1 1 36
M  V30 42 1 1 37
M  V30 43 1 3 38
M  V30 44 1 6 39
M  V30 45 1 7 40
M  V30 46 1 9 41
M  V30 47 1 12 42
M  V30 48 1 14 43
M  V30 49 1 15 44
M  V30 50 1 18 45
M  V30 51 1 22 46
M  V30 52 1 22 47
M  V30 53 1 23 48
M  V30 54 1 23 49
M  V30 55 1 25 50
M  V30 56 1 25 51
M  V30 57 1 26 52
M  V30 58 1 26 53
M  V30 59 1 28 54
M  V30 60 1 29 55
M  V30 61 1 32 56
M  V30 62 1 33 57
M  V30 END BOND
M  V30 END CTAB
M  END
>  <Dataset>  (317) 
ChEMBL_Kinases

>  <Ligand_Instance>  (317) 
nan

>  <PDB_ID>  (317) 
nan

>  <Standardized_SMILES>  (317) 
Cn1cc(-c2ccc3cnc(Nc4ccc(-n5cnc(N6CCOCC6)n5)cc4)nc3c2)cn1

>  <Name>  (317) 
nan

>  <Pocket>  (317) 
nan

>  <ATP_Site>  (317) 
nan

>  <Peripheral>  (317) 
nan

>  <Num_H_Atoms_ProtBoundConf>  (317) 
nan

>  <Num_Resolved_Atoms>  (317) 
nan

>  <Num_Not_Resolved_Atoms>  (317) 
nan

$$$$
CHEMBL4783658
     RDKit          3D

  0  0  0  0  0  0  0  0  0  0999 V3000
M  V30 BEGIN CTAB
M  V30 COUNTS 61 66 0 0 0
M  V30 BEGIN ATOM
M  V30 1 C 4.152474 -2.901861 6.256551 0
M  V30 2 C 5.372681 -3.237016 5.452323 0
M  V30 3 C 6.159205 -1.960688 5.259815 0
M  V30 4 C 5.026716 -3.918297 4.145501 0
M  V30 5 C 4.170481 -3.053259 3.297761 0
M  V30 6 O 3.889469 -1.921220 3.760488 0
M  V30 7 N 3.675124 -3.439908 2.033092 0
M  V30 8 C 2.858357 -2.701161 1.147905 0
M  V30 9 C 2.482641 -3.297684 -0.035621 0
M  V30 10 N 1.710047 -2.686672 -0.947176 0
M  V30 11 C 1.227699 -1.439836 -0.799594 0
M  V30 12 C 1.584283 -0.811027 0.374924 0
M  V30 13 C 1.087720 0.548125 0.585319 0
M  V30 14 C 1.824255 1.466284 1.311185 0
M  V30 15 N 1.297854 2.702978 1.460030 0
M  V30 16 C 0.110627 3.040584 0.931165 0
M  V30 17 N -0.636201 4.164493 0.918558 0
M  V30 18 N -1.750684 3.974196 0.242737 0
M  V30 19 C -1.829220 2.725696 -0.239370 0
M  V30 20 C -2.927770 2.206923 -1.022101 0
M  V30 21 C -3.266252 1.024632 -1.617039 0
M  V30 22 C -4.466699 1.074676 -2.253440 0
M  V30 23 C -5.190846 0.147499 -2.972312 0
M  V30 24 C -4.698189 -1.209205 -3.157964 0
M  V30 25 C -4.671140 -1.853356 -4.388348 0
M  V30 26 C -4.198139 -3.159367 -4.527046 0
M  V30 27 C -3.737537 -3.860557 -3.437457 0
M  V30 28 N -3.768347 -3.232458 -2.261957 0
M  V30 29 C -4.221135 -1.977242 -2.117758 0
M  V30 30 C -6.413734 0.480551 -3.526750 0
M  V30 31 C -6.822576 1.771481 -3.301883 0
M  V30 32 N -6.114098 2.672498 -2.600196 0
M  V30 33 C -4.918521 2.372861 -2.049334 0
M  V30 34 N -3.985025 2.994763 -1.324717 0
M  V30 35 C -0.659997 2.160775 0.200494 0
M  V30 36 C -0.129653 0.901256 0.045615 0
M  V30 37 C 2.377663 -1.436691 1.312820 0
M  V30 38 H 3.222602 -3.073892 5.675462 0
M  V30 39 H 4.113217 -3.551928 7.147730 0
M  V30 40 H 4.164125 -1.852948 6.650167 0
M  V30 41 H 6.009499 -3.935170 6.030558 0
M  V30 42 H 6.776310 -1.824161 6.192871 0
M  V30 43 H 6.847575 -2.006309 4.409554 0
M  V30 44 H 5.475074 -1.087728 5.261138 0
M  V30 45 H 4.492740 -4.855945 4.427769 0
M  V30 46 H 5.934190 -4.235328 3.596483 0
M  V30 47 H 3.985721 -4.400074 1.775717 0
M  V30 48 H 2.796920 -4.300676 -0.289785 0
M  V30 49 H 0.615547 -1.024538 -1.578357 0
M  V30 50 H 2.786953 1.191891 1.739969 0
M  V30 51 H -0.394722 5.076564 1.371462 0
M  V30 52 H -2.661356 0.153387 -1.593474 0
M  V30 53 H -5.031738 -1.317142 -5.269721 0
M  V30 54 H -4.186304 -3.637147 -5.486001 0
M  V30 55 H -3.358539 -4.870255 -3.470046 0
M  V30 56 H -4.192528 -1.596243 -1.108184 0
M  V30 57 H -6.994497 -0.234274 -4.093553 0
M  V30 58 H -7.783059 2.124937 -3.705405 0
M  V30 59 H -4.188920 3.991910 -1.089754 0
M  V30 60 H -0.672259 0.166691 -0.509793 0
M  V30 61 H 2.614102 -0.895006 2.194402 0
M  V30 END ATOM
M  V30 BEGIN BOND
M  V30 1 1 1 2
M  V30 2 1 2 3
M  V30 3 1 2 4
M  V30 4 1 4 5
M  V30 5 2 5 6
M  V30 6 1 5 7
M  V30 7 1 7 8
M  V30 8 2 8 9
M  V30 9 1 9 10
M  V30 10 2 10 11
M  V30 11 1 11 12
M  V30 12 1 12 13
M  V30 13 2 13 14
M  V30 14 1 14 15
M  V30 15 2 15 16
M  V30 16 1 16 17
M  V30 17 1 17 18
M  V30 18 2 18 19
M  V30 19 1 19 20
M  V30 20 2 20 21
M  V30 21 1 21 22
M  V30 22 2 22 23
M  V30 23 1 23 24
M  V30 24 2 24 25
M  V30 25 1 25 26
M  V30 26 2 26 27
M  V30 27 1 27 28
M  V30 28 2 28 29
M  V30 29 1 23 30
M  V30 30 2 30 31
M  V30 31 1 31 32
M  V30 32 2 32 33
M  V30 33 1 33 34
M  V30 34 1 19 35
M  V30 35 2 35 36
M  V30 36 2 12 37
M  V30 37 1 37 8
M  V30 38 1 36 13
M  V30 39 1 35 16
M  V30 40 1 34 20
M  V30 41 1 33 22
M  V30 42 1 29 24
M  V30 43 1 1 38
M  V30 44 1 1 39
M  V30 45 1 1 40
M  V30 46 1 2 41
M  V30 47 1 3 42
M  V30 48 1 3 43
M  V30 49 1 3 44
M  V30 50 1 4 45
M  V30 51 1 4 46
M  V30 52 1 7 47
M  V30 53 1 9 48
M  V30 54 1 11 49
M  V30 55 1 14 50
M  V30 56 1 17 51
M  V30 57 1 21 52
M  V30 58 1 25 53
M  V30 59 1 26 54
M  V30 60 1 27 55
M  V30 61 1 29 56
M  V30 62 1 30 57
M  V30 63 1 31 58
M  V30 64 1 34 59
M  V30 65 1 36 60
M  V30 66 1 37 61
M  V30 END BOND
M  V30 END CTAB
M  END
>  <Dataset>  (318) 
ChEMBL_Kinases

>  <Ligand_Instance>  (318) 
nan

>  <PDB_ID>  (318) 
nan

>  <Standardized_SMILES>  (318) 
CC(C)CC(=O)Nc1cncc(-c2cnc3[nH]nc(-c4cc5c(-c6cccnc6)ccnc5[nH]4)c3c2)c1

>  <Name>  (318) 
nan

>  <Pocket>  (318) 
nan

>  <ATP_Site>  (318) 
nan

>  <Peripheral>  (318) 
nan

>  <Num_H_Atoms_ProtBoundConf>  (318) 
nan

>  <Num_Resolved_Atoms>  (318) 
nan

>  <Num_Not_Resolved_Atoms>  (318) 
nan

$$$$
CHEMBL4783628
     RDKit          3D

  0  0  0  0  0  0  0  0  0  0999 V3000
M  V30 BEGIN CTAB
M  V30 COUNTS 41 44 0 0 0
M  V30 BEGIN ATOM
M  V30 1 C 0.811067 -5.792369 -1.714585 0
M  V30 2 N 2.094201 -5.397324 -1.180259 0
M  V30 3 C 3.087837 -6.257750 -0.895607 0
M  V30 4 N 4.108280 -5.540866 -0.426084 0
M  V30 5 C 3.779569 -4.218871 -0.405410 0
M  V30 6 C 2.490299 -4.162797 -0.892145 0
M  V30 7 C 1.742576 -2.901849 -1.038471 0
M  V30 8 C 1.033220 -2.673996 -2.207742 0
M  V30 9 C 0.301963 -1.518598 -2.433656 0
M  V30 10 C 0.298979 -0.556886 -1.416300 0
M  V30 11 C -0.439480 0.592333 -1.663138 0
M  V30 12 N -0.453801 1.541087 -0.682142 0
M  V30 13 C 0.226363 1.357166 0.475776 0
M  V30 14 N 0.169019 2.400689 1.471990 0
M  V30 15 C -0.931519 2.150416 2.329867 0
M  V30 16 O -1.602889 1.120546 2.063239 0
M  V30 17 C -1.323871 2.980096 3.463242 0
M  V30 18 C -2.429047 2.561494 4.174425 0
M  V30 19 C -2.848401 3.314085 5.264934 0
M  V30 20 C -2.169924 4.459209 5.628020 0
M  V30 21 F -2.563994 5.216315 6.697721 0
M  V30 22 C -1.063218 4.854298 4.894159 0
M  V30 23 C -0.618462 4.117815 3.793144 0
M  V30 24 C 0.971560 0.224534 0.753674 0
M  V30 25 C 0.992412 -0.749665 -0.241393 0
M  V30 26 C 1.699384 -1.928199 -0.088426 0
M  V30 27 H 0.549571 -6.780051 -1.278558 0
M  V30 28 H 0.035251 -5.034022 -1.426050 0
M  V30 29 H 0.899289 -5.817052 -2.817987 0
M  V30 30 H 3.044335 -7.342298 -1.032304 0
M  V30 31 H 4.416122 -3.410664 -0.072560 0
M  V30 32 H 1.029353 -3.423856 -3.013315 0
M  V30 33 H -0.234591 -1.400011 -3.375288 0
M  V30 34 H -1.000934 0.798224 -2.561450 0
M  V30 35 H 0.748276 3.245319 1.662464 0
M  V30 36 H -3.004680 1.672734 3.940913 0
M  V30 37 H -3.728100 3.001784 5.849838 0
M  V30 38 H -0.561385 5.766607 5.221533 0
M  V30 39 H 0.244896 4.441736 3.234788 0
M  V30 40 H 1.512501 0.067844 1.663496 0
M  V30 41 H 2.240803 -2.073259 0.834730 0
M  V30 END ATOM
M  V30 BEGIN BOND
M  V30 1 1 1 2
M  V30 2 1 2 3
M  V30 3 2 3 4
M  V30 4 1 4 5
M  V30 5 2 5 6
M  V30 6 1 6 7
M  V30 7 2 7 8
M  V30 8 1 8 9
M  V30 9 2 9 10
M  V30 10 1 10 11
M  V30 11 2 11 12
M  V30 12 1 12 13
M  V30 13 1 13 14
M  V30 14 1 14 15
M  V30 15 2 15 16
M  V30 16 1 15 17
M  V30 17 2 17 18
M  V30 18 1 18 19
M  V30 19 2 19 20
M  V30 20 1 20 21
M  V30 21 1 20 22
M  V30 22 2 22 23
M  V30 23 2 13 24
M  V30 24 1 24 25
M  V30 25 2 25 26
M  V30 26 1 6 2
M  V30 27 1 26 7
M  V30 28 1 25 10
M  V30 29 1 23 17
M  V30 30 1 1 27
M  V30 31 1 1 28
M  V30 32 1 1 29
M  V30 33 1 3 30
M  V30 34 1 5 31
M  V30 35 1 8 32
M  V30 36 1 9 33
M  V30 37 1 11 34
M  V30 38 1 14 35
M  V30 39 1 18 36
M  V30 40 1 19 37
M  V30 41 1 22 38
M  V30 42 1 23 39
M  V30 43 1 24 40
M  V30 44 1 26 41
M  V30 END BOND
M  V30 END CTAB
M  END
>  <Dataset>  (319) 
ChEMBL_Kinases

>  <Ligand_Instance>  (319) 
nan

>  <PDB_ID>  (319) 
nan

>  <Standardized_SMILES>  (319) 
Cn1cncc1-c1ccc2cnc(NC(=O)c3ccc(F)cc3)cc2c1

>  <Name>  (319) 
nan

>  <Pocket>  (319) 
nan

>  <ATP_Site>  (319) 
nan

>  <Peripheral>  (319) 
nan

>  <Num_H_Atoms_ProtBoundConf>  (319) 
nan

>  <Num_Resolved_Atoms>  (319) 
nan

>  <Num_Not_Resolved_Atoms>  (319) 
nan

$$$$
CHEMBL1765740
     RDKit          3D

  0  0  0  0  0  0  0  0  0  0999 V3000
M  V30 BEGIN CTAB
M  V30 COUNTS 68 72 0 0 0
M  V30 BEGIN ATOM
M  V30 1 C 2.477571 1.935044 4.761087 0
M  V30 2 N 1.084956 1.590639 4.552728 0
M  V30 3 C 0.635554 1.322026 3.230144 0
M  V30 4 N 1.498245 1.385041 2.174261 0
M  V30 5 C 1.106136 1.136582 0.912919 0
M  V30 6 C 2.097727 1.232842 -0.149088 0
M  V30 7 C 3.382444 1.577914 0.222214 0
M  V30 8 C 4.343582 1.673442 -0.783612 0
M  V30 9 C 4.044533 1.435932 -2.108622 0
M  V30 10 C 4.863982 1.482373 -3.241628 0
M  V30 11 N 6.250240 1.791441 -3.352680 0
M  V30 12 N 4.027278 1.157984 -4.269369 0
M  V30 13 N 2.803215 0.930449 -3.823315 0
M  V30 14 C 2.760106 1.089787 -2.488793 0
M  V30 15 C 1.822463 1.000588 -1.478664 0
M  V30 16 C -0.220166 0.812530 0.737999 0
M  V30 17 C -1.132266 0.732057 1.745683 0
M  V30 18 N -2.500769 0.395076 1.580688 0
M  V30 19 C -3.084835 -0.021974 0.321129 0
M  V30 20 C -3.896362 -1.261588 0.575326 0 CFG=1
M  V30 21 C -3.660634 -2.300642 -0.462815 0
M  V30 22 O -4.417558 -2.858710 -1.282431 0
M  V30 23 N -2.311569 -2.783094 -0.576294 0
M  V30 24 C -1.884003 -3.778452 -1.511181 0
M  V30 25 C -0.709388 -3.394522 -2.351864 0
M  V30 26 C 0.441543 -3.019072 -1.478204 0
M  V30 27 C 0.827715 -4.143710 -0.567303 0
M  V30 28 C -0.326281 -4.795412 0.134639 0
M  V30 29 C -1.480292 -5.084044 -0.811492 0
M  V30 30 C -3.559880 -1.909837 1.919313 0
M  V30 31 C -3.822613 -0.957783 3.064015 0
M  V30 32 C -3.444768 0.438747 2.649587 0 CFG=1
M  V30 33 C -3.024914 1.287674 3.829115 0
M  V30 34 N -0.639734 0.997906 2.963305 0
M  V30 35 H 2.512491 2.753031 5.532527 0
M  V30 36 H 2.959738 2.290914 3.827079 0
M  V30 37 H 3.082465 1.056192 5.102358 0
M  V30 38 H 0.406450 1.532435 5.327073 0
M  V30 39 H 3.669883 1.773214 1.236036 0
M  V30 40 H 5.360142 1.947318 -0.485599 0
M  V30 41 H 6.406377 2.686153 -2.799593 0
M  V30 42 H 6.797664 1.097886 -3.932645 0
M  V30 43 H 1.963072 0.664348 -4.384262 0
M  V30 44 H 0.836477 0.732939 -1.783653 0
M  V30 45 H -0.516860 0.616861 -0.281800 0
M  V30 46 H -2.357468 -0.145515 -0.495361 0
M  V30 47 H -3.779678 0.783996 -0.036945 0
M  V30 48 H -4.962455 -0.994533 0.606678 0
M  V30 49 H -1.547794 -2.408099 0.052023 0
M  V30 50 H -2.771809 -4.069960 -2.132651 0
M  V30 51 H -0.429845 -4.321938 -2.927228 0
M  V30 52 H -0.923836 -2.634770 -3.113968 0
M  V30 53 H 0.238587 -2.069491 -0.958024 0
M  V30 54 H 1.318674 -2.862947 -2.172351 0
M  V30 55 H 1.477661 -3.707632 0.238678 0
M  V30 56 H 1.450775 -4.883687 -1.097042 0
M  V30 57 H 0.050157 -5.769988 0.522136 0
M  V30 58 H -0.694550 -4.212163 0.985059 0
M  V30 59 H -2.295448 -5.495070 -0.201016 0
M  V30 60 H -1.136531 -5.765200 -1.625402 0
M  V30 61 H -4.305516 -2.739083 2.036148 0
M  V30 62 H -2.538851 -2.318492 1.919056 0
M  V30 63 H -3.192838 -1.199020 3.948725 0
M  V30 64 H -4.890336 -0.950785 3.351520 0
M  V30 65 H -4.380529 0.937315 2.252875 0
M  V30 66 H -2.392023 0.712665 4.525715 0
M  V30 67 H -2.603800 2.218198 3.450095 0
M  V30 68 H -3.978923 1.466811 4.411729 0
M  V30 END ATOM
M  V30 BEGIN BOND
M  V30 1 1 1 2
M  V30 2 1 2 3
M  V30 3 2 3 4
M  V30 4 1 4 5
M  V30 5 1 5 6
M  V30 6 2 6 7
M  V30 7 1 7 8
M  V30 8 2 8 9
M  V30 9 1 9 10
M  V30 10 1 10 11
M  V30 11 2 10 12
M  V30 12 1 12 13
M  V30 13 1 13 14
M  V30 14 2 14 15
M  V30 15 2 5 16
M  V30 16 1 16 17
M  V30 17 1 17 18
M  V30 18 1 18 19
M  V30 19 1 19 20
M  V30 20 1 20 21
M  V30 21 2 21 22
M  V30 22 1 21 23
M  V30 23 1 23 24
M  V30 24 1 24 25
M  V30 25 1 25 26
M  V30 26 1 26 27
M  V30 27 1 27 28
M  V30 28 1 28 29
M  V30 29 1 20 30
M  V30 30 1 30 31
M  V30 31 1 31 32
M  V30 32 1 32 33
M  V30 33 2 17 34
M  V30 34 1 34 3
M  V30 35 1 15 6
M  V30 36 1 32 18
M  V30 37 1 14 9
M  V30 38 1 29 24
M  V30 39 1 1 35
M  V30 40 1 1 36
M  V30 41 1 1 37
M  V30 42 1 2 38
M  V30 43 1 7 39
M  V30 44 1 8 40
M  V30 45 1 11 41
M  V30 46 1 11 42
M  V30 47 1 13 43
M  V30 48 1 15 44
M  V30 49 1 16 45
M  V30 50 1 19 46
M  V30 51 1 19 47
M  V30 52 1 20 48 CFG=1
M  V30 53 1 23 49
M  V30 54 1 24 50
M  V30 55 1 25 51
M  V30 56 1 25 52
M  V30 57 1 26 53
M  V30 58 1 26 54
M  V30 59 1 27 55
M  V30 60 1 27 56
M  V30 61 1 28 57
M  V30 62 1 28 58
M  V30 63 1 29 59
M  V30 64 1 29 60
M  V30 65 1 30 61
M  V30 66 1 30 62
M  V30 67 1 31 63
M  V30 68 1 31 64
M  V30 69 1 32 65 CFG=3
M  V30 70 1 33 66
M  V30 71 1 33 67
M  V30 72 1 33 68
M  V30 END BOND
M  V30 END CTAB
M  END
>  <Dataset>  (320) 
ChEMBL_Kinases

>  <Ligand_Instance>  (320) 
nan

>  <PDB_ID>  (320) 
nan

>  <Standardized_SMILES>  (320) 
CNc1nc(-c2ccc3c(N)n[nH]c3c2)cc(N2C[C@@H](C(=O)NC3CCCCC3)CC[C@H]2C)n1

>  <Name>  (320) 
nan

>  <Pocket>  (320) 
nan

>  <ATP_Site>  (320) 
nan

>  <Peripheral>  (320) 
nan

>  <Num_H_Atoms_ProtBoundConf>  (320) 
nan

>  <Num_Resolved_Atoms>  (320) 
nan

>  <Num_Not_Resolved_Atoms>  (320) 
nan

$$$$
CHEMBL4783473
     RDKit          3D

  0  0  0  0  0  0  0  0  0  0999 V3000
M  V30 BEGIN CTAB
M  V30 COUNTS 35 37 0 0 0
M  V30 BEGIN ATOM
M  V30 1 O -1.710944 -3.846480 0.534634 0
M  V30 2 C -1.686609 -2.653108 0.915090 0
M  V30 3 N -0.626068 -1.814653 0.521436 0
M  V30 4 C 0.462121 -2.214340 -0.300451 0
M  V30 5 C 0.715678 -3.432442 -0.865092 0
M  V30 6 N 1.858575 -3.382803 -1.572608 0
M  V30 7 N 2.314142 -2.147269 -1.451389 0
M  V30 8 C 1.509197 -1.413236 -0.698023 0
M  V30 9 C 1.732402 -0.019868 -0.377258 0
M  V30 10 O 0.986913 0.697155 0.332804 0
M  V30 11 N 2.854276 0.696494 -0.850315 0
M  V30 12 C 2.933220 2.060502 -0.447908 0
M  V30 13 C 3.578060 2.399896 0.703969 0
M  V30 14 C 3.629741 3.738096 1.055393 0
M  V30 15 C 3.035987 4.674459 0.241600 0
M  V30 16 N 2.388671 4.343285 -0.912817 0
M  V30 17 C 2.349949 3.032001 -1.237121 0
M  V30 18 C -2.798400 -2.230476 1.759536 0
M  V30 19 C -3.778320 -3.148147 2.075821 0
M  V30 20 C -4.875983 -2.818140 2.880595 0
M  V30 21 C -4.995173 -1.537981 3.380773 0
M  V30 22 N -4.029342 -0.657522 3.061063 0
M  V30 23 C -2.973797 -0.969545 2.288937 0
M  V30 24 H -0.680891 -0.838003 0.880139 0
M  V30 25 H 0.140170 -4.322299 -0.795678 0
M  V30 26 H 2.363993 -4.122313 -2.138053 0
M  V30 27 H 3.582357 0.226286 -1.467485 0
M  V30 28 H 4.029381 1.616365 1.308362 0
M  V30 29 H 4.144250 3.983976 1.969539 0
M  V30 30 H 3.079456 5.708783 0.519151 0
M  V30 31 H 1.820977 2.807828 -2.171312 0
M  V30 32 H -3.757588 -4.175550 1.721861 0
M  V30 33 H -5.619931 -3.554726 3.107486 0
M  V30 34 H -5.857803 -1.328293 3.996760 0
M  V30 35 H -2.224504 -0.229388 2.059851 0
M  V30 END ATOM
M  V30 BEGIN BOND
M  V30 1 2 1 2
M  V30 2 1 2 3
M  V30 3 1 3 4
M  V30 4 2 4 5
M  V30 5 1 5 6
M  V30 6 1 6 7
M  V30 7 2 7 8
M  V30 8 1 8 9
M  V30 9 2 9 10
M  V30 10 1 9 11
M  V30 11 1 11 12
M  V30 12 2 12 13
M  V30 13 1 13 14
M  V30 14 2 14 15
M  V30 15 1 15 16
M  V30 16 2 16 17
M  V30 17 1 2 18
M  V30 18 2 18 19
M  V30 19 1 19 20
M  V30 20 2 20 21
M  V30 21 1 21 22
M  V30 22 2 22 23
M  V30 23 1 8 4
M  V30 24 1 17 12
M  V30 25 1 23 18
M  V30 26 1 3 24
M  V30 27 1 5 25
M  V30 28 1 6 26
M  V30 29 1 11 27
M  V30 30 1 13 28
M  V30 31 1 14 29
M  V30 32 1 15 30
M  V30 33 1 17 31
M  V30 34 1 19 32
M  V30 35 1 20 33
M  V30 36 1 21 34
M  V30 37 1 23 35
M  V30 END BOND
M  V30 END CTAB
M  END
>  <Dataset>  (321) 
ChEMBL_Kinases

>  <Ligand_Instance>  (321) 
nan

>  <PDB_ID>  (321) 
nan

>  <Standardized_SMILES>  (321) 
O=C(Nc1c[nH]nc1C(=O)Nc1cccnc1)c1cccnc1

>  <Name>  (321) 
nan

>  <Pocket>  (321) 
nan

>  <ATP_Site>  (321) 
nan

>  <Peripheral>  (321) 
nan

>  <Num_H_Atoms_ProtBoundConf>  (321) 
nan

>  <Num_Resolved_Atoms>  (321) 
nan

>  <Num_Not_Resolved_Atoms>  (321) 
nan

$$$$
CHEMBL4207218
     RDKit          3D

  0  0  0  0  0  0  0  0  0  0999 V3000
M  V30 BEGIN CTAB
M  V30 COUNTS 69 73 0 0 0
M  V30 BEGIN ATOM
M  V30 1 C 1.263580 -3.716009 3.247379 0
M  V30 2 C 2.214585 -4.495328 2.326664 0
M  V30 3 N 2.820841 -3.518260 1.462249 0
M  V30 4 C 3.712516 -2.616160 2.149298 0
M  V30 5 C 3.584379 -1.266450 1.429460 0
M  V30 6 C 3.404840 -1.561594 -0.017710 0
M  V30 7 C 3.874502 -0.457882 -0.926857 0
M  V30 8 C 3.148042 0.817340 -0.682289 0
M  V30 9 C 3.568682 1.782614 0.225016 0
M  V30 10 N 2.889891 2.932824 0.436005 0
M  V30 11 C 1.754906 3.195539 -0.239746 0
M  V30 12 N 0.941155 4.355107 -0.163661 0
M  V30 13 C -0.471118 4.470742 -0.241934 0
M  V30 14 C -1.325863 3.406044 -0.184679 0
M  V30 15 C -2.696708 3.441654 -0.282640 0
M  V30 16 C -3.580403 2.287618 -0.220013 0
M  V30 17 C -4.939970 2.483249 -0.334643 0
M  V30 18 C -5.794824 1.389150 -0.286224 0
M  V30 19 F -7.148321 1.570160 -0.396985 0
M  V30 20 C -5.298450 0.118319 -0.125752 0
M  V30 21 N -5.865765 -1.098738 -0.050645 0
M  V30 22 C -4.888236 -2.029777 0.107877 0
M  V30 23 C -5.094617 -3.496880 0.228578 0
M  V30 24 N -3.683125 -1.456616 0.139541 0
M  V30 25 C -2.354849 -2.006118 0.283494 0
M  V30 26 C -1.804877 -2.544868 -1.009648 0
M  V30 27 C -2.232739 -3.046087 1.358144 0
M  V30 28 C -3.952736 -0.124505 -0.006776 0
M  V30 29 C -3.125998 1.001045 -0.060211 0
M  V30 30 N -3.237768 4.683958 -0.453940 0
M  V30 31 C -2.393248 5.759865 -0.512357 0
M  V30 32 N -1.037905 5.662288 -0.409262 0
M  V30 33 C 1.332751 2.218288 -1.157495 0
M  V30 34 N 2.002150 1.067528 -1.374634 0
M  V30 35 C 4.038145 -2.858977 -0.466619 0
M  V30 36 C 3.441386 -4.056116 0.283529 0
M  V30 37 H 0.364491 -4.326448 3.436808 0
M  V30 38 H 0.971720 -2.750623 2.767274 0
M  V30 39 H 1.781584 -3.446596 4.192520 0
M  V30 40 H 2.938378 -5.062933 2.934749 0
M  V30 41 H 1.641617 -5.253346 1.740980 0
M  V30 42 H 3.519109 -2.543813 3.225339 0
M  V30 43 H 4.776815 -2.917165 2.023738 0
M  V30 44 H 4.480661 -0.687526 1.700536 0
M  V30 45 H 2.631529 -0.815479 1.846939 0
M  V30 46 H 2.297700 -1.698042 -0.198823 0
M  V30 47 H 4.954608 -0.260485 -0.818376 0
M  V30 48 H 3.671430 -0.745782 -1.983108 0
M  V30 49 H 4.473282 1.608982 0.783313 0
M  V30 50 H 1.523759 5.200078 -0.031633 0
M  V30 51 H -0.940898 2.413017 -0.030755 0
M  V30 52 H -5.357117 3.495847 -0.463664 0
M  V30 53 H -5.008928 -3.856185 1.276075 0
M  V30 54 H -4.416234 -4.084838 -0.447246 0
M  V30 55 H -6.117841 -3.760850 -0.111212 0
M  V30 56 H -1.649463 -1.180745 0.595604 0
M  V30 57 H -1.815867 -3.661903 -1.034710 0
M  V30 58 H -2.345818 -2.191056 -1.889968 0
M  V30 59 H -0.726160 -2.270129 -1.124926 0
M  V30 60 H -2.555106 -4.060057 1.062533 0
M  V30 61 H -2.794832 -2.769399 2.263875 0
M  V30 62 H -1.153801 -3.120400 1.631384 0
M  V30 63 H -2.069859 0.791915 0.033127 0
M  V30 64 H -2.850896 6.734385 -0.648799 0
M  V30 65 H 0.468508 2.235965 -1.819823 0
M  V30 66 H 5.133249 -2.772834 -0.274418 0
M  V30 67 H 3.803571 -2.986531 -1.547723 0
M  V30 68 H 2.675130 -4.572119 -0.330022 0
M  V30 69 H 4.239686 -4.783652 0.472218 0
M  V30 END ATOM
M  V30 BEGIN BOND
M  V30 1 1 1 2
M  V30 2 1 2 3
M  V30 3 1 3 4
M  V30 4 1 4 5
M  V30 5 1 5 6
M  V30 6 1 6 7
M  V30 7 1 7 8
M  V30 8 2 8 9
M  V30 9 1 9 10
M  V30 10 2 10 11
M  V30 11 1 11 12
M  V30 12 1 12 13
M  V30 13 2 13 14
M  V30 14 1 14 15
M  V30 15 1 15 16
M  V30 16 2 16 17
M  V30 17 1 17 18
M  V30 18 1 18 19
M  V30 19 2 18 20
M  V30 20 1 20 21
M  V30 21 2 21 22
M  V30 22 1 22 23
M  V30 23 1 22 24
M  V30 24 1 24 25
M  V30 25 1 25 26
M  V30 26 1 25 27
M  V30 27 1 24 28
M  V30 28 2 28 29
M  V30 29 2 15 30
M  V30 30 1 30 31
M  V30 31 2 31 32
M  V30 32 1 11 33
M  V30 33 2 33 34
M  V30 34 1 6 35
M  V30 35 1 35 36
M  V30 36 1 36 3
M  V30 37 1 34 8
M  V30 38 1 32 13
M  V30 39 1 29 16
M  V30 40 1 28 20
M  V30 41 1 1 37
M  V30 42 1 1 38
M  V30 43 1 1 39
M  V30 44 1 2 40
M  V30 45 1 2 41
M  V30 46 1 4 42
M  V30 47 1 4 43
M  V30 48 1 5 44
M  V30 49 1 5 45
M  V30 50 1 6 46
M  V30 51 1 7 47
M  V30 52 1 7 48
M  V30 53 1 9 49
M  V30 54 1 12 50
M  V30 55 1 14 51
M  V30 56 1 17 52
M  V30 57 1 23 53
M  V30 58 1 23 54
M  V30 59 1 23 55
M  V30 60 1 25 56
M  V30 61 1 26 57
M  V30 62 1 26 58
M  V30 63 1 26 59
M  V30 64 1 27 60
M  V30 65 1 27 61
M  V30 66 1 27 62
M  V30 67 1 29 63
M  V30 68 1 31 64
M  V30 69 1 33 65
M  V30 70 1 35 66
M  V30 71 1 35 67
M  V30 72 1 36 68
M  V30 73 1 36 69
M  V30 END BOND
M  V30 END CTAB
M  END
>  <Dataset>  (322) 
ChEMBL_Kinases

>  <Ligand_Instance>  (322) 
nan

>  <PDB_ID>  (322) 
nan

>  <Standardized_SMILES>  (322) 
CCN1CCC(Cc2cnc(Nc3cc(-c4cc(F)c5nc(C)n(C(C)C)c5c4)ncn3)cn2)CC1

>  <Name>  (322) 
nan

>  <Pocket>  (322) 
nan

>  <ATP_Site>  (322) 
nan

>  <Peripheral>  (322) 
nan

>  <Num_H_Atoms_ProtBoundConf>  (322) 
nan

>  <Num_Resolved_Atoms>  (322) 
nan

>  <Num_Not_Resolved_Atoms>  (322) 
nan

$$$$
CHEMBL4783105
     RDKit          3D

  0  0  0  0  0  0  0  0  0  0999 V3000
M  V30 BEGIN CTAB
M  V30 COUNTS 55 58 0 0 0
M  V30 BEGIN ATOM
M  V30 1 C 6.110030 1.742023 7.153125 0
M  V30 2 N 6.439400 1.529230 5.756059 0
M  V30 3 C 7.436608 0.484380 5.643097 0
M  V30 4 C 5.235640 1.041972 5.108263 0
M  V30 5 C 5.463303 0.775702 3.614604 0
M  V30 6 O 4.315423 0.309979 2.987007 0
M  V30 7 C 4.174933 -0.023303 1.663257 0
M  V30 8 C 2.891127 -0.462214 1.329433 0
M  V30 9 C 2.597054 -0.832093 0.037773 0
M  V30 10 C 1.290103 -1.304594 -0.418672 0
M  V30 11 O 1.053212 -1.640854 -1.629216 0
M  V30 12 N 0.157791 -1.440749 0.415325 0
M  V30 13 C -1.070092 -1.911732 -0.134081 0
M  V30 14 C -2.039254 -1.092887 -0.670297 0
M  V30 15 C -3.175353 -1.699104 -1.163973 0
M  V30 16 C -4.168459 -0.932829 -1.707179 0
M  V30 17 C -5.307954 -1.532979 -2.202788 0
M  V30 18 C -6.426641 -0.782533 -2.804703 0
M  V30 19 C -6.843491 0.498034 -2.458093 0
M  V30 20 N -7.884935 0.730687 -3.284408 0
M  V30 21 N -8.112980 -0.286885 -4.074784 0
M  V30 22 C -9.164086 -0.380546 -5.096247 0
M  V30 23 C -7.229912 -1.269293 -3.821971 0
M  V30 24 C -5.425067 -2.911123 -2.140171 0
M  V30 25 C -4.412660 -3.678823 -1.587670 0
M  V30 26 C -3.290354 -3.071486 -1.100920 0
M  V30 27 C -2.295356 -3.846917 -0.555977 0
M  V30 28 N -1.171519 -3.255501 -0.066985 0
M  V30 29 C 3.592978 -0.758341 -0.906816 0
M  V30 30 C 4.872749 -0.320667 -0.573251 0
M  V30 31 N 5.121442 0.032634 0.701789 0
M  V30 32 H 6.973149 1.515343 7.833735 0
M  V30 33 H 5.220070 1.130198 7.455796 0
M  V30 34 H 5.835185 2.802154 7.377547 0
M  V30 35 H 8.166631 0.502370 6.476217 0
M  V30 36 H 8.063052 0.667289 4.723028 0
M  V30 37 H 6.942005 -0.474619 5.506320 0
M  V30 38 H 4.991033 0.097611 5.636421 0
M  V30 39 H 4.399468 1.786875 5.187743 0
M  V30 40 H 5.958564 1.636197 3.139937 0
M  V30 41 H 6.213540 -0.068751 3.572451 0
M  V30 42 H 2.086361 -0.535965 2.028458 0
M  V30 43 H 0.247540 -1.188697 1.435037 0
M  V30 44 H -1.871604 -0.026774 -0.681370 0
M  V30 45 H -4.083381 0.146860 -1.759746 0
M  V30 46 H -6.385596 1.100048 -1.693036 0
M  V30 47 H -9.803478 -1.260085 -4.915456 0
M  V30 48 H -9.788739 0.533150 -5.043690 0
M  V30 49 H -8.675277 -0.387729 -6.095117 0
M  V30 50 H -7.119189 -2.236662 -4.271776 0
M  V30 51 H -6.324028 -3.392941 -2.530561 0
M  V30 52 H -4.487830 -4.763168 -1.530177 0
M  V30 53 H -2.404947 -4.932221 -0.515229 0
M  V30 54 H 3.394540 -1.043235 -1.937844 0
M  V30 55 H 5.664334 -0.257372 -1.302968 0
M  V30 END ATOM
M  V30 BEGIN BOND
M  V30 1 1 1 2
M  V30 2 1 2 3
M  V30 3 1 2 4
M  V30 4 1 4 5
M  V30 5 1 5 6
M  V30 6 1 6 7
M  V30 7 2 7 8
M  V30 8 1 8 9
M  V30 9 1 9 10
M  V30 10 2 10 11
M  V30 11 1 10 12
M  V30 12 1 12 13
M  V30 13 2 13 14
M  V30 14 1 14 15
M  V30 15 2 15 16
M  V30 16 1 16 17
M  V30 17 1 17 18
M  V30 18 1 18 19
M  V30 19 2 19 20
M  V30 20 1 20 21
M  V30 21 1 21 22
M  V30 22 1 21 23
M  V30 23 2 17 24
M  V30 24 1 24 25
M  V30 25 2 25 26
M  V30 26 1 26 27
M  V30 27 2 27 28
M  V30 28 2 9 29
M  V30 29 1 29 30
M  V30 30 2 30 31
M  V30 31 1 31 7
M  V30 32 1 28 13
M  V30 33 1 26 15
M  V30 34 2 23 18
M  V30 35 1 1 32
M  V30 36 1 1 33
M  V30 37 1 1 34
M  V30 38 1 3 35
M  V30 39 1 3 36
M  V30 40 1 3 37
M  V30 41 1 4 38
M  V30 42 1 4 39
M  V30 43 1 5 40
M  V30 44 1 5 41
M  V30 45 1 8 42
M  V30 46 1 12 43
M  V30 47 1 14 44
M  V30 48 1 16 45
M  V30 49 1 19 46
M  V30 50 1 22 47
M  V30 51 1 22 48
M  V30 52 1 22 49
M  V30 53 1 23 50
M  V30 54 1 24 51
M  V30 55 1 25 52
M  V30 56 1 27 53
M  V30 57 1 29 54
M  V30 58 1 30 55
M  V30 END BOND
M  V30 END CTAB
M  END
>  <Dataset>  (323) 
ChEMBL_Kinases

>  <Ligand_Instance>  (323) 
nan

>  <PDB_ID>  (323) 
nan

>  <Standardized_SMILES>  (323) 
CN(C)CCOc1cc(C(=O)Nc2cc3cc(-c4cnn(C)c4)ccc3cn2)ccn1

>  <Name>  (323) 
nan

>  <Pocket>  (323) 
nan

>  <ATP_Site>  (323) 
nan

>  <Peripheral>  (323) 
nan

>  <Num_H_Atoms_ProtBoundConf>  (323) 
nan

>  <Num_Resolved_Atoms>  (323) 
nan

>  <Num_Not_Resolved_Atoms>  (323) 
nan

$$$$
CHEMBL4782831
     RDKit          3D

  0  0  0  0  0  0  0  0  0  0999 V3000
M  V30 BEGIN CTAB
M  V30 COUNTS 58 62 0 0 0
M  V30 BEGIN ATOM
M  V30 1 C 5.792561 0.749359 5.958471 0
M  V30 2 N 5.395433 0.869515 4.567424 0
M  V30 3 C 6.529764 0.457698 3.761612 0
M  V30 4 C 6.215650 0.690160 2.307212 0
M  V30 5 N 4.989217 -0.018316 2.003244 0
M  V30 6 C 4.491295 0.078417 0.673518 0
M  V30 7 C 3.339391 -0.544105 0.243918 0
M  V30 8 C 2.862756 -0.444156 -1.044730 0
M  V30 9 C 1.645722 -1.094795 -1.517761 0
M  V30 10 O 1.247111 -0.973309 -2.690985 0
M  V30 11 N 0.818368 -1.911225 -0.700450 0
M  V30 12 C -0.371353 -2.552237 -1.144071 0
M  V30 13 C -1.491944 -1.775894 -0.970879 0
M  V30 14 C -2.747061 -2.210349 -1.335180 0
M  V30 15 C -3.892775 -1.457204 -1.175121 0
M  V30 16 C -5.156174 -1.893471 -1.541025 0
M  V30 17 C -6.278937 -0.990252 -1.313587 0
M  V30 18 C -7.560654 -1.413266 -1.026839 0
M  V30 19 C -8.598300 -0.534548 -0.817438 0
M  V30 20 C -8.338769 0.831744 -0.899240 0
M  V30 21 N -9.336761 1.839725 -0.700315 0
M  V30 22 N -7.085267 1.229913 -1.179364 0
M  V30 23 C -6.068011 0.369676 -1.384671 0
M  V30 24 C -5.263511 -3.171284 -2.103404 0
M  V30 25 C -4.143258 -3.955968 -2.280445 0
M  V30 26 C -2.908494 -3.470323 -1.897430 0
M  V30 27 C -1.750788 -4.205583 -2.047736 0
M  V30 28 N -0.525994 -3.775056 -1.689494 0
M  V30 29 C 3.577152 0.317482 -1.945785 0
M  V30 30 C 4.736680 0.949274 -1.529738 0
M  V30 31 N 5.128235 0.800106 -0.262484 0
M  V30 32 C 4.366202 -0.761067 3.053808 0
M  V30 33 C 4.243214 0.023800 4.340007 0
M  V30 34 H 5.026083 0.194702 6.570613 0
M  V30 35 H 5.894885 1.768761 6.416488 0
M  V30 36 H 6.736588 0.160684 6.071597 0
M  V30 37 H 6.899517 -0.546166 3.975818 0
M  V30 38 H 7.352028 1.168303 4.043295 0
M  V30 39 H 7.045495 0.409594 1.640353 0
M  V30 40 H 6.070573 1.787444 2.147854 0
M  V30 41 H 2.763774 -1.138279 0.907383 0
M  V30 42 H 1.069859 -2.072945 0.298668 0
M  V30 43 H -1.502050 -0.780466 -0.546313 0
M  V30 44 H -3.786101 -0.482407 -0.742843 0
M  V30 45 H -7.730620 -2.492414 -0.969125 0
M  V30 46 H -9.611427 -0.852962 -0.590887 0
M  V30 47 H -10.031002 2.021675 -1.482578 0
M  V30 48 H -9.328388 2.346320 0.210461 0
M  V30 49 H -5.110285 0.833684 -1.601365 0
M  V30 50 H -6.270446 -3.491553 -2.383223 0
M  V30 51 H -4.242296 -4.933500 -2.712764 0
M  V30 52 H -1.829614 -5.183764 -2.477757 0
M  V30 53 H 3.317711 0.481296 -2.987322 0
M  V30 54 H 5.380063 1.578853 -2.164643 0
M  V30 55 H 3.345004 -1.128348 2.835349 0
M  V30 56 H 4.965257 -1.697809 3.217276 0
M  V30 57 H 3.342582 0.668033 4.339384 0
M  V30 58 H 4.116718 -0.711046 5.160500 0
M  V30 END ATOM
M  V30 BEGIN BOND
M  V30 1 1 1 2
M  V30 2 1 2 3
M  V30 3 1 3 4
M  V30 4 1 4 5
M  V30 5 1 5 6
M  V30 6 2 6 7
M  V30 7 1 7 8
M  V30 8 1 8 9
M  V30 9 2 9 10
M  V30 10 1 9 11
M  V30 11 1 11 12
M  V30 12 2 12 13
M  V30 13 1 13 14
M  V30 14 2 14 15
M  V30 15 1 15 16
M  V30 16 1 16 17
M  V30 17 2 17 18
M  V30 18 1 18 19
M  V30 19 2 19 20
M  V30 20 1 20 21
M  V30 21 1 20 22
M  V30 22 2 22 23
M  V30 23 2 16 24
M  V30 24 1 24 25
M  V30 25 2 25 26
M  V30 26 1 26 27
M  V30 27 2 27 28
M  V30 28 2 8 29
M  V30 29 1 29 30
M  V30 30 2 30 31
M  V30 31 1 5 32
M  V30 32 1 32 33
M  V30 33 1 33 2
M  V30 34 1 31 6
M  V30 35 1 28 12
M  V30 36 1 26 14
M  V30 37 1 23 17
M  V30 38 1 1 34
M  V30 39 1 1 35
M  V30 40 1 1 36
M  V30 41 1 3 37
M  V30 42 1 3 38
M  V30 43 1 4 39
M  V30 44 1 4 40
M  V30 45 1 7 41
M  V30 46 1 11 42
M  V30 47 1 13 43
M  V30 48 1 15 44
M  V30 49 1 18 45
M  V30 50 1 19 46
M  V30 51 1 21 47
M  V30 52 1 21 48
M  V30 53 1 23 49
M  V30 54 1 24 50
M  V30 55 1 25 51
M  V30 56 1 27 52
M  V30 57 1 29 53
M  V30 58 1 30 54
M  V30 59 1 32 55
M  V30 60 1 32 56
M  V30 61 1 33 57
M  V30 62 1 33 58
M  V30 END BOND
M  V30 END CTAB
M  END
>  <Dataset>  (324) 
ChEMBL_Kinases

>  <Ligand_Instance>  (324) 
nan

>  <PDB_ID>  (324) 
nan

>  <Standardized_SMILES>  (324) 
CN1CCN(c2cc(C(=O)Nc3cc4cc(-c5ccc(N)nc5)ccc4cn3)ccn2)CC1

>  <Name>  (324) 
nan

>  <Pocket>  (324) 
nan

>  <ATP_Site>  (324) 
nan

>  <Peripheral>  (324) 
nan

>  <Num_H_Atoms_ProtBoundConf>  (324) 
nan

>  <Num_Resolved_Atoms>  (324) 
nan

>  <Num_Not_Resolved_Atoms>  (324) 
nan

$$$$
CHEMBL4782826
     RDKit          3D

  0  0  0  0  0  0  0  0  0  0999 V3000
M  V30 BEGIN CTAB
M  V30 COUNTS 69 74 0 0 0
M  V30 BEGIN ATOM
M  V30 1 C 2.359756 -2.074424 7.437948 0
M  V30 2 N 2.903672 -1.353549 6.285232 0
M  V30 3 N 3.765622 -0.340917 6.389159 0
M  V30 4 C 4.055456 0.089150 5.146859 0
M  V30 5 C 3.332770 -0.703677 4.241833 0
M  V30 6 C 3.498366 -0.394274 2.831427 0
M  V30 7 C 4.788701 -0.269686 2.304700 0
M  V30 8 C 5.072779 0.028078 0.986583 0
M  V30 9 C 4.010463 0.219739 0.110351 0
M  V30 10 C 4.183024 0.519596 -1.223925 0
M  V30 11 N 3.129372 0.703693 -2.067725 0
M  V30 12 C 1.851396 0.599443 -1.627727 0
M  V30 13 N 0.641801 0.747573 -2.341448 0
M  V30 14 C -0.075440 1.941016 -2.555544 0
M  V30 15 O 0.384643 3.003779 -2.080455 0
M  V30 16 C -1.314689 1.991850 -3.296860 0
M  V30 17 C -1.899905 3.240998 -3.524105 0
M  V30 18 C -3.088265 3.239364 -4.224456 0
M  V30 19 N -3.705499 2.139773 -4.691748 0
M  V30 20 C -3.152663 0.917958 -4.481159 0
M  V30 21 N -3.795471 -0.253744 -4.963019 0
M  V30 22 C -3.394011 -1.623759 -4.823127 0
M  V30 23 C -4.356413 -2.296019 -3.832781 0
M  V30 24 O -5.561425 -1.568462 -3.860889 0
M  V30 25 C -5.917422 -1.269754 -5.189081 0
M  V30 26 C -5.036022 -0.135400 -5.705322 0
M  V30 27 C -1.961431 0.863591 -3.784381 0
M  V30 28 C 1.640420 0.298817 -0.290119 0
M  V30 29 C 2.719678 0.108600 0.579812 0
M  V30 30 C 2.507178 -0.189079 1.900020 0
M  V30 31 C 2.617946 -1.601561 4.991001 0
M  V30 32 C 1.744994 -2.604850 4.407432 0
M  V30 33 N 0.483544 -2.184820 3.930790 0
M  V30 34 C -0.323635 -1.609683 4.987537 0
M  V30 35 C -1.576035 -1.057847 4.345736 0
M  V30 36 O -1.574688 -1.146877 2.961151 0
M  V30 37 C -1.381678 -2.437804 2.480194 0
M  V30 38 C -0.308732 -3.172638 3.262429 0
M  V30 39 H 1.476871 -2.670453 7.128101 0
M  V30 40 H 3.124380 -2.767613 7.829474 0
M  V30 41 H 2.034331 -1.381417 8.240580 0
M  V30 42 H 4.763467 0.931428 5.082785 0
M  V30 43 H 5.642324 -0.408242 2.940189 0
M  V30 44 H 6.076335 0.116857 0.623022 0
M  V30 45 H 5.174397 0.615562 -1.629506 0
M  V30 46 H 0.304031 -0.174709 -2.720409 0
M  V30 47 H -1.430495 4.147139 -3.162396 0
M  V30 48 H -3.565456 4.196882 -4.414622 0
M  V30 49 H -3.521703 -2.179818 -5.774007 0
M  V30 50 H -2.346219 -1.779194 -4.523888 0
M  V30 51 H -4.535802 -3.348414 -4.064354 0
M  V30 52 H -3.974854 -2.222067 -2.787656 0
M  V30 53 H -6.985832 -1.073701 -5.303787 0
M  V30 54 H -5.660435 -2.182390 -5.796574 0
M  V30 55 H -5.501153 0.846291 -5.543320 0
M  V30 56 H -4.832429 -0.334909 -6.763644 0
M  V30 57 H -1.519652 -0.111084 -3.617245 0
M  V30 58 H 0.672107 0.192798 0.161137 0
M  V30 59 H 1.492887 -0.265189 2.249255 0
M  V30 60 H 2.328475 -3.196298 3.644324 0
M  V30 61 H 1.558790 -3.370580 5.217985 0
M  V30 62 H -0.642661 -2.455379 5.664813 0
M  V30 63 H 0.202461 -0.883360 5.611843 0
M  V30 64 H -2.478821 -1.455278 4.833533 0
M  V30 65 H -1.560952 0.046217 4.572169 0
M  V30 66 H -2.311890 -3.032817 2.412086 0
M  V30 67 H -1.008310 -2.336410 1.428509 0
M  V30 68 H -0.879141 -3.725990 4.066081 0
M  V30 69 H 0.245626 -3.907833 2.683526 0
M  V30 END ATOM
M  V30 BEGIN BOND
M  V30 1 1 1 2
M  V30 2 1 2 3
M  V30 3 2 3 4
M  V30 4 1 4 5
M  V30 5 1 5 6
M  V30 6 2 6 7
M  V30 7 1 7 8
M  V30 8 2 8 9
M  V30 9 1 9 10
M  V30 10 2 10 11
M  V30 11 1 11 12
M  V30 12 1 12 13
M  V30 13 1 13 14
M  V30 14 2 14 15
M  V30 15 1 14 16
M  V30 16 2 16 17
M  V30 17 1 17 18
M  V30 18 2 18 19
M  V30 19 1 19 20
M  V30 20 1 20 21
M  V30 21 1 21 22
M  V30 22 1 22 23
M  V30 23 1 23 24
M  V30 24 1 24 25
M  V30 25 1 25 26
M  V30 26 2 20 27
M  V30 27 2 12 28
M  V30 28 1 28 29
M  V30 29 2 29 30
M  V30 30 2 5 31
M  V30 31 1 31 32
M  V30 32 1 32 33
M  V30 33 1 33 34
M  V30 34 1 34 35
M  V30 35 1 35 36
M  V30 36 1 36 37
M  V30 37 1 37 38
M  V30 38 1 31 2
M  V30 39 1 38 33
M  V30 40 1 30 6
M  V30 41 1 29 9
M  V30 42 1 27 16
M  V30 43 1 26 21
M  V30 44 1 1 39
M  V30 45 1 1 40
M  V30 46 1 1 41
M  V30 47 1 4 42
M  V30 48 1 7 43
M  V30 49 1 8 44
M  V30 50 1 10 45
M  V30 51 1 13 46
M  V30 52 1 17 47
M  V30 53 1 18 48
M  V30 54 1 22 49
M  V30 55 1 22 50
M  V30 56 1 23 51
M  V30 57 1 23 52
M  V30 58 1 25 53
M  V30 59 1 25 54
M  V30 60 1 26 55
M  V30 61 1 26 56
M  V30 62 1 27 57
M  V30 63 1 28 58
M  V30 64 1 30 59
M  V30 65 1 32 60
M  V30 66 1 32 61
M  V30 67 1 34 62
M  V30 68 1 34 63
M  V30 69 1 35 64
M  V30 70 1 35 65
M  V30 71 1 37 66
M  V30 72 1 37 67
M  V30 73 1 38 68
M  V30 74 1 38 69
M  V30 END BOND
M  V30 END CTAB
M  END
>  <Dataset>  (325) 
ChEMBL_Kinases

>  <Ligand_Instance>  (325) 
nan

>  <PDB_ID>  (325) 
nan

>  <Standardized_SMILES>  (325) 
Cn1ncc(-c2ccc3cnc(NC(=O)c4ccnc(N5CCOCC5)c4)cc3c2)c1CN1CCOCC1

>  <Name>  (325) 
nan

>  <Pocket>  (325) 
nan

>  <ATP_Site>  (325) 
nan

>  <Peripheral>  (325) 
nan

>  <Num_H_Atoms_ProtBoundConf>  (325) 
nan

>  <Num_Resolved_Atoms>  (325) 
nan

>  <Num_Not_Resolved_Atoms>  (325) 
nan

$$$$
CHEMBL4208028
     RDKit          3D

  0  0  0  0  0  0  0  0  0  0999 V3000
M  V30 BEGIN CTAB
M  V30 COUNTS 47 52 0 0 0
M  V30 BEGIN ATOM
M  V30 1 C -2.119521 -3.453917 -2.786650 0
M  V30 2 O -1.036359 -2.806117 -2.179857 0
M  V30 3 C -0.705553 -3.140710 -0.875518 0
M  V30 4 C -1.366714 -4.077299 -0.108508 0
M  V30 5 C -0.996152 -4.374461 1.189403 0
M  V30 6 C 0.084625 -3.679166 1.692028 0
M  V30 7 C 0.787005 -2.731305 0.976236 0
M  V30 8 C 0.380546 -2.458830 -0.335023 0
M  V30 9 N 1.170373 -1.466326 -0.985700 0
M  V30 10 C 1.940024 -1.642509 -2.078862 0
M  V30 11 N 2.516420 -0.458180 -2.369011 0
M  V30 12 C 2.103521 0.426160 -1.465409 0
M  V30 13 C 2.335578 1.765848 -1.235746 0
M  V30 14 N 1.782971 2.458526 -0.223514 0
M  V30 15 C 0.943805 1.896916 0.665744 0
M  V30 16 C 0.325919 2.614193 1.774561 0
M  V30 17 C -0.535622 2.062677 2.697479 0
M  V30 18 C -1.096957 2.778735 3.730693 0
M  V30 19 N -0.801617 4.086990 3.863789 0
M  V30 20 C 0.032752 4.684911 2.995600 0
M  V30 21 N 0.456622 5.960377 2.944800 0
M  V30 22 C 1.291416 6.125649 1.902294 0
M  V30 23 C 1.370790 4.903481 1.306026 0
M  V30 24 C 0.600530 3.955467 1.948453 0
M  V30 25 C 0.701096 0.556374 0.449889 0
M  V30 26 C 1.249200 -0.176368 -0.572446 0
M  V30 27 C 0.288578 -4.166984 3.087879 0
M  V30 28 N -0.483645 -5.371858 3.171163 0
M  V30 29 C -1.534412 -5.315217 2.188504 0
M  V30 30 H -2.048993 -4.536513 -2.586605 0
M  V30 31 H -3.092031 -3.072852 -2.374592 0
M  V30 32 H -2.123637 -3.315464 -3.897540 0
M  V30 33 H -2.207108 -4.592150 -0.553540 0
M  V30 34 H 1.620628 -2.236331 1.450775 0
M  V30 35 H 2.034958 -2.600813 -2.589773 0
M  V30 36 H 2.999989 2.304838 -1.901937 0
M  V30 37 H -0.783782 1.015944 2.606737 0
M  V30 38 H -1.757882 2.282254 4.409228 0
M  V30 39 H 0.209738 6.747850 3.588998 0
M  V30 40 H 1.808048 7.042534 1.584265 0
M  V30 41 H 1.974208 4.723144 0.432067 0
M  V30 42 H 0.050446 -0.022305 1.081875 0
M  V30 43 H -0.058996 -3.437430 3.850433 0
M  V30 44 H 1.355383 -4.453648 3.239430 0
M  V30 45 H -0.873384 -5.487748 4.116950 0
M  V30 46 H -1.701272 -6.272189 1.670078 0
M  V30 47 H -2.501445 -4.990448 2.626451 0
M  V30 END ATOM
M  V30 BEGIN BOND
M  V30 1 1 1 2
M  V30 2 1 2 3
M  V30 3 2 3 4
M  V30 4 1 4 5
M  V30 5 2 5 6
M  V30 6 1 6 7
M  V30 7 2 7 8
M  V30 8 1 8 9
M  V30 9 1 9 10
M  V30 10 2 10 11
M  V30 11 1 11 12
M  V30 12 2 12 13
M  V30 13 1 13 14
M  V30 14 2 14 15
M  V30 15 1 15 16
M  V30 16 2 16 17
M  V30 17 1 17 18
M  V30 18 2 18 19
M  V30 19 1 19 20
M  V30 20 1 20 21
M  V30 21 1 21 22
M  V30 22 2 22 23
M  V30 23 1 23 24
M  V30 24 1 15 25
M  V30 25 2 25 26
M  V30 26 1 6 27
M  V30 27 1 27 28
M  V30 28 1 28 29
M  V30 29 1 8 3
M  V30 30 1 26 9
M  V30 31 1 29 5
M  V30 32 1 26 12
M  V30 33 1 24 16
M  V30 34 2 24 20
M  V30 35 1 1 30
M  V30 36 1 1 31
M  V30 37 1 1 32
M  V30 38 1 4 33
M  V30 39 1 7 34
M  V30 40 1 10 35
M  V30 41 1 13 36
M  V30 42 1 17 37
M  V30 43 1 18 38
M  V30 44 1 21 39
M  V30 45 1 22 40
M  V30 46 1 23 41
M  V30 47 1 25 42
M  V30 48 1 27 43
M  V30 49 1 27 44
M  V30 50 1 28 45
M  V30 51 1 29 46
M  V30 52 1 29 47
M  V30 END BOND
M  V30 END CTAB
M  END
>  <Dataset>  (326) 
ChEMBL_Kinases

>  <Ligand_Instance>  (326) 
nan

>  <PDB_ID>  (326) 
nan

>  <Standardized_SMILES>  (326) 
COc1cc2c(cc1-n1cnc3cnc(-c4ccnc5[nH]ccc45)cc31)CNC2

>  <Name>  (326) 
nan

>  <Pocket>  (326) 
nan

>  <ATP_Site>  (326) 
nan

>  <Peripheral>  (326) 
nan

>  <Num_H_Atoms_ProtBoundConf>  (326) 
nan

>  <Num_Resolved_Atoms>  (326) 
nan

>  <Num_Not_Resolved_Atoms>  (326) 
nan

$$$$
CHEMBL4782795
     RDKit          3D

  0  0  0  0  0  0  0  0  0  0999 V3000
M  V30 BEGIN CTAB
M  V30 COUNTS 49 54 0 0 0
M  V30 BEGIN ATOM
M  V30 1 C 5.541199 -4.496446 1.505344 0
M  V30 2 O 4.789773 -3.402639 1.084494 0
M  V30 3 C 4.963543 -2.088455 1.493982 0
M  V30 4 C 5.947319 -1.728969 2.401831 0
M  V30 5 C 6.053128 -0.407055 2.755093 0
M  V30 6 C 5.211504 0.575064 2.235322 0
M  V30 7 C 4.237954 0.199781 1.333019 0
M  V30 8 C 3.269121 1.106404 0.690099 0
M  V30 9 N 3.554993 2.311277 0.142020 0
M  V30 10 C 2.567317 3.035474 -0.413118 0
M  V30 11 C 1.235290 2.647797 -0.478163 0
M  V30 12 C 0.901926 1.434013 0.065135 0
M  V30 13 N -0.241191 0.706394 0.207203 0
M  V30 14 C 0.032104 -0.449151 0.839413 0
M  V30 15 C -0.869782 -1.537396 1.209209 0
M  V30 16 N -0.520244 -2.686453 1.852970 0
M  V30 17 N -1.595491 -3.439853 2.021331 0
M  V30 18 C -2.630182 -2.774695 1.486770 0
M  V30 19 C -3.953659 -3.159656 1.422261 0
M  V30 20 C -4.831877 -2.291514 0.816458 0
M  V30 21 C -4.412996 -1.086621 0.294188 0
M  V30 22 C -5.317252 -0.145403 -0.353260 0
M  V30 23 C -4.800040 1.034510 -0.843863 0
M  V30 24 C -5.576406 2.000852 -1.479019 0
M  V30 25 C -6.938561 1.713985 -1.600181 0
M  V30 26 N -7.449961 0.577457 -1.130187 0
M  V30 27 C -6.672052 -0.339068 -0.519693 0
M  V30 28 N -3.117366 -0.733563 0.369263 0
M  V30 29 C -2.218815 -1.566747 0.961506 0
M  V30 30 N 1.355098 -0.421702 1.083195 0
M  V30 31 C 1.927928 0.707907 0.628691 0
M  V30 32 C 4.107614 -1.141168 0.955112 0
M  V30 33 H 4.918087 -5.419688 1.388704 0
M  V30 34 H 6.499102 -4.630400 0.949658 0
M  V30 35 H 5.834717 -4.429710 2.578172 0
M  V30 36 H 6.615475 -2.485134 2.819156 0
M  V30 37 H 6.810313 -0.097404 3.460406 0
M  V30 38 H 5.254131 1.622092 2.480134 0
M  V30 39 H 2.861282 4.005589 -0.841995 0
M  V30 40 H 0.465594 3.238707 -0.924079 0
M  V30 41 H -1.177206 1.011186 -0.127728 0
M  V30 42 H -1.538263 -4.368030 2.497558 0
M  V30 43 H -4.338739 -4.100554 1.818812 0
M  V30 44 H -5.872349 -2.579087 0.758198 0
M  V30 45 H -3.742943 1.320281 -0.781471 0
M  V30 46 H -5.177958 2.916004 -1.860072 0
M  V30 47 H -7.602245 2.434099 -2.090034 0
M  V30 48 H -7.104202 -1.237835 -0.153419 0
M  V30 49 H 3.338167 -1.461928 0.237175 0
M  V30 END ATOM
M  V30 BEGIN BOND
M  V30 1 1 1 2
M  V30 2 1 2 3
M  V30 3 2 3 4
M  V30 4 1 4 5
M  V30 5 2 5 6
M  V30 6 1 6 7
M  V30 7 1 7 8
M  V30 8 2 8 9
M  V30 9 1 9 10
M  V30 10 2 10 11
M  V30 11 1 11 12
M  V30 12 1 12 13
M  V30 13 1 13 14
M  V30 14 1 14 15
M  V30 15 2 15 16
M  V30 16 1 16 17
M  V30 17 1 17 18
M  V30 18 2 18 19
M  V30 19 1 19 20
M  V30 20 2 20 21
M  V30 21 1 21 22
M  V30 22 2 22 23
M  V30 23 1 23 24
M  V30 24 2 24 25
M  V30 25 1 25 26
M  V30 26 2 26 27
M  V30 27 1 21 28
M  V30 28 2 28 29
M  V30 29 2 14 30
M  V30 30 1 30 31
M  V30 31 2 7 32
M  V30 32 1 32 3
M  V30 33 1 31 8
M  V30 34 2 31 12
M  V30 35 1 29 15
M  V30 36 1 29 18
M  V30 37 1 27 22
M  V30 38 1 1 33
M  V30 39 1 1 34
M  V30 40 1 1 35
M  V30 41 1 4 36
M  V30 42 1 5 37
M  V30 43 1 6 38
M  V30 44 1 10 39
M  V30 45 1 11 40
M  V30 46 1 13 41
M  V30 47 1 17 42
M  V30 48 1 19 43
M  V30 49 1 20 44
M  V30 50 1 23 45
M  V30 51 1 24 46
M  V30 52 1 25 47
M  V30 53 1 27 48
M  V30 54 1 32 49
M  V30 END BOND
M  V30 END CTAB
M  END
>  <Dataset>  (327) 
ChEMBL_Kinases

>  <Ligand_Instance>  (327) 
nan

>  <PDB_ID>  (327) 
nan

>  <Standardized_SMILES>  (327) 
COc1cccc(-c2nccc3[nH]c(-c4n[nH]c5ccc(-c6cccnc6)nc45)nc23)c1

>  <Name>  (327) 
nan

>  <Pocket>  (327) 
nan

>  <ATP_Site>  (327) 
nan

>  <Peripheral>  (327) 
nan

>  <Num_H_Atoms_ProtBoundConf>  (327) 
nan

>  <Num_Resolved_Atoms>  (327) 
nan

>  <Num_Not_Resolved_Atoms>  (327) 
nan

$$$$
CHEMBL4782737
     RDKit          3D

  0  0  0  0  0  0  0  0  0  0999 V3000
M  V30 BEGIN CTAB
M  V30 COUNTS 49 54 0 0 0
M  V30 BEGIN ATOM
M  V30 1 C 2.699308 -6.952877 -2.783461 0
M  V30 2 C 1.370949 -7.268807 -3.018522 0
M  V30 3 N 0.357743 -6.374867 -2.881130 0
M  V30 4 C 0.622995 -5.109899 -2.498826 0
M  V30 5 C 1.923246 -4.702425 -2.241331 0
M  V30 6 C 2.260863 -3.337846 -1.822993 0
M  V30 7 C 3.494989 -2.870449 -2.225622 0
M  V30 8 C 3.895505 -1.596672 -1.876761 0
M  V30 9 C 3.042437 -0.815187 -1.126378 0
M  V30 10 N 3.103200 0.429346 -0.624122 0
M  V30 11 N 2.011182 0.729146 0.037120 0
M  V30 12 C 1.127773 -0.309230 0.024583 0
M  V30 13 C -0.176409 -0.310545 0.661141 0
M  V30 14 N -0.626329 0.758522 1.338034 0
M  V30 15 C -1.836945 0.582148 1.854071 0
M  V30 16 C -2.624287 1.427815 2.601060 0
M  V30 17 N -2.284084 2.747002 2.997306 0
M  V30 18 C -3.117956 3.625835 3.800317 0
M  V30 19 C -2.317232 3.872449 5.088183 0
M  V30 20 O -1.241359 4.663689 4.696059 0
M  V30 21 C -0.354447 3.937792 3.934198 0
M  V30 22 C -1.062491 3.456031 2.682907 0
M  V30 23 C -3.835723 0.887220 2.962692 0
M  V30 24 N -4.220063 -0.354546 2.619608 0
M  V30 25 C -3.446109 -1.181714 1.887037 0
M  V30 26 C -2.222289 -0.678891 1.503264 0
M  V30 27 N -1.192672 -1.161461 0.793858 0
M  V30 28 C 1.804815 -1.255814 -0.710570 0
M  V30 29 C 1.446106 -2.516212 -1.074135 0
M  V30 30 C 2.928178 -5.646903 -2.393751 0
M  V30 31 H 3.485681 -7.679803 -2.899281 0
M  V30 32 H 1.147081 -8.280146 -3.325506 0
M  V30 33 H -0.150693 -4.347336 -2.371708 0
M  V30 34 H 4.238013 -3.413863 -2.820453 0
M  V30 35 H 4.855546 -1.180341 -2.167455 0
M  V30 36 H 3.884207 1.112245 -0.713447 0
M  V30 37 H -3.187228 4.652174 3.327802 0
M  V30 38 H -4.097897 3.225037 4.044565 0
M  V30 39 H -2.933881 4.340123 5.855994 0
M  V30 40 H -1.908489 2.887763 5.361529 0
M  V30 41 H 0.106480 3.125062 4.502815 0
M  V30 42 H 0.431599 4.646264 3.599759 0
M  V30 43 H -1.382403 4.416105 2.170713 0
M  V30 44 H -0.398615 2.974321 1.974981 0
M  V30 45 H -4.589907 1.367858 3.537601 0
M  V30 46 H -3.693568 -2.187668 1.577787 0
M  V30 47 H -1.205310 -2.113856 0.392858 0
M  V30 48 H 0.507457 -2.958332 -0.804943 0
M  V30 49 H 3.953934 -5.365708 -2.201847 0
M  V30 END ATOM
M  V30 BEGIN BOND
M  V30 1 2 1 2
M  V30 2 1 2 3
M  V30 3 2 3 4
M  V30 4 1 4 5
M  V30 5 1 5 6
M  V30 6 2 6 7
M  V30 7 1 7 8
M  V30 8 2 8 9
M  V30 9 1 9 10
M  V30 10 1 10 11
M  V30 11 2 11 12
M  V30 12 1 12 13
M  V30 13 2 13 14
M  V30 14 1 14 15
M  V30 15 2 15 16
M  V30 16 1 16 17
M  V30 17 1 17 18
M  V30 18 1 18 19
M  V30 19 1 19 20
M  V30 20 1 20 21
M  V30 21 1 21 22
M  V30 22 1 16 23
M  V30 23 2 23 24
M  V30 24 1 24 25
M  V30 25 2 25 26
M  V30 26 1 26 27
M  V30 27 1 12 28
M  V30 28 2 28 29
M  V30 29 2 5 30
M  V30 30 1 30 1
M  V30 31 1 29 6
M  V30 32 1 28 9
M  V30 33 1 27 13
M  V30 34 1 26 15
M  V30 35 1 22 17
M  V30 36 1 1 31
M  V30 37 1 2 32
M  V30 38 1 4 33
M  V30 39 1 7 34
M  V30 40 1 8 35
M  V30 41 1 10 36
M  V30 42 1 18 37
M  V30 43 1 18 38
M  V30 44 1 19 39
M  V30 45 1 19 40
M  V30 46 1 21 41
M  V30 47 1 21 42
M  V30 48 1 22 43
M  V30 49 1 22 44
M  V30 50 1 23 45
M  V30 51 1 25 46
M  V30 52 1 27 47
M  V30 53 1 29 48
M  V30 54 1 30 49
M  V30 END BOND
M  V30 END CTAB
M  END
>  <Dataset>  (328) 
ChEMBL_Kinases

>  <Ligand_Instance>  (328) 
nan

>  <PDB_ID>  (328) 
nan

>  <Standardized_SMILES>  (328) 
c1cncc(-c2ccc3[nH]nc(-c4nc5c(N6CCOCC6)cncc5[nH]4)c3c2)c1

>  <Name>  (328) 
nan

>  <Pocket>  (328) 
nan

>  <ATP_Site>  (328) 
nan

>  <Peripheral>  (328) 
nan

>  <Num_H_Atoms_ProtBoundConf>  (328) 
nan

>  <Num_Resolved_Atoms>  (328) 
nan

>  <Num_Not_Resolved_Atoms>  (328) 
nan

$$$$
CHEMBL4208198
     RDKit          3D

  0  0  0  0  0  0  0  0  0  0999 V3000
M  V30 BEGIN CTAB
M  V30 COUNTS 70 74 0 0 0
M  V30 BEGIN ATOM
M  V30 1 C 2.548512 -5.023682 1.809109 0
M  V30 2 C 3.652772 -4.077587 2.185661 0
M  V30 3 N 3.923244 -3.035394 1.275777 0
M  V30 4 C 2.961162 -2.017336 1.095987 0
M  V30 5 C 3.046419 -1.597716 -0.386484 0
M  V30 6 N 4.357849 -1.047406 -0.518799 0
M  V30 7 C 4.565003 -0.100472 -1.549454 0
M  V30 8 C 3.658429 1.045031 -1.426524 0
M  V30 9 C 3.798084 2.217558 -0.686325 0
M  V30 10 C 2.815016 3.182927 -0.717414 0
M  V30 11 C 1.647088 3.053184 -1.471416 0
M  V30 12 N 0.798931 4.180624 -1.325021 0
M  V30 13 C -0.572212 3.985154 -1.004990 0
M  V30 14 C -1.079446 2.723324 -0.815771 0
M  V30 15 C -2.389881 2.381518 -0.491287 0
M  V30 16 C -2.677817 0.957310 -0.353548 0
M  V30 17 C -1.957161 0.099728 -1.176874 0
M  V30 18 C -2.086950 -1.288497 -1.155367 0
M  V30 19 F -1.391461 -2.119586 -1.952648 0
M  V30 20 C -2.986534 -1.820438 -0.258871 0
M  V30 21 N -3.318405 -3.103892 -0.005900 0
M  V30 22 C -4.248819 -3.067894 0.978172 0
M  V30 23 C -4.859983 -4.279439 1.543588 0
M  V30 24 N -4.480430 -1.776326 1.319112 0
M  V30 25 C -5.393934 -1.282698 2.330064 0
M  V30 26 C -4.643754 -0.504593 3.399063 0
M  V30 27 C -6.539166 -0.485975 1.769217 0
M  V30 28 C -3.714842 -0.967176 0.572486 0
M  V30 29 C -3.572132 0.401797 0.535563 0
M  V30 30 C -3.256040 3.444528 -0.349538 0
M  V30 31 C -2.766718 4.737302 -0.536078 0
M  V30 32 N -1.470086 4.996092 -0.852374 0
M  V30 33 N 1.547154 1.909631 -2.173718 0
M  V30 34 C 2.480496 0.952072 -2.167260 0
M  V30 35 C 5.280762 -2.164808 -0.547817 0
M  V30 36 C 4.731107 -3.390639 0.161318 0
M  V30 37 H 2.645977 -5.930648 2.438004 0
M  V30 38 H 2.575268 -5.347801 0.753711 0
M  V30 39 H 1.529347 -4.624367 2.080417 0
M  V30 40 H 3.378049 -3.642140 3.188441 0
M  V30 41 H 4.575886 -4.690167 2.358055 0
M  V30 42 H 3.319847 -1.092023 1.640044 0
M  V30 43 H 1.944885 -2.196675 1.431491 0
M  V30 44 H 2.210845 -0.951518 -0.655659 0
M  V30 45 H 2.976297 -2.509110 -1.047089 0
M  V30 46 H 5.601241 0.309937 -1.447071 0
M  V30 47 H 4.517684 -0.503896 -2.586016 0
M  V30 48 H 4.713102 2.259234 -0.126910 0
M  V30 49 H 3.079956 4.026273 -0.086548 0
M  V30 50 H 1.181983 5.144305 -1.448660 0
M  V30 51 H -0.379695 1.924599 -0.922345 0
M  V30 52 H -1.215480 0.406553 -1.933631 0
M  V30 53 H -5.335367 -4.132145 2.527470 0
M  V30 54 H -4.063511 -5.065189 1.636168 0
M  V30 55 H -5.578261 -4.688687 0.792454 0
M  V30 56 H -5.821306 -2.174377 2.839213 0
M  V30 57 H -5.057025 0.503045 3.564092 0
M  V30 58 H -3.593979 -0.343784 3.010661 0
M  V30 59 H -4.499157 -1.079344 4.333112 0
M  V30 60 H -6.840597 -0.877276 0.786475 0
M  V30 61 H -6.372195 0.611848 1.776626 0
M  V30 62 H -7.415077 -0.644003 2.464602 0
M  V30 63 H -4.118041 1.085813 1.164474 0
M  V30 64 H -4.271950 3.177847 -0.096513 0
M  V30 65 H -3.487158 5.538619 -0.413554 0
M  V30 66 H 2.142296 0.139079 -2.821295 0
M  V30 67 H 6.213089 -1.875719 0.002554 0
M  V30 68 H 5.491570 -2.460105 -1.578726 0
M  V30 69 H 5.604647 -3.977247 0.517968 0
M  V30 70 H 4.222344 -4.071479 -0.575149 0
M  V30 END ATOM
M  V30 BEGIN BOND
M  V30 1 1 1 2
M  V30 2 1 2 3
M  V30 3 1 3 4
M  V30 4 1 4 5
M  V30 5 1 5 6
M  V30 6 1 6 7
M  V30 7 1 7 8
M  V30 8 2 8 9
M  V30 9 1 9 10
M  V30 10 2 10 11
M  V30 11 1 11 12
M  V30 12 1 12 13
M  V30 13 2 13 14
M  V30 14 1 14 15
M  V30 15 1 15 16
M  V30 16 2 16 17
M  V30 17 1 17 18
M  V30 18 1 18 19
M  V30 19 2 18 20
M  V30 20 1 20 21
M  V30 21 2 21 22
M  V30 22 1 22 23
M  V30 23 1 22 24
M  V30 24 1 24 25
M  V30 25 1 25 26
M  V30 26 1 25 27
M  V30 27 1 24 28
M  V30 28 2 28 29
M  V30 29 2 15 30
M  V30 30 1 30 31
M  V30 31 2 31 32
M  V30 32 1 11 33
M  V30 33 2 33 34
M  V30 34 1 6 35
M  V30 35 1 35 36
M  V30 36 1 36 3
M  V30 37 1 34 8
M  V30 38 1 32 13
M  V30 39 1 29 16
M  V30 40 1 28 20
M  V30 41 1 1 37
M  V30 42 1 1 38
M  V30 43 1 1 39
M  V30 44 1 2 40
M  V30 45 1 2 41
M  V30 46 1 4 42
M  V30 47 1 4 43
M  V30 48 1 5 44
M  V30 49 1 5 45
M  V30 50 1 7 46
M  V30 51 1 7 47
M  V30 52 1 9 48
M  V30 53 1 10 49
M  V30 54 1 12 50
M  V30 55 1 14 51
M  V30 56 1 17 52
M  V30 57 1 23 53
M  V30 58 1 23 54
M  V30 59 1 23 55
M  V30 60 1 25 56
M  V30 61 1 26 57
M  V30 62 1 26 58
M  V30 63 1 26 59
M  V30 64 1 27 60
M  V30 65 1 27 61
M  V30 66 1 27 62
M  V30 67 1 29 63
M  V30 68 1 30 64
M  V30 69 1 31 65
M  V30 70 1 34 66
M  V30 71 1 35 67
M  V30 72 1 35 68
M  V30 73 1 36 69
M  V30 74 1 36 70
M  V30 END BOND
M  V30 END CTAB
M  END
>  <Dataset>  (329) 
ChEMBL_Kinases

>  <Ligand_Instance>  (329) 
nan

>  <PDB_ID>  (329) 
nan

>  <Standardized_SMILES>  (329) 
CCN1CCN(Cc2ccc(Nc3cc(-c4cc(F)c5nc(C)n(C(C)C)c5c4)ccn3)nc2)CC1

>  <Name>  (329) 
nan

>  <Pocket>  (329) 
nan

>  <ATP_Site>  (329) 
nan

>  <Peripheral>  (329) 
nan

>  <Num_H_Atoms_ProtBoundConf>  (329) 
nan

>  <Num_Resolved_Atoms>  (329) 
nan

>  <Num_Not_Resolved_Atoms>  (329) 
nan

$$$$
CHEMBL4783807
     RDKit          3D

  0  0  0  0  0  0  0  0  0  0999 V3000
M  V30 BEGIN CTAB
M  V30 COUNTS 55 59 0 0 0
M  V30 BEGIN ATOM
M  V30 1 C 4.761240 1.440949 3.352077 0
M  V30 2 C 5.283285 2.234972 2.173581 0
M  V30 3 C 6.389452 3.178337 2.604202 0
M  V30 4 C 5.839219 1.290482 1.140703 0
M  V30 5 C 4.209986 3.067417 1.531770 0
M  V30 6 C 3.091242 2.261733 1.025351 0
M  V30 7 O 3.208555 1.026705 1.209842 0
M  V30 8 N 1.947966 2.780057 0.374379 0
M  V30 9 C 0.834973 2.071320 -0.137827 0
M  V30 10 C -0.167197 2.798836 -0.734365 0
M  V30 11 N -1.264117 2.229825 -1.250504 0
M  V30 12 C -1.475310 0.893724 -1.226977 0
M  V30 13 C -0.501683 0.112490 -0.639907 0
M  V30 14 C -0.631201 -1.359646 -0.557430 0
M  V30 15 C 0.540005 -2.092192 -0.595944 0
M  V30 16 C 0.581401 -3.474214 -0.526482 0
M  V30 17 C -0.624464 -4.162383 -0.411460 0
M  V30 18 N -0.944300 -5.466960 -0.321556 0
M  V30 19 N -2.261856 -5.573269 -0.229235 0
M  V30 20 C -2.826869 -4.352411 -0.256415 0
M  V30 21 C -4.251082 -4.054469 -0.177098 0
M  V30 22 N -4.846486 -2.871744 -0.200737 0
M  V30 23 C -6.193409 -3.010398 -0.103236 0
M  V30 24 C -7.304044 -2.172972 -0.073816 0
M  V30 25 C -8.554447 -2.761375 0.041439 0
M  V30 26 N -8.720039 -4.110006 0.124849 0
M  V30 27 C -7.649089 -4.922211 0.096751 0
M  V30 28 C -6.384357 -4.365943 -0.017733 0
M  V30 29 N -5.191153 -5.011169 -0.062913 0
M  V30 30 C -1.810420 -3.426651 -0.372226 0
M  V30 31 C -1.822817 -2.045388 -0.443618 0
M  V30 32 C 0.615853 0.728871 -0.117770 0
M  V30 33 H 4.574427 0.393035 3.113846 0
M  V30 34 H 3.807180 1.860811 3.726108 0
M  V30 35 H 5.487155 1.533112 4.187252 0
M  V30 36 H 7.221641 3.206185 1.861991 0
M  V30 37 H 6.869069 2.785721 3.547926 0
M  V30 38 H 5.973911 4.190862 2.817435 0
M  V30 39 H 6.942276 1.278398 1.248915 0
M  V30 40 H 5.410803 0.257661 1.238484 0
M  V30 41 H 5.639138 1.663930 0.101756 0
M  V30 42 H 4.699735 3.568565 0.651702 0
M  V30 43 H 3.887298 3.912690 2.193856 0
M  V30 44 H 1.998142 3.808373 0.297581 0
M  V30 45 H -0.195198 3.870761 -0.856502 0
M  V30 46 H -2.368352 0.416649 -1.645842 0
M  V30 47 H 1.548153 -1.668419 -0.684463 0
M  V30 48 H 1.486329 -4.062760 -0.555052 0
M  V30 49 H -0.207590 -6.216717 -0.330350 0
M  V30 50 H -7.127265 -1.122877 -0.141901 0
M  V30 51 H -9.391912 -2.067084 0.060230 0
M  V30 52 H -7.784391 -6.002004 0.163761 0
M  V30 53 H -5.029701 -6.055952 -0.017699 0
M  V30 54 H -2.716598 -1.462336 -0.415481 0
M  V30 55 H 1.341996 0.088143 0.325999 0
M  V30 END ATOM
M  V30 BEGIN BOND
M  V30 1 1 1 2
M  V30 2 1 2 3
M  V30 3 1 2 4
M  V30 4 1 2 5
M  V30 5 1 5 6
M  V30 6 2 6 7
M  V30 7 1 6 8
M  V30 8 1 8 9
M  V30 9 2 9 10
M  V30 10 1 10 11
M  V30 11 2 11 12
M  V30 12 1 12 13
M  V30 13 1 13 14
M  V30 14 2 14 15
M  V30 15 1 15 16
M  V30 16 2 16 17
M  V30 17 1 17 18
M  V30 18 1 18 19
M  V30 19 2 19 20
M  V30 20 1 20 21
M  V30 21 2 21 22
M  V30 22 1 22 23
M  V30 23 2 23 24
M  V30 24 1 24 25
M  V30 25 2 25 26
M  V30 26 1 26 27
M  V30 27 2 27 28
M  V30 28 1 28 29
M  V30 29 1 20 30
M  V30 30 2 30 31
M  V30 31 2 13 32
M  V30 32 1 32 9
M  V30 33 1 31 14
M  V30 34 1 30 17
M  V30 35 1 29 21
M  V30 36 1 28 23
M  V30 37 1 1 33
M  V30 38 1 1 34
M  V30 39 1 1 35
M  V30 40 1 3 36
M  V30 41 1 3 37
M  V30 42 1 3 38
M  V30 43 1 4 39
M  V30 44 1 4 40
M  V30 45 1 4 41
M  V30 46 1 5 42
M  V30 47 1 5 43
M  V30 48 1 8 44
M  V30 49 1 10 45
M  V30 50 1 12 46
M  V30 51 1 15 47
M  V30 52 1 16 48
M  V30 53 1 18 49
M  V30 54 1 24 50
M  V30 55 1 25 51
M  V30 56 1 27 52
M  V30 57 1 29 53
M  V30 58 1 31 54
M  V30 59 1 32 55
M  V30 END BOND
M  V30 END CTAB
M  END
>  <Dataset>  (330) 
ChEMBL_Kinases

>  <Ligand_Instance>  (330) 
nan

>  <PDB_ID>  (330) 
nan

>  <Standardized_SMILES>  (330) 
CC(C)(C)CC(=O)Nc1cncc(-c2ccc3[nH]nc(-c4nc5ccncc5[nH]4)c3c2)c1

>  <Name>  (330) 
nan

>  <Pocket>  (330) 
nan

>  <ATP_Site>  (330) 
nan

>  <Peripheral>  (330) 
nan

>  <Num_H_Atoms_ProtBoundConf>  (330) 
nan

>  <Num_Resolved_Atoms>  (330) 
nan

>  <Num_Not_Resolved_Atoms>  (330) 
nan

$$$$
CHEMBL4786124
     RDKit          3D

  0  0  0  0  0  0  0  0  0  0999 V3000
M  V30 BEGIN CTAB
M  V30 COUNTS 56 61 0 0 0
M  V30 BEGIN ATOM
M  V30 1 C 2.547390 -1.314071 2.929309 0
M  V30 2 N 3.801666 -1.701815 2.336446 0
M  V30 3 C 4.006482 -3.111821 2.600599 0
M  V30 4 C 3.837979 -1.515798 0.903178 0
M  V30 5 C 3.616556 -0.088962 0.529191 0
M  V30 6 C 4.815168 0.633968 0.504435 0
M  V30 7 N 4.710907 1.952296 0.172442 0
M  V30 8 C 3.498904 2.465226 -0.103574 0
M  V30 9 C 2.299600 1.790051 -0.090748 0
M  V30 10 C 1.040217 2.450857 -0.403102 0
M  V30 11 C 0.993244 3.788100 -0.714447 0
M  V30 12 C -0.181931 4.456778 -1.011296 0
M  V30 13 C -1.376999 3.728660 -0.991560 0
M  V30 14 N -2.630027 4.111311 -1.233340 0
M  V30 15 N -3.361867 3.024173 -1.075727 0
M  V30 16 C -2.614260 1.977565 -0.744936 0
M  V30 17 C -3.132357 0.639107 -0.509224 0
M  V30 18 N -2.535314 -0.516717 -0.180675 0
M  V30 19 C -3.468494 -1.498877 -0.082017 0
M  V30 20 C -3.498471 -2.844952 0.207381 0
M  V30 21 C -2.237514 -3.508104 0.505727 0
M  V30 22 C -1.190423 -3.136352 1.321213 0
M  V30 23 C -0.108579 -3.976803 1.413130 0
M  V30 24 C 0.002615 -5.171112 0.743122 0
M  V30 25 C -1.037888 -5.542121 -0.068416 0
M  V30 26 F -0.899986 -6.724096 -0.715943 0
M  V30 27 C -2.128493 -4.725192 -0.179488 0
M  V30 28 N -4.649514 -3.552860 0.216873 0
M  V30 29 C -5.858757 -3.031213 -0.048755 0
M  V30 30 C -5.873543 -1.693785 -0.342009 0
M  V30 31 C -4.706190 -0.943697 -0.358717 0
M  V30 32 N -4.465060 0.363511 -0.615418 0
M  V30 33 C -1.301372 2.389649 -0.676549 0
M  V30 34 N -0.127651 1.762289 -0.389111 0
M  V30 35 C 2.392411 0.475018 0.239009 0
M  V30 36 H 1.692976 -1.491364 2.249194 0
M  V30 37 H 2.355880 -2.002644 3.799173 0
M  V30 38 H 2.547731 -0.261877 3.282579 0
M  V30 39 H 4.314613 -3.195149 3.670024 0
M  V30 40 H 3.030135 -3.633118 2.540289 0
M  V30 41 H 4.782897 -3.530609 1.922372 0
M  V30 42 H 4.711547 -1.969582 0.442986 0
M  V30 43 H 2.955196 -2.094718 0.513798 0
M  V30 44 H 5.788059 0.219462 0.726571 0
M  V30 45 H 3.571240 3.512792 -0.347903 0
M  V30 46 H 1.841166 4.424091 -0.755787 0
M  V30 47 H -0.239705 5.507479 -1.258360 0
M  V30 48 H -2.941083 5.075647 -1.491577 0
M  V30 49 H -1.365520 -2.194819 1.800112 0
M  V30 50 H 0.684725 -3.646178 2.063824 0
M  V30 51 H 0.893015 -5.738976 0.894632 0
M  V30 52 H -2.888121 -5.141031 -0.860822 0
M  V30 53 H -6.716991 -3.673185 -0.016738 0
M  V30 54 H -6.827737 -1.232946 -0.562340 0
M  V30 55 H -5.270891 1.001662 -0.856217 0
M  V30 56 H 1.525919 -0.151013 0.280033 0
M  V30 END ATOM
M  V30 BEGIN BOND
M  V30 1 1 1 2
M  V30 2 1 2 3
M  V30 3 1 2 4
M  V30 4 1 4 5
M  V30 5 2 5 6
M  V30 6 1 6 7
M  V30 7 2 7 8
M  V30 8 1 8 9
M  V30 9 1 9 10
M  V30 10 2 10 11
M  V30 11 1 11 12
M  V30 12 2 12 13
M  V30 13 1 13 14
M  V30 14 1 14 15
M  V30 15 2 15 16
M  V30 16 1 16 17
M  V30 17 2 17 18
M  V30 18 1 18 19
M  V30 19 2 19 20
M  V30 20 1 20 21
M  V30 21 2 21 22
M  V30 22 1 22 23
M  V30 23 2 23 24
M  V30 24 1 24 25
M  V30 25 1 25 26
M  V30 26 2 25 27
M  V30 27 1 20 28
M  V30 28 2 28 29
M  V30 29 1 29 30
M  V30 30 2 30 31
M  V30 31 1 31 32
M  V30 32 1 16 33
M  V30 33 2 33 34
M  V30 34 2 9 35
M  V30 35 1 35 5
M  V30 36 1 34 10
M  V30 37 1 33 13
M  V30 38 1 32 17
M  V30 39 1 31 19
M  V30 40 1 27 21
M  V30 41 1 1 36
M  V30 42 1 1 37
M  V30 43 1 1 38
M  V30 44 1 3 39
M  V30 45 1 3 40
M  V30 46 1 3 41
M  V30 47 1 4 42
M  V30 48 1 4 43
M  V30 49 1 6 44
M  V30 50 1 8 45
M  V30 51 1 11 46
M  V30 52 1 12 47
M  V30 53 1 14 48
M  V30 54 1 22 49
M  V30 55 1 23 50
M  V30 56 1 24 51
M  V30 57 1 27 52
M  V30 58 1 29 53
M  V30 59 1 30 54
M  V30 60 1 32 55
M  V30 61 1 35 56
M  V30 END BOND
M  V30 END CTAB
M  END
>  <Dataset>  (331) 
ChEMBL_Kinases

>  <Ligand_Instance>  (331) 
nan

>  <PDB_ID>  (331) 
nan

>  <Standardized_SMILES>  (331) 
CN(C)Cc1cncc(-c2ccc3[nH]nc(-c4nc5c(-c6cccc(F)c6)nccc5[nH]4)c3n2)c1

>  <Name>  (331) 
nan

>  <Pocket>  (331) 
nan

>  <ATP_Site>  (331) 
nan

>  <Peripheral>  (331) 
nan

>  <Num_H_Atoms_ProtBoundConf>  (331) 
nan

>  <Num_Resolved_Atoms>  (331) 
nan

>  <Num_Not_Resolved_Atoms>  (331) 
nan

$$$$
CHEMBL4786094
     RDKit          3D

  0  0  0  0  0  0  0  0  0  0999 V3000
M  V30 BEGIN CTAB
M  V30 COUNTS 49 53 0 0 0
M  V30 BEGIN ATOM
M  V30 1 C 0.912352 -3.343247 2.095126 0
M  V30 2 C 1.136894 -4.529876 1.208886 0
M  V30 3 N 2.497147 -4.831993 0.896060 0
M  V30 4 C 3.158422 -3.926015 0.044388 0
M  V30 5 C 3.336395 -2.565265 0.551078 0
M  V30 6 C 4.504847 -2.479090 1.323671 0
M  V30 7 N 4.979990 -1.365195 1.923238 0
M  V30 8 C 4.266517 -0.206201 1.772525 0
M  V30 9 C 3.110831 -0.235920 1.023057 0
M  V30 10 C 2.287239 0.948310 0.808588 0
M  V30 11 C 2.932257 2.167655 0.753792 0
M  V30 12 C 2.207942 3.328458 0.554540 0
M  V30 13 C 0.847185 3.201207 0.418092 0
M  V30 14 N -0.125265 4.092973 0.217666 0
M  V30 15 N -1.300027 3.525281 0.146277 0
M  V30 16 C -1.183646 2.209645 0.295809 0
M  V30 17 C -2.286877 1.268432 0.271818 0
M  V30 18 C -2.467938 -0.082210 0.390622 0
M  V30 19 C -3.783356 -0.473273 0.284611 0
M  V30 20 C -4.390617 -1.709819 0.344483 0
M  V30 21 C -5.761346 -1.757611 0.197094 0
M  V30 22 C -6.478138 -0.596294 -0.002007 0
M  V30 23 C -5.838284 0.633592 -0.057341 0
M  V30 24 C -4.460225 0.703875 0.088587 0
M  V30 25 N -3.560089 1.727764 0.082860 0
M  V30 26 C 0.157304 2.007461 0.465654 0
M  V30 27 C 0.918050 0.883926 0.664960 0
M  V30 28 C 2.643645 -1.382083 0.419601 0
M  V30 29 H 1.823343 -3.023704 2.596600 0
M  V30 30 H 0.196403 -3.690743 2.911330 0
M  V30 31 H 0.329031 -2.528774 1.607514 0
M  V30 32 H 0.617232 -4.310117 0.219815 0
M  V30 33 H 0.646603 -5.448536 1.638667 0
M  V30 34 H 3.050166 -5.179533 1.699804 0
M  V30 35 H 4.136494 -4.357486 -0.336517 0
M  V30 36 H 2.570833 -3.845833 -0.931740 0
M  V30 37 H 5.206084 -3.298451 1.556385 0
M  V30 38 H 4.535156 0.747689 2.196581 0
M  V30 39 H 4.003848 2.248154 0.862750 0
M  V30 40 H 2.694496 4.297725 0.506138 0
M  V30 41 H -0.049137 5.129748 0.117887 0
M  V30 42 H -1.686987 -0.774028 0.549075 0
M  V30 43 H -3.788146 -2.586880 0.501561 0
M  V30 44 H -6.270927 -2.709263 0.236982 0
M  V30 45 H -7.570276 -0.613169 -0.121468 0
M  V30 46 H -6.397057 1.546223 -0.213058 0
M  V30 47 H -3.931348 2.688790 -0.058496 0
M  V30 48 H 0.453592 -0.074179 0.710789 0
M  V30 49 H 1.762289 -1.539572 -0.188734 0
M  V30 END ATOM
M  V30 BEGIN BOND
M  V30 1 1 1 2
M  V30 2 1 2 3
M  V30 3 1 3 4
M  V30 4 1 4 5
M  V30 5 2 5 6
M  V30 6 1 6 7
M  V30 7 2 7 8
M  V30 8 1 8 9
M  V30 9 1 9 10
M  V30 10 2 10 11
M  V30 11 1 11 12
M  V30 12 2 12 13
M  V30 13 1 13 14
M  V30 14 1 14 15
M  V30 15 2 15 16
M  V30 16 1 16 17
M  V30 17 2 17 18
M  V30 18 1 18 19
M  V30 19 2 19 20
M  V30 20 1 20 21
M  V30 21 2 21 22
M  V30 22 1 22 23
M  V30 23 2 23 24
M  V30 24 1 24 25
M  V30 25 1 16 26
M  V30 26 2 26 27
M  V30 27 2 9 28
M  V30 28 1 28 5
M  V30 29 1 27 10
M  V30 30 1 26 13
M  V30 31 1 25 17
M  V30 32 1 24 19
M  V30 33 1 1 29
M  V30 34 1 1 30
M  V30 35 1 1 31
M  V30 36 1 2 32
M  V30 37 1 2 33
M  V30 38 1 3 34
M  V30 39 1 4 35
M  V30 40 1 4 36
M  V30 41 1 6 37
M  V30 42 1 8 38
M  V30 43 1 11 39
M  V30 44 1 12 40
M  V30 45 1 14 41
M  V30 46 1 18 42
M  V30 47 1 20 43
M  V30 48 1 21 44
M  V30 49 1 22 45
M  V30 50 1 23 46
M  V30 51 1 25 47
M  V30 52 1 27 48
M  V30 53 1 28 49
M  V30 END BOND
M  V30 END CTAB
M  END
>  <Dataset>  (332) 
ChEMBL_Kinases

>  <Ligand_Instance>  (332) 
nan

>  <PDB_ID>  (332) 
nan

>  <Standardized_SMILES>  (332) 
CCNCc1cncc(-c2ccc3[nH]nc(-c4cc5ccccc5[nH]4)c3c2)c1

>  <Name>  (332) 
nan

>  <Pocket>  (332) 
nan

>  <ATP_Site>  (332) 
nan

>  <Peripheral>  (332) 
nan

>  <Num_H_Atoms_ProtBoundConf>  (332) 
nan

>  <Num_Resolved_Atoms>  (332) 
nan

>  <Num_Not_Resolved_Atoms>  (332) 
nan

$$$$
CHEMBL4171224
     RDKit          3D

  0  0  0  0  0  0  0  0  0  0999 V3000
M  V30 BEGIN CTAB
M  V30 COUNTS 69 73 0 0 0
M  V30 BEGIN ATOM
M  V30 1 C 3.514070 -2.854177 -0.669013 0
M  V30 2 C 3.937932 -2.723180 0.791730 0
M  V30 3 C 3.048584 -3.498995 1.702080 0 CFG=2
M  V30 4 C 3.149750 -4.919685 1.272477 0
M  V30 5 O 4.027773 -5.708936 1.760315 0
M  V30 6 N 2.289245 -5.482595 0.305943 0
M  V30 7 C 2.580103 -6.702075 -0.445101 0
M  V30 8 C 1.052718 -4.814197 0.046509 0
M  V30 9 C 0.123629 -5.250599 -0.866702 0
M  V30 10 N -1.015455 -4.561554 -1.050013 0
M  V30 11 C -1.274759 -3.433794 -0.349168 0
M  V30 12 N -2.458974 -2.635435 -0.478170 0
M  V30 13 C -3.741991 -3.011032 -0.628944 0
M  V30 14 C -4.545274 -1.873467 -0.710964 0
M  V30 15 C -3.701616 -0.786637 -0.604266 0
M  V30 16 C -3.909549 0.598380 -0.615680 0
M  V30 17 C -2.870965 1.509849 -0.488017 0
M  V30 18 C -3.176463 2.934374 -0.509654 0
M  V30 19 O -4.390734 3.227161 -0.651087 0
M  V30 20 N -2.149416 3.906551 -0.377238 0
M  V30 21 C -2.478465 5.310116 -0.401718 0
M  V30 22 C -3.142991 5.703800 -1.713979 0
M  V30 23 C -2.187630 5.405422 -2.850102 0
M  V30 24 C -3.473645 7.175445 -1.736309 0
M  V30 25 C -1.610846 0.968543 -0.348171 0
M  V30 26 C -1.371720 -0.390086 -0.333029 0
M  V30 27 C -2.424036 -1.272908 -0.461936 0
M  V30 28 N -0.357276 -3.018486 0.540656 0
M  V30 29 C 0.819649 -3.674085 0.773145 0
M  V30 30 N 1.686141 -3.077385 1.769965 0
M  V30 31 C 1.126939 -2.155209 2.703470 0
M  V30 32 C 1.323436 -2.553734 4.145167 0
M  V30 33 C 2.388763 -1.643895 4.695533 0
M  V30 34 C 2.420837 -0.458069 3.792189 0
M  V30 35 C 1.581884 -0.735706 2.585041 0
M  V30 36 H 2.508098 -2.471375 -0.842080 0
M  V30 37 H 3.584091 -3.908492 -1.010211 0
M  V30 38 H 4.233403 -2.295164 -1.327686 0
M  V30 39 H 4.979343 -3.168173 0.803256 0
M  V30 40 H 4.058314 -1.664482 0.998021 0
M  V30 41 H 3.455633 -3.496292 2.742099 0
M  V30 42 H 2.295247 -6.619372 -1.515897 0
M  V30 43 H 3.664788 -6.938487 -0.428443 0
M  V30 44 H 2.080842 -7.582354 0.006254 0
M  V30 45 H 0.314913 -6.138403 -1.426255 0
M  V30 46 H -4.070571 -4.047520 -0.676010 0
M  V30 47 H -5.633577 -1.841071 -0.835519 0
M  V30 48 H -4.961617 0.899273 -0.734158 0
M  V30 49 H -1.145159 3.650249 -0.260160 0
M  V30 50 H -3.188382 5.580819 0.412727 0
M  V30 51 H -1.579026 5.953701 -0.320861 0
M  V30 52 H -4.075021 5.166345 -1.909094 0
M  V30 53 H -1.912512 6.331343 -3.408749 0
M  V30 54 H -2.619140 4.663927 -3.553565 0
M  V30 55 H -1.238433 4.990446 -2.461064 0
M  V30 56 H -2.550948 7.758350 -1.884394 0
M  V30 57 H -4.110607 7.332019 -2.644369 0
M  V30 58 H -3.995467 7.520249 -0.829044 0
M  V30 59 H -0.778577 1.647896 -0.246444 0
M  V30 60 H -0.343595 -0.746091 -0.218130 0
M  V30 61 H 0.001819 -2.135468 2.576793 0
M  V30 62 H 1.626051 -3.583071 4.313155 0
M  V30 63 H 0.418711 -2.377586 4.775757 0
M  V30 64 H 3.381570 -2.175375 4.742389 0
M  V30 65 H 2.193567 -1.354996 5.750907 0
M  V30 66 H 1.973955 0.401182 4.374041 0
M  V30 67 H 3.454796 -0.150858 3.513607 0
M  V30 68 H 0.708546 -0.014658 2.604012 0
M  V30 69 H 2.088135 -0.496005 1.628483 0
M  V30 END ATOM
M  V30 BEGIN BOND
M  V30 1 1 1 2
M  V30 2 1 2 3
M  V30 3 1 3 4
M  V30 4 2 4 5
M  V30 5 1 4 6
M  V30 6 1 6 7
M  V30 7 1 6 8
M  V30 8 2 8 9
M  V30 9 1 9 10
M  V30 10 2 10 11
M  V30 11 1 11 12
M  V30 12 1 12 13
M  V30 13 2 13 14
M  V30 14 1 14 15
M  V30 15 2 15 16
M  V30 16 1 16 17
M  V30 17 1 17 18
M  V30 18 2 18 19
M  V30 19 1 18 20
M  V30 20 1 20 21
M  V30 21 1 21 22
M  V30 22 1 22 23
M  V30 23 1 22 24
M  V30 24 2 17 25
M  V30 25 1 25 26
M  V30 26 2 26 27
M  V30 27 1 11 28
M  V30 28 2 28 29
M  V30 29 1 29 30
M  V30 30 1 30 31
M  V30 31 1 31 32
M  V30 32 1 32 33
M  V30 33 1 33 34
M  V30 34 1 34 35
M  V30 35 1 30 3
M  V30 36 1 35 31
M  V30 37 1 29 8
M  V30 38 1 27 12
M  V30 39 1 27 15
M  V30 40 1 1 36
M  V30 41 1 1 37
M  V30 42 1 1 38
M  V30 43 1 2 39
M  V30 44 1 2 40
M  V30 45 1 3 41 CFG=1
M  V30 46 1 7 42
M  V30 47 1 7 43
M  V30 48 1 7 44
M  V30 49 1 9 45
M  V30 50 1 13 46
M  V30 51 1 14 47
M  V30 52 1 16 48
M  V30 53 1 20 49
M  V30 54 1 21 50
M  V30 55 1 21 51
M  V30 56 1 22 52
M  V30 57 1 23 53
M  V30 58 1 23 54
M  V30 59 1 23 55
M  V30 60 1 24 56
M  V30 61 1 24 57
M  V30 62 1 24 58
M  V30 63 1 25 59
M  V30 64 1 26 60
M  V30 65 1 31 61
M  V30 66 1 32 62
M  V30 67 1 32 63
M  V30 68 1 33 64
M  V30 69 1 33 65
M  V30 70 1 34 66
M  V30 71 1 34 67
M  V30 72 1 35 68
M  V30 73 1 35 69
M  V30 END BOND
M  V30 END CTAB
M  END
>  <Dataset>  (333) 
ChEMBL_Kinases

>  <Ligand_Instance>  (333) 
nan

>  <PDB_ID>  (333) 
nan

>  <Standardized_SMILES>  (333) 
CC[C@@H]1C(=O)N(C)c2cnc(-n3ccc4cc(C(=O)NCC(C)C)ccc43)nc2N1C1CCCC1

>  <Name>  (333) 
nan

>  <Pocket>  (333) 
nan

>  <ATP_Site>  (333) 
nan

>  <Peripheral>  (333) 
nan

>  <Num_H_Atoms_ProtBoundConf>  (333) 
nan

>  <Num_Resolved_Atoms>  (333) 
nan

>  <Num_Not_Resolved_Atoms>  (333) 
nan

$$$$
CHEMBL4171770
     RDKit          3D

  0  0  0  0  0  0  0  0  0  0999 V3000
M  V30 BEGIN CTAB
M  V30 COUNTS 63 67 0 0 0
M  V30 BEGIN ATOM
M  V30 1 C 4.802081 -2.571720 6.385387 0
M  V30 2 C 5.497939 -1.663272 5.367704 0
M  V30 3 N 4.499120 -1.267209 4.397083 0
M  V30 4 C 4.858146 -0.418562 3.328609 0
M  V30 5 O 6.072239 -0.069837 3.321125 0
M  V30 6 C 3.920477 0.030153 2.307430 0
M  V30 7 C 2.584018 -0.310542 2.254016 0
M  V30 8 C 1.773275 0.164726 1.246159 0
M  V30 9 C 2.238561 0.988630 0.255911 0
M  V30 10 C 3.573573 1.342593 0.289765 0
M  V30 11 C 3.737164 2.161385 -0.815242 0
M  V30 12 C 2.518776 2.271184 -1.465277 0
M  V30 13 N 1.598163 1.531494 -0.779718 0
M  V30 14 C 0.227213 1.403968 -1.152019 0
M  V30 15 N -0.343757 2.382051 -1.895073 0
M  V30 16 C -1.652621 2.304104 -2.275686 0
M  V30 17 C -2.379098 1.198878 -1.881489 0
M  V30 18 C -1.794922 0.181480 -1.111357 0
M  V30 19 N -0.477943 0.324138 -0.765201 0
M  V30 20 N -2.572009 -0.966480 -0.690226 0
M  V30 21 C -2.243530 -1.532088 0.579396 0
M  V30 22 C -1.795600 -2.952030 0.586533 0
M  V30 23 C -3.028372 -3.801865 0.794732 0
M  V30 24 C -4.060731 -2.902384 1.427859 0
M  V30 25 C -3.518804 -1.491652 1.413638 0
M  V30 26 C -3.585159 -1.364447 -1.609554 0 CFG=2
M  V30 27 C -3.018399 -1.668650 -2.970684 0
M  V30 28 C -2.007925 -2.772294 -2.999059 0
M  V30 29 C -4.448186 -0.134626 -1.816253 0
M  V30 30 O -5.705645 0.045446 -1.672674 0
M  V30 31 N -3.745247 1.051894 -2.251913 0
M  V30 32 C -4.333985 2.134330 -3.045726 0
M  V30 33 C 4.394093 0.860419 1.311456 0
M  V30 34 H 3.839087 -2.130023 6.716704 0
M  V30 35 H 4.602375 -3.553355 5.942890 0
M  V30 36 H 5.442748 -2.649745 7.296493 0
M  V30 37 H 5.982809 -0.805945 5.876447 0
M  V30 38 H 6.299837 -2.292970 4.932650 0
M  V30 39 H 3.496012 -1.589235 4.451761 0
M  V30 40 H 2.199967 -0.949314 3.012319 0
M  V30 41 H 0.750237 -0.140385 1.268671 0
M  V30 42 H 4.679449 2.620052 -1.090063 0
M  V30 43 H 2.330206 2.848905 -2.367950 0
M  V30 44 H -2.085659 3.080714 -2.859089 0
M  V30 45 H -1.506491 -0.944863 1.128617 0
M  V30 46 H -1.251173 -3.246931 -0.296569 0
M  V30 47 H -1.092015 -3.148440 1.452570 0
M  V30 48 H -3.391523 -4.201301 -0.172673 0
M  V30 49 H -2.800637 -4.618603 1.515356 0
M  V30 50 H -4.255997 -3.175797 2.489049 0
M  V30 51 H -5.031096 -2.972094 0.901988 0
M  V30 52 H -4.276205 -0.812474 0.972136 0
M  V30 53 H -3.323270 -1.124879 2.439841 0
M  V30 54 H -4.180361 -2.185071 -1.196442 0
M  V30 55 H -2.600426 -0.724165 -3.422706 0
M  V30 56 H -3.832701 -1.983286 -3.687854 0
M  V30 57 H -2.307213 -3.640227 -2.409007 0
M  V30 58 H -1.772874 -3.115830 -4.018547 0
M  V30 59 H -1.046707 -2.315388 -2.622125 0
M  V30 60 H -5.355446 1.805410 -3.359589 0
M  V30 61 H -4.466736 2.977173 -2.330128 0
M  V30 62 H -3.708893 2.401033 -3.906379 0
M  V30 63 H 5.424325 1.165247 1.292269 0
M  V30 END ATOM
M  V30 BEGIN BOND
M  V30 1 1 1 2
M  V30 2 1 2 3
M  V30 3 1 3 4
M  V30 4 2 4 5
M  V30 5 1 4 6
M  V30 6 2 6 7
M  V30 7 1 7 8
M  V30 8 2 8 9
M  V30 9 1 9 10
M  V30 10 1 10 11
M  V30 11 2 11 12
M  V30 12 1 12 13
M  V30 13 1 13 14
M  V30 14 2 14 15
M  V30 15 1 15 16
M  V30 16 2 16 17
M  V30 17 1 17 18
M  V30 18 2 18 19
M  V30 19 1 18 20
M  V30 20 1 20 21
M  V30 21 1 21 22
M  V30 22 1 22 23
M  V30 23 1 23 24
M  V30 24 1 24 25
M  V30 25 1 20 26
M  V30 26 1 26 27
M  V30 27 1 27 28
M  V30 28 1 26 29
M  V30 29 2 29 30
M  V30 30 1 29 31
M  V30 31 1 31 32
M  V30 32 2 10 33
M  V30 33 1 33 6
M  V30 34 1 13 9
M  V30 35 1 19 14
M  V30 36 1 25 21
M  V30 37 1 31 17
M  V30 38 1 1 34
M  V30 39 1 1 35
M  V30 40 1 1 36
M  V30 41 1 2 37
M  V30 42 1 2 38
M  V30 43 1 3 39
M  V30 44 1 7 40
M  V30 45 1 8 41
M  V30 46 1 11 42
M  V30 47 1 12 43
M  V30 48 1 16 44
M  V30 49 1 21 45
M  V30 50 1 22 46
M  V30 51 1 22 47
M  V30 52 1 23 48
M  V30 53 1 23 49
M  V30 54 1 24 50
M  V30 55 1 24 51
M  V30 56 1 25 52
M  V30 57 1 25 53
M  V30 58 1 26 54 CFG=1
M  V30 59 1 27 55
M  V30 60 1 27 56
M  V30 61 1 28 57
M  V30 62 1 28 58
M  V30 63 1 28 59
M  V30 64 1 32 60
M  V30 65 1 32 61
M  V30 66 1 32 62
M  V30 67 1 33 63
M  V30 END BOND
M  V30 END CTAB
M  END
>  <Dataset>  (334) 
ChEMBL_Kinases

>  <Ligand_Instance>  (334) 
nan

>  <PDB_ID>  (334) 
nan

>  <Standardized_SMILES>  (334) 
CCNC(=O)c1ccc2c(ccn2-c2ncc3c(n2)N(C2CCCC2)[C@H](CC)C(=O)N3C)c1

>  <Name>  (334) 
nan

>  <Pocket>  (334) 
nan

>  <ATP_Site>  (334) 
nan

>  <Peripheral>  (334) 
nan

>  <Num_H_Atoms_ProtBoundConf>  (334) 
nan

>  <Num_Resolved_Atoms>  (334) 
nan

>  <Num_Not_Resolved_Atoms>  (334) 
nan

$$$$
CHEMBL4785853
     RDKit          3D

  0  0  0  0  0  0  0  0  0  0999 V3000
M  V30 BEGIN CTAB
M  V30 COUNTS 72 78 0 0 0
M  V30 BEGIN ATOM
M  V30 1 C 6.608543 -3.490051 -1.577699 0
M  V30 2 S 6.386392 -3.814399 -3.312339 0
M  V30 3 O 5.927083 -5.230395 -3.493726 0
M  V30 4 O 7.676428 -3.526493 -4.039579 0
M  V30 5 N 5.119021 -2.802091 -3.962793 0
M  V30 6 C 5.588591 -1.432941 -3.768519 0
M  V30 7 C 4.620610 -0.426053 -4.271091 0
M  V30 8 C 4.663118 0.036394 -5.560912 0
M  V30 9 C 3.745924 0.972436 -5.991484 0
M  V30 10 F 3.753115 1.456128 -7.259107 0
M  V30 11 C 2.797002 1.415828 -5.077943 0
M  V30 12 C 2.715446 0.977135 -3.765326 0
M  V30 13 C 1.673160 1.530727 -2.910451 0
M  V30 14 C 1.481547 2.895813 -2.864254 0
M  V30 15 N 0.518518 3.379304 -2.058907 0
M  V30 16 C -0.258706 2.583511 -1.302321 0
M  V30 17 C -0.081382 1.219044 -1.336190 0
M  V30 18 N -0.668334 0.180819 -0.728874 0
M  V30 19 C -0.183518 -1.018104 -1.051337 0
M  V30 20 C -0.441880 -2.399438 -0.702326 0
M  V30 21 N 0.199670 -3.462735 -1.175379 0
M  V30 22 N -0.275671 -4.573106 -0.657713 0
M  V30 23 C -1.273738 -4.315016 0.201124 0
M  V30 24 C -2.064850 -5.135098 0.972247 0
M  V30 25 C -3.014871 -4.515744 1.756988 0
M  V30 26 C -3.170676 -3.129255 1.772478 0
M  V30 27 C -4.198431 -2.545811 2.628313 0
M  V30 28 C -5.378131 -3.255451 2.873508 0
M  V30 29 N -6.364645 -2.764119 3.658499 0
M  V30 30 C -6.255200 -1.554828 4.247117 0
M  V30 31 C -5.101148 -0.805289 4.036847 0
M  V30 32 N -4.812512 0.483169 4.573466 0
M  V30 33 C -5.038849 1.800674 4.140743 0
M  V30 34 O -5.623323 2.052536 3.039483 0
M  V30 35 C -4.548927 2.837760 5.057566 0
M  V30 36 C -3.035436 2.719157 5.266646 0
M  V30 37 C -3.282564 3.093046 6.720796 0
M  V30 38 C -4.725346 2.637711 6.520131 0
M  V30 39 C -4.092107 -1.305135 3.235341 0
M  V30 40 C -2.327615 -2.399699 0.963444 0
M  V30 41 C -1.359663 -2.954773 0.157198 0
M  V30 42 C 0.814300 -0.670056 -1.960298 0
M  V30 43 C 0.893725 0.687121 -2.148023 0
M  V30 44 C 3.659975 0.042585 -3.397273 0
M  V30 45 H 6.532919 -4.446131 -0.996265 0
M  V30 46 H 5.765152 -2.842581 -1.200582 0
M  V30 47 H 7.595767 -3.067588 -1.383041 0
M  V30 48 H 4.292021 -2.958092 -3.342926 0
M  V30 49 H 5.701809 -1.289671 -2.680953 0
M  V30 50 H 6.570759 -1.291186 -4.252174 0
M  V30 51 H 5.405020 -0.314678 -6.263988 0
M  V30 52 H 2.085210 2.159896 -5.457520 0
M  V30 53 H 2.099759 3.548580 -3.468002 0
M  V30 54 H -1.027298 2.989202 -0.661147 0
M  V30 55 H -1.440113 0.349358 -0.063818 0
M  V30 56 H 0.143405 -5.498632 -0.946407 0
M  V30 57 H -1.924593 -6.197465 0.941888 0
M  V30 58 H -3.676511 -5.117270 2.394641 0
M  V30 59 H -5.542458 -4.230953 2.438886 0
M  V30 60 H -6.989622 -1.085616 4.886680 0
M  V30 61 H -4.345593 0.205688 5.453593 0
M  V30 62 H -4.844854 3.842302 4.728863 0
M  V30 63 H -2.723398 1.643783 5.144567 0
M  V30 64 H -2.453064 3.429493 4.672172 0
M  V30 65 H -3.147282 4.158869 6.936786 0
M  V30 66 H -2.706946 2.471274 7.445373 0
M  V30 67 H -4.817719 1.604837 6.892838 0
M  V30 68 H -5.419141 3.311847 7.059919 0
M  V30 69 H -3.153480 -0.779438 3.019291 0
M  V30 70 H -2.475878 -1.339348 1.001237 0
M  V30 71 H 1.485745 -1.332263 -2.498183 0
M  V30 72 H 3.628010 -0.317167 -2.379167 0
M  V30 END ATOM
M  V30 BEGIN BOND
M  V30 1 1 1 2
M  V30 2 2 2 3
M  V30 3 2 2 4
M  V30 4 1 2 5
M  V30 5 1 5 6
M  V30 6 1 6 7
M  V30 7 2 7 8
M  V30 8 1 8 9
M  V30 9 1 9 10
M  V30 10 2 9 11
M  V30 11 1 11 12
M  V30 12 1 12 13
M  V30 13 2 13 14
M  V30 14 1 14 15
M  V30 15 2 15 16
M  V30 16 1 16 17
M  V30 17 1 17 18
M  V30 18 1 18 19
M  V30 19 1 19 20
M  V30 20 2 20 21
M  V30 21 1 21 22
M  V30 22 1 22 23
M  V30 23 2 23 24
M  V30 24 1 24 25
M  V30 25 2 25 26
M  V30 26 1 26 27
M  V30 27 2 27 28
M  V30 28 1 28 29
M  V30 29 2 29 30
M  V30 30 1 30 31
M  V30 31 1 31 32
M  V30 32 1 32 33
M  V30 33 2 33 34
M  V30 34 1 33 35
M  V30 35 1 35 36
M  V30 36 1 36 37
M  V30 37 1 37 38
M  V30 38 2 31 39
M  V30 39 1 26 40
M  V30 40 2 40 41
M  V30 41 2 19 42
M  V30 42 1 42 43
M  V30 43 2 12 44
M  V30 44 1 44 7
M  V30 45 1 43 13
M  V30 46 2 43 17
M  V30 47 1 41 20
M  V30 48 1 41 23
M  V30 49 1 39 27
M  V30 50 1 38 35
M  V30 51 1 1 45
M  V30 52 1 1 46
M  V30 53 1 1 47
M  V30 54 1 5 48
M  V30 55 1 6 49
M  V30 56 1 6 50
M  V30 57 1 8 51
M  V30 58 1 11 52
M  V30 59 1 14 53
M  V30 60 1 16 54
M  V30 61 1 18 55
M  V30 62 1 22 56
M  V30 63 1 24 57
M  V30 64 1 25 58
M  V30 65 1 28 59
M  V30 66 1 30 60
M  V30 67 1 32 61
M  V30 68 1 35 62
M  V30 69 1 36 63
M  V30 70 1 36 64
M  V30 71 1 37 65
M  V30 72 1 37 66
M  V30 73 1 38 67
M  V30 74 1 38 68
M  V30 75 1 39 69
M  V30 76 1 40 70
M  V30 77 1 42 71
M  V30 78 1 44 72
M  V30 END BOND
M  V30 END CTAB
M  END
>  <Dataset>  (335) 
ChEMBL_Kinases

>  <Ligand_Instance>  (335) 
nan

>  <PDB_ID>  (335) 
nan

>  <Standardized_SMILES>  (335) 
CS(=O)(=O)NCc1cc(F)cc(-c2cncc3[nH]c(-c4n[nH]c5ccc(-c6cncc(NC(=O)C7CCC7)c6)cc45)cc23)c1

>  <Name>  (335) 
nan

>  <Pocket>  (335) 
nan

>  <ATP_Site>  (335) 
nan

>  <Peripheral>  (335) 
nan

>  <Num_H_Atoms_ProtBoundConf>  (335) 
nan

>  <Num_Resolved_Atoms>  (335) 
nan

>  <Num_Not_Resolved_Atoms>  (335) 
nan

$$$$
CHEMBL4785840
     RDKit          3D

  0  0  0  0  0  0  0  0  0  0999 V3000
M  V30 BEGIN CTAB
M  V30 COUNTS 72 78 0 0 0
M  V30 BEGIN ATOM
M  V30 1 C 4.068197 -6.054416 2.471149 0
M  V30 2 N 3.893949 -5.245984 1.277577 0
M  V30 3 C 3.174863 -4.029982 1.607286 0
M  V30 4 C 4.145015 -3.045834 2.223416 0
M  V30 5 N 5.168798 -2.601988 1.308001 0
M  V30 6 C 5.812511 -1.396962 1.693788 0
M  V30 7 C 7.130667 -1.486211 2.082218 0
M  V30 8 N 7.689968 -0.310127 2.467881 0
M  V30 9 C 7.029281 0.847218 2.475634 0
M  V30 10 C 5.699276 0.941366 2.083838 0
M  V30 11 N 4.793463 1.927344 1.979177 0
M  V30 12 C 3.600397 1.481401 1.526087 0
M  V30 13 C 2.499381 2.398941 1.351844 0
M  V30 14 N 2.544460 3.714674 1.608239 0
M  V30 15 N 1.393981 4.302238 1.355500 0
M  V30 16 C 0.494174 3.407992 0.908570 0
M  V30 17 C -0.822794 3.491972 0.510048 0
M  V30 18 C -1.495386 2.363769 0.090527 0
M  V30 19 C -0.790985 1.160461 0.090268 0
M  V30 20 C -1.532873 -0.008675 -0.358007 0
M  V30 21 C -0.959808 -1.089506 -1.007542 0
M  V30 22 N -1.700898 -2.134238 -1.393559 0
M  V30 23 C -3.026569 -2.207854 -1.183046 0
M  V30 24 C -3.700544 -1.175139 -0.539028 0
M  V30 25 C -5.136210 -1.133490 -0.248028 0
M  V30 26 N -5.942736 -0.541965 -1.294927 0
M  V30 27 C -7.334609 -0.495424 -1.003323 0
M  V30 28 C -8.159767 0.100275 -2.068527 0
M  V30 29 C -8.728443 -0.649979 -3.102558 0
M  V30 30 C -9.508923 -0.074028 -4.107994 0
M  V30 31 C -9.735800 1.290026 -4.091798 0
M  V30 32 C -9.184584 2.067065 -3.076341 0
M  V30 33 C -8.421773 1.446049 -2.108718 0
M  V30 34 C -2.911283 -0.099210 -0.146371 0
M  V30 35 C 0.524417 1.115608 0.495544 0
M  V30 36 C 1.210651 2.229998 0.916576 0
M  V30 37 C 3.828390 0.145451 1.356394 0
M  V30 38 C 5.093781 -0.222740 1.685863 0
M  V30 39 C 5.279837 -3.521259 0.201273 0
M  V30 40 C 5.162712 -4.961623 0.638184 0
M  V30 41 H 3.341232 -6.871248 2.452597 0
M  V30 42 H 5.125163 -6.406145 2.466239 0
M  V30 43 H 3.868635 -5.415861 3.343413 0
M  V30 44 H 2.630831 -3.639837 0.751297 0
M  V30 45 H 2.452356 -4.312381 2.397630 0
M  V30 46 H 4.601686 -3.528910 3.137115 0
M  V30 47 H 3.571176 -2.195894 2.609331 0
M  V30 48 H 7.657356 -2.425476 2.073363 0
M  V30 49 H 7.529053 1.746002 2.792565 0
M  V30 50 H 5.107912 2.887195 2.250513 0
M  V30 51 H 1.257811 5.329194 1.501714 0
M  V30 52 H -1.318301 4.474303 0.535469 0
M  V30 53 H -2.525334 2.505535 -0.206808 0
M  V30 54 H 0.113114 -1.048553 -1.187164 0
M  V30 55 H -3.652827 -3.035254 -1.481129 0
M  V30 56 H -5.468171 -2.158817 0.004441 0
M  V30 57 H -5.285961 -0.536629 0.680110 0
M  V30 58 H -5.518198 0.275810 -1.732428 0
M  V30 59 H -7.679172 -1.562363 -0.915673 0
M  V30 60 H -7.590270 -0.033055 -0.019516 0
M  V30 61 H -8.535736 -1.716118 -3.093669 0
M  V30 62 H -9.891909 -0.764460 -4.850798 0
M  V30 63 H -10.343561 1.633543 -4.900495 0
M  V30 64 H -9.391671 3.128490 -3.109322 0
M  V30 65 H -8.007739 2.072164 -1.333937 0
M  V30 66 H -3.381544 0.741075 0.362905 0
M  V30 67 H 1.014899 0.163269 0.474053 0
M  V30 68 H 3.089209 -0.544792 0.994969 0
M  V30 69 H 4.492370 -3.351107 -0.579421 0
M  V30 70 H 6.252078 -3.418194 -0.321164 0
M  V30 71 H 5.264387 -5.608245 -0.256561 0
M  V30 72 H 5.959209 -5.246585 1.355877 0
M  V30 END ATOM
M  V30 BEGIN BOND
M  V30 1 1 1 2
M  V30 2 1 2 3
M  V30 3 1 3 4
M  V30 4 1 4 5
M  V30 5 1 5 6
M  V30 6 2 6 7
M  V30 7 1 7 8
M  V30 8 2 8 9
M  V30 9 1 9 10
M  V30 10 1 10 11
M  V30 11 1 11 12
M  V30 12 1 12 13
M  V30 13 2 13 14
M  V30 14 1 14 15
M  V30 15 1 15 16
M  V30 16 2 16 17
M  V30 17 1 17 18
M  V30 18 2 18 19
M  V30 19 1 19 20
M  V30 20 2 20 21
M  V30 21 1 21 22
M  V30 22 2 22 23
M  V30 23 1 23 24
M  V30 24 1 24 25
M  V30 25 1 25 26
M  V30 26 1 26 27
M  V30 27 1 27 28
M  V30 28 2 28 29
M  V30 29 1 29 30
M  V30 30 2 30 31
M  V30 31 1 31 32
M  V30 32 2 32 33
M  V30 33 2 24 34
M  V30 34 1 19 35
M  V30 35 2 35 36
M  V30 36 2 12 37
M  V30 37 1 37 38
M  V30 38 1 5 39
M  V30 39 1 39 40
M  V30 40 1 40 2
M  V30 41 1 38 6
M  V30 42 2 38 10
M  V30 43 1 36 13
M  V30 44 1 36 16
M  V30 45 1 34 20
M  V30 46 1 33 28
M  V30 47 1 1 41
M  V30 48 1 1 42
M  V30 49 1 1 43
M  V30 50 1 3 44
M  V30 51 1 3 45
M  V30 52 1 4 46
M  V30 53 1 4 47
M  V30 54 1 7 48
M  V30 55 1 9 49
M  V30 56 1 11 50
M  V30 57 1 15 51
M  V30 58 1 17 52
M  V30 59 1 18 53
M  V30 60 1 21 54
M  V30 61 1 23 55
M  V30 62 1 25 56
M  V30 63 1 25 57
M  V30 64 1 26 58
M  V30 65 1 27 59
M  V30 66 1 27 60
M  V30 67 1 29 61
M  V30 68 1 30 62
M  V30 69 1 31 63
M  V30 70 1 32 64
M  V30 71 1 33 65
M  V30 72 1 34 66
M  V30 73 1 35 67
M  V30 74 1 37 68
M  V30 75 1 39 69
M  V30 76 1 39 70
M  V30 77 1 40 71
M  V30 78 1 40 72
M  V30 END BOND
M  V30 END CTAB
M  END
>  <Dataset>  (336) 
ChEMBL_Kinases

>  <Ligand_Instance>  (336) 
nan

>  <PDB_ID>  (336) 
nan

>  <Standardized_SMILES>  (336) 
CN1CCN(c2cncc3[nH]c(-c4n[nH]c5ccc(-c6cncc(CNCc7ccccc7)c6)cc45)cc23)CC1

>  <Name>  (336) 
nan

>  <Pocket>  (336) 
nan

>  <ATP_Site>  (336) 
nan

>  <Peripheral>  (336) 
nan

>  <Num_H_Atoms_ProtBoundConf>  (336) 
nan

>  <Num_Resolved_Atoms>  (336) 
nan

>  <Num_Not_Resolved_Atoms>  (336) 
nan

$$$$
CHEMBL4785809
     RDKit          3D

  0  0  0  0  0  0  0  0  0  0999 V3000
M  V30 BEGIN CTAB
M  V30 COUNTS 57 62 0 0 0
M  V30 BEGIN ATOM
M  V30 1 C 4.246002 -1.698318 4.407342 0
M  V30 2 C 5.144005 -0.473105 4.542793 0
M  V30 3 N 4.636043 0.634355 3.751805 0
M  V30 4 C 4.750968 0.352256 2.324598 0
M  V30 5 C 4.227152 1.498380 1.519874 0
M  V30 6 C 5.032320 2.541465 1.113067 0
M  V30 7 N 4.619198 3.597653 0.389625 0
M  V30 8 C 3.308837 3.670869 0.014639 0
M  V30 9 C 2.474775 2.645175 0.404006 0
M  V30 10 C 1.054257 2.607233 0.068315 0
M  V30 11 C 0.400904 3.839311 -0.033329 0
M  V30 12 C -0.929894 3.891090 -0.343139 0
M  V30 13 C -1.562612 2.706522 -0.540995 0
M  V30 14 N -2.840155 2.418537 -0.851535 0
M  V30 15 N -3.021096 1.119112 -0.947726 0
M  V30 16 C -1.882123 0.446538 -0.709331 0
M  V30 17 C -1.731131 -0.990788 -0.732790 0
M  V30 18 C -2.793515 -1.843349 -1.012092 0
M  V30 19 C -2.433271 -3.152097 -0.980621 0
M  V30 20 C -3.075589 -4.355138 -1.174898 0
M  V30 21 C -4.492886 -4.375081 -1.511734 0
M  V30 22 C -5.205315 -3.651705 -2.445126 0
M  V30 23 C -6.557712 -3.843696 -2.575575 0
M  V30 24 C -7.235051 -4.759572 -1.781482 0
M  V30 25 N -6.538205 -5.464022 -0.872129 0
M  V30 26 C -5.197106 -5.290706 -0.724681 0
M  V30 27 C -2.396874 -5.570070 -1.063881 0
M  V30 28 C -1.068415 -5.502282 -0.754009 0
M  V30 29 N -0.450645 -4.315775 -0.566254 0
M  V30 30 C -1.091960 -3.152147 -0.670403 0
M  V30 31 N -0.744629 -1.865701 -0.539327 0
M  V30 32 C -0.996161 1.467010 -0.460093 0
M  V30 33 C 0.345012 1.444369 -0.146638 0
M  V30 34 C 2.883212 1.556018 1.145363 0
M  V30 35 H 3.203533 -1.433800 4.676939 0
M  V30 36 H 4.250416 -2.092373 3.379479 0
M  V30 37 H 4.578142 -2.471482 5.110098 0
M  V30 38 H 5.189903 -0.222145 5.619332 0
M  V30 39 H 6.162557 -0.703461 4.213094 0
M  V30 40 H 3.649537 0.756551 4.042176 0
M  V30 41 H 4.053886 -0.500056 2.122799 0
M  V30 42 H 5.786866 0.150763 2.042671 0
M  V30 43 H 6.093196 2.524821 1.391459 0
M  V30 44 H 2.897975 4.486153 -0.566579 0
M  V30 45 H 0.964911 4.762717 0.137718 0
M  V30 46 H -1.471975 4.818023 -0.431337 0
M  V30 47 H -3.669713 3.041356 -1.019651 0
M  V30 48 H -3.830661 -1.565116 -1.238632 0
M  V30 49 H -4.579727 -2.976812 -3.003773 0
M  V30 50 H -6.990066 -3.211710 -3.345111 0
M  V30 51 H -8.281767 -4.826220 -1.968306 0
M  V30 52 H -4.819534 -5.943283 0.052295 0
M  V30 53 H -2.907981 -6.488935 -1.216850 0
M  V30 54 H -0.454242 -6.406902 -0.646102 0
M  V30 55 H 0.230438 -1.618344 -0.304316 0
M  V30 56 H 0.877525 0.529621 -0.060203 0
M  V30 57 H 2.250455 0.744543 1.460251 0
M  V30 END ATOM
M  V30 BEGIN BOND
M  V30 1 1 1 2
M  V30 2 1 2 3
M  V30 3 1 3 4
M  V30 4 1 4 5
M  V30 5 2 5 6
M  V30 6 1 6 7
M  V30 7 2 7 8
M  V30 8 1 8 9
M  V30 9 1 9 10
M  V30 10 2 10 11
M  V30 11 1 11 12
M  V30 12 2 12 13
M  V30 13 1 13 14
M  V30 14 1 14 15
M  V30 15 2 15 16
M  V30 16 1 16 17
M  V30 17 2 17 18
M  V30 18 1 18 19
M  V30 19 2 19 20
M  V30 20 1 20 21
M  V30 21 2 21 22
M  V30 22 1 22 23
M  V30 23 2 23 24
M  V30 24 1 24 25
M  V30 25 2 25 26
M  V30 26 1 20 27
M  V30 27 2 27 28
M  V30 28 1 28 29
M  V30 29 2 29 30
M  V30 30 1 30 31
M  V30 31 1 16 32
M  V30 32 2 32 33
M  V30 33 2 9 34
M  V30 34 1 34 5
M  V30 35 1 33 10
M  V30 36 1 32 13
M  V30 37 1 31 17
M  V30 38 1 30 19
M  V30 39 1 26 21
M  V30 40 1 1 35
M  V30 41 1 1 36
M  V30 42 1 1 37
M  V30 43 1 2 38
M  V30 44 1 2 39
M  V30 45 1 3 40
M  V30 46 1 4 41
M  V30 47 1 4 42
M  V30 48 1 6 43
M  V30 49 1 8 44
M  V30 50 1 11 45
M  V30 51 1 12 46
M  V30 52 1 14 47
M  V30 53 1 18 48
M  V30 54 1 22 49
M  V30 55 1 23 50
M  V30 56 1 24 51
M  V30 57 1 26 52
M  V30 58 1 27 53
M  V30 59 1 28 54
M  V30 60 1 31 55
M  V30 61 1 33 56
M  V30 62 1 34 57
M  V30 END BOND
M  V30 END CTAB
M  END
>  <Dataset>  (337) 
ChEMBL_Kinases

>  <Ligand_Instance>  (337) 
nan

>  <PDB_ID>  (337) 
nan

>  <Standardized_SMILES>  (337) 
CCNCc1cncc(-c2ccc3[nH]nc(-c4cc5c(-c6cccnc6)ccnc5[nH]4)c3c2)c1

>  <Name>  (337) 
nan

>  <Pocket>  (337) 
nan

>  <ATP_Site>  (337) 
nan

>  <Peripheral>  (337) 
nan

>  <Num_H_Atoms_ProtBoundConf>  (337) 
nan

>  <Num_Resolved_Atoms>  (337) 
nan

>  <Num_Not_Resolved_Atoms>  (337) 
nan

$$$$
CHEMBL4785775
     RDKit          3D

  0  0  0  0  0  0  0  0  0  0999 V3000
M  V30 BEGIN CTAB
M  V30 COUNTS 64 68 0 0 0
M  V30 BEGIN ATOM
M  V30 1 C 6.854874 0.653589 2.438791 0
M  V30 2 C 7.212242 0.400878 0.988965 0
M  V30 3 C 7.534598 -1.037534 0.764902 0
M  V30 4 N 6.041423 0.787228 0.185374 0
M  V30 5 C 4.861853 1.237255 0.597281 0
M  V30 6 C 4.094904 1.460223 -0.529842 0
M  V30 7 C 2.722422 1.954721 -0.630154 0
M  V30 8 O 2.106048 2.124871 -1.724099 0
M  V30 9 N 1.962054 2.288229 0.518946 0
M  V30 10 C 0.626219 2.774114 0.517146 0
M  V30 11 C -0.339233 1.799585 0.573564 0
M  V30 12 C -1.664401 2.183345 0.576262 0
M  V30 13 C -2.658961 1.235536 0.631883 0
M  V30 14 C -3.993944 1.581975 0.636291 0
M  V30 15 C -4.988395 0.510812 0.696800 0
M  V30 16 C -6.343246 0.767805 0.705410 0
M  V30 17 N -7.184201 -0.280581 0.762593 0
M  V30 18 C -6.725412 -1.544323 0.810153 0
M  V30 19 C -5.354548 -1.828040 0.802465 0
M  V30 20 N -4.886822 -3.171178 0.854009 0
M  V30 21 C -3.480103 -3.490654 0.846324 0
M  V30 22 C -2.765344 -3.008477 -0.398936 0
M  V30 23 C -1.303222 -3.418030 -0.172351 0
M  V30 24 N -1.223457 -4.825753 -0.347796 0
M  V30 25 C -0.895738 -5.223243 -1.695895 0
M  V30 26 C -2.239454 -5.609900 0.274578 0
M  V30 27 C -3.173623 -4.901708 1.187270 0
M  V30 28 N -4.552862 -0.762388 0.745134 0
M  V30 29 N -4.345410 2.879108 0.585138 0
M  V30 30 C -3.404319 3.866864 0.528553 0
M  V30 31 C -2.057305 3.523838 0.523797 0
M  V30 32 C -1.032640 4.452210 0.468511 0
M  V30 33 N 0.266321 4.091330 0.465220 0
M  V30 34 C 4.862917 1.125440 -1.634101 0
M  V30 35 N 6.054595 0.716481 -1.135541 0
M  V30 36 H 6.002282 -0.028411 2.715434 0
M  V30 37 H 7.704025 0.480297 3.113617 0
M  V30 38 H 6.463917 1.674008 2.592374 0
M  V30 39 H 8.065384 1.038323 0.699131 0
M  V30 40 H 6.871156 -1.514326 0.012004 0
M  V30 41 H 7.348049 -1.595194 1.705031 0
M  V30 42 H 8.598712 -1.177610 0.489920 0
M  V30 43 H 4.552197 1.400871 1.615255 0
M  V30 44 H 2.379522 2.184096 1.482784 0
M  V30 45 H -0.111255 0.730712 0.616599 0
M  V30 46 H -2.356328 0.191970 0.672779 0
M  V30 47 H -6.685300 1.792963 0.666400 0
M  V30 48 H -7.413861 -2.388629 0.856314 0
M  V30 49 H -5.589971 -3.933952 0.898152 0
M  V30 50 H -3.042438 -2.858958 1.676271 0
M  V30 51 H -2.870476 -1.926217 -0.460911 0
M  V30 52 H -3.167861 -3.550288 -1.283609 0
M  V30 53 H -0.668256 -2.921413 -0.929633 0
M  V30 54 H -1.028383 -3.044585 0.826899 0
M  V30 55 H -1.068115 -4.353645 -2.386952 0
M  V30 56 H -1.631566 -6.001165 -2.009178 0
M  V30 57 H 0.110855 -5.620749 -1.808179 0
M  V30 58 H -2.847825 -6.102400 -0.537019 0
M  V30 59 H -1.737977 -6.435738 0.828675 0
M  V30 60 H -2.789171 -5.027405 2.240891 0
M  V30 61 H -4.137163 -5.490138 1.208344 0
M  V30 62 H -3.670196 4.914743 0.486991 0
M  V30 63 H -1.286343 5.506308 0.426476 0
M  V30 64 H 4.629025 1.157524 -2.697792 0
M  V30 END ATOM
M  V30 BEGIN BOND
M  V30 1 1 1 2
M  V30 2 1 2 3
M  V30 3 1 2 4
M  V30 4 1 4 5
M  V30 5 2 5 6
M  V30 6 1 6 7
M  V30 7 2 7 8
M  V30 8 1 7 9
M  V30 9 1 9 10
M  V30 10 2 10 11
M  V30 11 1 11 12
M  V30 12 2 12 13
M  V30 13 1 13 14
M  V30 14 1 14 15
M  V30 15 2 15 16
M  V30 16 1 16 17
M  V30 17 2 17 18
M  V30 18 1 18 19
M  V30 19 1 19 20
M  V30 20 1 20 21
M  V30 21 1 21 22
M  V30 22 1 22 23
M  V30 23 1 23 24
M  V30 24 1 24 25
M  V30 25 1 24 26
M  V30 26 1 26 27
M  V30 27 2 19 28
M  V30 28 2 14 29
M  V30 29 1 29 30
M  V30 30 2 30 31
M  V30 31 1 31 32
M  V30 32 2 32 33
M  V30 33 1 6 34
M  V30 34 2 34 35
M  V30 35 1 35 4
M  V30 36 1 33 10
M  V30 37 1 31 12
M  V30 38 1 28 15
M  V30 39 1 27 21
M  V30 40 1 1 36
M  V30 41 1 1 37
M  V30 42 1 1 38
M  V30 43 1 2 39
M  V30 44 1 3 40
M  V30 45 1 3 41
M  V30 46 1 3 42
M  V30 47 1 5 43
M  V30 48 1 9 44
M  V30 49 1 11 45
M  V30 50 1 13 46
M  V30 51 1 16 47
M  V30 52 1 18 48
M  V30 53 1 20 49
M  V30 54 1 21 50
M  V30 55 1 22 51
M  V30 56 1 22 52
M  V30 57 1 23 53
M  V30 58 1 23 54
M  V30 59 1 25 55
M  V30 60 1 25 56
M  V30 61 1 25 57
M  V30 62 1 26 58
M  V30 63 1 26 59
M  V30 64 1 27 60
M  V30 65 1 27 61
M  V30 66 1 30 62
M  V30 67 1 32 63
M  V30 68 1 34 64
M  V30 END BOND
M  V30 END CTAB
M  END
>  <Dataset>  (338) 
ChEMBL_Kinases

>  <Ligand_Instance>  (338) 
nan

>  <PDB_ID>  (338) 
nan

>  <Standardized_SMILES>  (338) 
CC(C)n1cc(C(=O)Nc2cc3cc(-c4cncc(NC5CCN(C)CC5)n4)ncc3cn2)cn1

>  <Name>  (338) 
nan

>  <Pocket>  (338) 
nan

>  <ATP_Site>  (338) 
nan

>  <Peripheral>  (338) 
nan

>  <Num_H_Atoms_ProtBoundConf>  (338) 
nan

>  <Num_Resolved_Atoms>  (338) 
nan

>  <Num_Not_Resolved_Atoms>  (338) 
nan

$$$$
CHEMBL4785637
     RDKit          3D

  0  0  0  0  0  0  0  0  0  0999 V3000
M  V30 BEGIN CTAB
M  V30 COUNTS 42 45 0 0 0
M  V30 BEGIN ATOM
M  V30 1 C 0.641308 -3.869419 2.024223 0
M  V30 2 C 2.108954 -3.653715 1.892165 0
M  V30 3 N 3.071731 -4.535988 2.216143 0
M  V30 4 N 4.248413 -3.989907 1.960631 0
M  V30 5 C 4.060313 -2.752786 1.470308 0
M  V30 6 C 4.898973 -1.749501 1.041916 0
M  V30 7 C 4.359093 -0.571204 0.586097 0
M  V30 8 F 5.239977 0.364469 0.183515 0
M  V30 9 C 3.019517 -0.288086 0.514102 0
M  V30 10 C 2.395912 0.932027 0.044093 0
M  V30 11 C 2.990538 2.070630 -0.430979 0
M  V30 12 N 2.288169 3.141363 -0.838643 0
M  V30 13 C 0.947384 3.164538 -0.806395 0
M  V30 14 C 0.328534 2.030615 -0.332450 0
M  V30 15 O -1.057548 2.021987 -0.286047 0
M  V30 16 C -1.701224 0.875916 0.193575 0 CFG=1
M  V30 17 C -2.521698 1.170355 1.453096 0
M  V30 18 C -2.910987 -0.194465 1.998739 0
M  V30 19 N -3.707697 -0.949060 1.084155 0
M  V30 20 C -3.210598 -1.007495 -0.248228 0
M  V30 21 C -2.651336 0.260292 -0.800149 0 CFG=2
M  V30 22 F -1.868479 -0.091077 -1.905698 0
M  V30 23 N 1.054541 0.989546 0.062588 0
M  V30 24 C 2.208766 -1.313519 0.950512 0
M  V30 25 C 2.706758 -2.511659 1.415589 0
M  V30 26 H 0.401878 -4.766178 2.598113 0
M  V30 27 H 0.244284 -3.932809 0.992831 0
M  V30 28 H 0.154523 -2.971261 2.487844 0
M  V30 29 H 5.209057 -4.380987 2.087682 0
M  V30 30 H 5.960080 -1.910666 1.073632 0
M  V30 31 H 4.063906 2.101248 -0.476516 0
M  V30 32 H 0.349471 3.999563 -1.122762 0
M  V30 33 H -1.006438 0.056336 0.500905 0
M  V30 34 H -3.445039 1.709804 1.214749 0
M  V30 35 H -1.915871 1.688053 2.206654 0
M  V30 36 H -3.511201 -0.004273 2.908914 0
M  V30 37 H -2.004726 -0.760302 2.314302 0
M  V30 38 H -4.730788 -0.824657 1.190442 0
M  V30 39 H -4.078606 -1.299094 -0.903846 0
M  V30 40 H -2.473258 -1.822883 -0.385320 0
M  V30 41 H -3.404406 1.013730 -1.050594 0
M  V30 42 H 1.112710 -1.232027 0.951827 0
M  V30 END ATOM
M  V30 BEGIN BOND
M  V30 1 1 1 2
M  V30 2 2 2 3
M  V30 3 1 3 4
M  V30 4 1 4 5
M  V30 5 2 5 6
M  V30 6 1 6 7
M  V30 7 1 7 8
M  V30 8 2 7 9
M  V30 9 1 9 10
M  V30 10 2 10 11
M  V30 11 1 11 12
M  V30 12 2 12 13
M  V30 13 1 13 14
M  V30 14 1 14 15
M  V30 15 1 15 16
M  V30 16 1 16 17
M  V30 17 1 17 18
M  V30 18 1 18 19
M  V30 19 1 19 20
M  V30 20 1 20 21
M  V30 21 1 21 22
M  V30 22 2 14 23
M  V30 23 1 9 24
M  V30 24 2 24 25
M  V30 25 1 25 2
M  V30 26 1 25 5
M  V30 27 1 23 10
M  V30 28 1 21 16
M  V30 29 1 1 26
M  V30 30 1 1 27
M  V30 31 1 1 28
M  V30 32 1 4 29
M  V30 33 1 6 30
M  V30 34 1 11 31
M  V30 35 1 13 32
M  V30 36 1 16 33 CFG=1
M  V30 37 1 17 34
M  V30 38 1 17 35
M  V30 39 1 18 36
M  V30 40 1 18 37
M  V30 41 1 19 38
M  V30 42 1 20 39
M  V30 43 1 20 40
M  V30 44 1 21 41 CFG=3
M  V30 45 1 24 42
M  V30 END BOND
M  V30 END CTAB
M  END
>  <Dataset>  (339) 
ChEMBL_Kinases

>  <Ligand_Instance>  (339) 
nan

>  <PDB_ID>  (339) 
nan

>  <Standardized_SMILES>  (339) 
Cc1n[nH]c2cc(F)c(-c3cncc(O[C@H]4CCNC[C@@H]4F)n3)cc12

>  <Name>  (339) 
nan

>  <Pocket>  (339) 
nan

>  <ATP_Site>  (339) 
nan

>  <Peripheral>  (339) 
nan

>  <Num_H_Atoms_ProtBoundConf>  (339) 
nan

>  <Num_Resolved_Atoms>  (339) 
nan

>  <Num_Not_Resolved_Atoms>  (339) 
nan

$$$$
CHEMBL4172511
     RDKit          3D

  0  0  0  0  0  0  0  0  0  0999 V3000
M  V30 BEGIN CTAB
M  V30 COUNTS 56 59 0 0 0
M  V30 BEGIN ATOM
M  V30 1 C 2.107237 -1.354371 4.159446 0
M  V30 2 C 3.269673 -1.747164 3.271946 0
M  V30 3 C 2.863476 -2.787548 2.252626 0
M  V30 4 C 4.091496 -3.095537 1.432230 0
M  V30 5 O 4.786664 -4.139007 1.420117 0
M  V30 6 N 4.479812 -2.016204 0.560458 0
M  V30 7 C 5.864360 -1.847478 0.136180 0
M  V30 8 C 3.533249 -1.071270 0.076632 0
M  V30 9 C 3.826144 -0.014473 -0.756319 0
M  V30 10 N 2.842066 0.807226 -1.141020 0
M  V30 11 C 1.555015 0.693888 -0.779373 0
M  V30 12 N 0.612767 1.635042 -1.264336 0
M  V30 13 C -0.772138 1.699807 -0.967205 0
M  V30 14 C -1.457552 0.896528 -0.086577 0
M  V30 15 C -2.803309 0.984121 0.173843 0
M  V30 16 C -3.558868 1.935241 -0.475700 0
M  V30 17 S -5.258890 2.020752 -0.118662 0
M  V30 18 O -5.539574 1.590788 1.309796 0
M  V30 19 O -5.771811 3.436197 -0.232673 0
M  V30 20 N -6.136857 0.945685 -1.141689 0
M  V30 21 C -5.948247 1.343513 -2.521896 0
M  V30 22 C -2.908432 2.759667 -1.365986 0
M  V30 23 C -1.559781 2.638919 -1.597852 0
M  V30 24 N 1.307933 -0.346191 0.031221 0
M  V30 25 C 2.222164 -1.222015 0.470453 0
M  V30 26 N 1.881857 -2.300302 1.329289 0
M  V30 27 C 0.586876 -2.875547 1.255983 0
M  V30 28 C 0.125031 -3.902494 2.042836 0
M  V30 29 C -1.177205 -4.213488 1.700554 0
M  V30 30 N -1.494715 -3.367359 0.703833 0
M  V30 31 C -2.746166 -3.273843 -0.013027 0
M  V30 32 N -0.462857 -2.604977 0.463820 0
M  V30 33 H 1.898255 -2.195883 4.837446 0
M  V30 34 H 2.466500 -0.519349 4.809183 0
M  V30 35 H 1.241244 -0.996535 3.578728 0
M  V30 36 H 3.692125 -0.848287 2.778595 0
M  V30 37 H 4.069146 -2.171591 3.910931 0
M  V30 38 H 2.504711 -3.691151 2.743814 0
M  V30 39 H 6.503245 -2.517118 0.750733 0
M  V30 40 H 6.151818 -0.819168 0.406597 0
M  V30 41 H 6.016955 -2.112889 -0.925746 0
M  V30 42 H 4.851438 0.114976 -1.072173 0
M  V30 43 H 0.980983 2.370317 -1.918950 0
M  V30 44 H -0.925172 0.141544 0.449578 0
M  V30 45 H -3.277310 0.311078 0.888356 0
M  V30 46 H -7.150698 0.953988 -0.913063 0
M  V30 47 H -6.727752 2.068123 -2.841159 0
M  V30 48 H -6.008447 0.443524 -3.192190 0
M  V30 49 H -4.926352 1.763939 -2.618500 0
M  V30 50 H -3.472845 3.510135 -1.883211 0
M  V30 51 H -1.120809 3.328423 -2.316728 0
M  V30 52 H 0.607635 -4.458966 2.835139 0
M  V30 53 H -1.847608 -4.954721 2.099590 0
M  V30 54 H -2.583448 -2.909420 -1.049061 0
M  V30 55 H -3.422067 -2.549454 0.470156 0
M  V30 56 H -3.257458 -4.275484 -0.034168 0
M  V30 END ATOM
M  V30 BEGIN BOND
M  V30 1 1 1 2
M  V30 2 1 2 3
M  V30 3 1 3 4
M  V30 4 2 4 5
M  V30 5 1 4 6
M  V30 6 1 6 7
M  V30 7 1 6 8
M  V30 8 2 8 9
M  V30 9 1 9 10
M  V30 10 2 10 11
M  V30 11 1 11 12
M  V30 12 1 12 13
M  V30 13 2 13 14
M  V30 14 1 14 15
M  V30 15 2 15 16
M  V30 16 1 16 17
M  V30 17 2 17 18
M  V30 18 2 17 19
M  V30 19 1 17 20
M  V30 20 1 20 21
M  V30 21 1 16 22
M  V30 22 2 22 23
M  V30 23 1 11 24
M  V30 24 2 24 25
M  V30 25 1 25 26
M  V30 26 1 26 27
M  V30 27 1 27 28
M  V30 28 2 28 29
M  V30 29 1 29 30
M  V30 30 1 30 31
M  V30 31 1 30 32
M  V30 32 1 26 3
M  V30 33 2 32 27
M  V30 34 1 25 8
M  V30 35 1 23 13
M  V30 36 1 1 33
M  V30 37 1 1 34
M  V30 38 1 1 35
M  V30 39 1 2 36
M  V30 40 1 2 37
M  V30 41 1 3 38
M  V30 42 1 7 39
M  V30 43 1 7 40
M  V30 44 1 7 41
M  V30 45 1 9 42
M  V30 46 1 12 43
M  V30 47 1 14 44
M  V30 48 1 15 45
M  V30 49 1 20 46
M  V30 50 1 21 47
M  V30 51 1 21 48
M  V30 52 1 21 49
M  V30 53 1 22 50
M  V30 54 1 23 51
M  V30 55 1 28 52
M  V30 56 1 29 53
M  V30 57 1 31 54
M  V30 58 1 31 55
M  V30 59 1 31 56
M  V30 END BOND
M  V30 END CTAB
M  END
>  <Dataset>  (340) 
ChEMBL_Kinases

>  <Ligand_Instance>  (340) 
nan

>  <PDB_ID>  (340) 
nan

>  <Standardized_SMILES>  (340) 
CCC1C(=O)N(C)c2cnc(Nc3ccc(S(=O)(=O)NC)cc3)nc2N1c1ccn(C)n1

>  <Name>  (340) 
nan

>  <Pocket>  (340) 
nan

>  <ATP_Site>  (340) 
nan

>  <Peripheral>  (340) 
nan

>  <Num_H_Atoms_ProtBoundConf>  (340) 
nan

>  <Num_Resolved_Atoms>  (340) 
nan

>  <Num_Not_Resolved_Atoms>  (340) 
nan

$$$$
CHEMBL4173322
     RDKit          3D

  0  0  0  0  0  0  0  0  0  0999 V3000
M  V30 BEGIN CTAB
M  V30 COUNTS 60 63 0 0 0
M  V30 BEGIN ATOM
M  V30 1 C 2.145023 -4.290272 2.972860 0
M  V30 2 C 1.400505 -3.276710 2.138090 0
M  V30 3 C 2.328373 -2.562450 1.170568 0
M  V30 4 C 2.958209 -3.558181 0.248725 0
M  V30 5 O 4.196440 -3.860585 0.276817 0
M  V30 6 N 2.107157 -4.187387 -0.700852 0
M  V30 7 C 2.416359 -5.508900 -1.207930 0
M  V30 8 C 0.963118 -3.501981 -1.136789 0
M  V30 9 C 0.079954 -4.001653 -2.036106 0
M  V30 10 N -0.992981 -3.293364 -2.407418 0
M  V30 11 C -1.288560 -2.051683 -1.935521 0
M  V30 12 N -2.443929 -1.395604 -2.403066 0
M  V30 13 C -2.941761 -0.150040 -2.009644 0
M  V30 14 C -2.471707 0.645706 -0.989121 0
M  V30 15 C -2.966146 1.869050 -0.625010 0
M  V30 16 C -4.030770 2.374237 -1.325958 0
M  V30 17 S -4.678524 3.936007 -0.877914 0
M  V30 18 O -4.607515 4.162793 0.595900 0
M  V30 19 O -6.114587 3.980960 -1.321716 0
M  V30 20 N -3.867874 5.207418 -1.732719 0
M  V30 21 C -4.126948 4.964699 -3.154369 0
M  V30 22 C -3.461594 6.021973 -4.012492 0
M  V30 23 O -2.088812 5.952373 -3.757427 0
M  V30 24 C -4.562707 1.645102 -2.360813 0
M  V30 25 C -4.009801 0.425546 -2.664668 0
M  V30 26 N -0.398955 -1.576587 -1.045455 0
M  V30 27 C 0.692552 -2.247350 -0.641148 0
M  V30 28 N 1.582122 -1.670022 0.306037 0
M  V30 29 C 1.744347 -0.262421 0.399797 0
M  V30 30 C 1.211219 0.717224 -0.409806 0
M  V30 31 C 1.639564 1.953018 0.069054 0
M  V30 32 N 2.398518 1.639997 1.129945 0
M  V30 33 C 3.085636 2.583126 1.989584 0
M  V30 34 N 2.475783 0.358306 1.343669 0
M  V30 35 H 1.411380 -4.955848 3.472050 0
M  V30 36 H 2.925995 -4.815601 2.428188 0
M  V30 37 H 2.636571 -3.691347 3.788900 0
M  V30 38 H 0.820368 -2.583141 2.752494 0
M  V30 39 H 0.669122 -3.853327 1.517474 0
M  V30 40 H 3.085250 -1.984357 1.736923 0
M  V30 41 H 2.262869 -5.486511 -2.312915 0
M  V30 42 H 1.718398 -6.201294 -0.685738 0
M  V30 43 H 3.483226 -5.753703 -1.025549 0
M  V30 44 H 0.273177 -4.997100 -2.445419 0
M  V30 45 H -3.008596 -1.904143 -3.143145 0
M  V30 46 H -1.642266 0.297265 -0.404347 0
M  V30 47 H -2.551842 2.448918 0.190498 0
M  V30 48 H -4.345428 6.111191 -1.520949 0
M  V30 49 H -3.664310 3.991294 -3.421026 0
M  V30 50 H -5.213604 4.912293 -3.332423 0
M  V30 51 H -3.666602 5.754406 -5.065172 0
M  V30 52 H -3.899666 6.997477 -3.734079 0
M  V30 53 H -1.836424 6.653427 -3.117757 0
M  V30 54 H -5.400956 2.063367 -2.898435 0
M  V30 55 H -4.505211 -0.079696 -3.506980 0
M  V30 56 H 0.572569 0.582351 -1.269960 0
M  V30 57 H 1.389805 2.918695 -0.352827 0
M  V30 58 H 4.140481 2.735248 1.748093 0
M  V30 59 H 2.544734 3.566841 1.907200 0
M  V30 60 H 3.017743 2.239281 3.055789 0
M  V30 END ATOM
M  V30 BEGIN BOND
M  V30 1 1 1 2
M  V30 2 1 2 3
M  V30 3 1 3 4
M  V30 4 2 4 5
M  V30 5 1 4 6
M  V30 6 1 6 7
M  V30 7 1 6 8
M  V30 8 2 8 9
M  V30 9 1 9 10
M  V30 10 2 10 11
M  V30 11 1 11 12
M  V30 12 1 12 13
M  V30 13 2 13 14
M  V30 14 1 14 15
M  V30 15 2 15 16
M  V30 16 1 16 17
M  V30 17 2 17 18
M  V30 18 2 17 19
M  V30 19 1 17 20
M  V30 20 1 20 21
M  V30 21 1 21 22
M  V30 22 1 22 23
M  V30 23 1 16 24
M  V30 24 2 24 25
M  V30 25 1 11 26
M  V30 26 2 26 27
M  V30 27 1 27 28
M  V30 28 1 28 29
M  V30 29 1 29 30
M  V30 30 2 30 31
M  V30 31 1 31 32
M  V30 32 1 32 33
M  V30 33 1 32 34
M  V30 34 1 28 3
M  V30 35 2 34 29
M  V30 36 1 27 8
M  V30 37 1 25 13
M  V30 38 1 1 35
M  V30 39 1 1 36
M  V30 40 1 1 37
M  V30 41 1 2 38
M  V30 42 1 2 39
M  V30 43 1 3 40
M  V30 44 1 7 41
M  V30 45 1 7 42
M  V30 46 1 7 43
M  V30 47 1 9 44
M  V30 48 1 12 45
M  V30 49 1 14 46
M  V30 50 1 15 47
M  V30 51 1 20 48
M  V30 52 1 21 49
M  V30 53 1 21 50
M  V30 54 1 22 51
M  V30 55 1 22 52
M  V30 56 1 23 53
M  V30 57 1 24 54
M  V30 58 1 25 55
M  V30 59 1 30 56
M  V30 60 1 31 57
M  V30 61 1 33 58
M  V30 62 1 33 59
M  V30 63 1 33 60
M  V30 END BOND
M  V30 END CTAB
M  END
>  <Dataset>  (341) 
ChEMBL_Kinases

>  <Ligand_Instance>  (341) 
nan

>  <PDB_ID>  (341) 
nan

>  <Standardized_SMILES>  (341) 
CCC1C(=O)N(C)c2cnc(Nc3ccc(S(=O)(=O)NCCO)cc3)nc2N1c1ccn(C)n1

>  <Name>  (341) 
nan

>  <Pocket>  (341) 
nan

>  <ATP_Site>  (341) 
nan

>  <Peripheral>  (341) 
nan

>  <Num_H_Atoms_ProtBoundConf>  (341) 
nan

>  <Num_Resolved_Atoms>  (341) 
nan

>  <Num_Not_Resolved_Atoms>  (341) 
nan

$$$$
CHEMBL4785555
     RDKit          3D

  0  0  0  0  0  0  0  0  0  0999 V3000
M  V30 BEGIN CTAB
M  V30 COUNTS 43 48 0 0 0
M  V30 BEGIN ATOM
M  V30 1 F 0.831535 -2.811138 3.278433 0
M  V30 2 C 1.867719 -2.542826 2.447668 0
M  V30 3 C 2.642833 -3.563400 1.925811 0
M  V30 4 C 3.709113 -3.316641 1.073140 0
M  V30 5 C 4.032158 -2.023299 0.715304 0
M  V30 6 C 3.278883 -0.981638 1.218398 0
M  V30 7 C 3.438659 0.454899 0.976429 0
M  V30 8 C 4.671124 1.112370 1.006290 0
M  V30 9 C 4.719674 2.485527 0.762307 0
M  V30 10 N 3.626211 3.187620 0.501897 0
M  V30 11 C 2.405957 2.598061 0.461196 0
M  V30 12 N 1.157756 3.090384 0.220303 0
M  V30 13 C 0.305917 2.053199 0.305778 0
M  V30 14 C -1.141397 2.084605 0.124644 0
M  V30 15 N -1.911021 3.140565 -0.160779 0
M  V30 16 N -3.179350 2.793287 -0.251259 0
M  V30 17 C -3.305079 1.462821 -0.024342 0
M  V30 18 N -4.373851 0.621952 -0.000721 0
M  V30 19 C -4.144484 -0.696710 0.267105 0
M  V30 20 C -2.882422 -1.173403 0.506768 0
M  V30 21 C -2.599976 -2.574790 0.796294 0
M  V30 22 C -3.350026 -3.557094 1.449347 0
M  V30 23 N -2.655497 -4.697722 1.464221 0
M  V30 24 N -1.477988 -4.546616 0.859401 0
M  V30 25 C -1.436505 -3.266554 0.452839 0
M  V30 26 C -1.791554 -0.310855 0.481897 0
M  V30 27 C -2.002050 1.028806 0.212513 0
M  V30 28 N 1.031164 0.957430 0.593087 0
M  V30 29 C 2.331817 1.240533 0.699230 0
M  V30 30 C 2.210153 -1.239584 2.073889 0
M  V30 31 H 2.422146 -4.597216 2.182463 0
M  V30 32 H 4.331761 -4.097706 0.650752 0
M  V30 33 H 4.830485 -1.699906 0.065473 0
M  V30 34 H 5.550078 0.521423 1.220546 0
M  V30 35 H 5.706535 2.932381 0.800683 0
M  V30 36 H 0.918386 4.086036 0.010049 0
M  V30 37 H -3.990987 3.426166 -0.464756 0
M  V30 38 H -4.912244 -1.457165 0.312560 0
M  V30 39 H -4.337233 -3.346269 1.854376 0
M  V30 40 H -0.727835 -5.258103 0.718206 0
M  V30 41 H -0.620892 -2.765926 -0.085861 0
M  V30 42 H -0.764328 -0.643423 0.666843 0
M  V30 43 H 1.559624 -0.489461 2.520366 0
M  V30 END ATOM
M  V30 BEGIN BOND
M  V30 1 1 1 2
M  V30 2 2 2 3
M  V30 3 1 3 4
M  V30 4 2 4 5
M  V30 5 1 5 6
M  V30 6 1 6 7
M  V30 7 2 7 8
M  V30 8 1 8 9
M  V30 9 2 9 10
M  V30 10 1 10 11
M  V30 11 1 11 12
M  V30 12 1 12 13
M  V30 13 1 13 14
M  V30 14 2 14 15
M  V30 15 1 15 16
M  V30 16 1 16 17
M  V30 17 2 17 18
M  V30 18 1 18 19
M  V30 19 2 19 20
M  V30 20 1 20 21
M  V30 21 1 21 22
M  V30 22 2 22 23
M  V30 23 1 23 24
M  V30 24 1 24 25
M  V30 25 1 20 26
M  V30 26 2 26 27
M  V30 27 2 13 28
M  V30 28 1 28 29
M  V30 29 2 6 30
M  V30 30 1 30 2
M  V30 31 1 29 7
M  V30 32 2 29 11
M  V30 33 1 27 14
M  V30 34 1 27 17
M  V30 35 2 25 21
M  V30 36 1 3 31
M  V30 37 1 4 32
M  V30 38 1 5 33
M  V30 39 1 8 34
M  V30 40 1 9 35
M  V30 41 1 12 36
M  V30 42 1 16 37
M  V30 43 1 19 38
M  V30 44 1 22 39
M  V30 45 1 24 40
M  V30 46 1 25 41
M  V30 47 1 26 42
M  V30 48 1 30 43
M  V30 END BOND
M  V30 END CTAB
M  END
>  <Dataset>  (342) 
ChEMBL_Kinases

>  <Ligand_Instance>  (342) 
nan

>  <PDB_ID>  (342) 
nan

>  <Standardized_SMILES>  (342) 
Fc1cccc(-c2ccnc3[nH]c(-c4n[nH]c5ncc(-c6cn[nH]c6)cc45)nc23)c1

>  <Name>  (342) 
nan

>  <Pocket>  (342) 
nan

>  <ATP_Site>  (342) 
nan

>  <Peripheral>  (342) 
nan

>  <Num_H_Atoms_ProtBoundConf>  (342) 
nan

>  <Num_Resolved_Atoms>  (342) 
nan

>  <Num_Not_Resolved_Atoms>  (342) 
nan

$$$$
CHEMBL4173620
     RDKit          3D

  0  0  0  0  0  0  0  0  0  0999 V3000
M  V30 BEGIN CTAB
M  V30 COUNTS 69 73 0 0 0
M  V30 BEGIN ATOM
M  V30 1 C 5.008774 0.491553 4.727910 0
M  V30 2 C 3.752992 0.801717 3.945605 0
M  V30 3 C 3.168216 -0.535400 3.535119 0 CFG=2
M  V30 4 C 4.220592 -1.217144 2.697738 0
M  V30 5 O 4.889208 -2.245433 3.026240 0
M  V30 6 N 4.477033 -0.635692 1.414374 0
M  V30 7 C 5.729948 -0.769662 0.738951 0
M  V30 8 C 3.403279 0.108553 0.807071 0
M  V30 9 C 3.524198 0.718870 -0.422687 0
M  V30 10 N 2.534897 1.424699 -1.011542 0
M  V30 11 C 1.357620 1.522185 -0.325888 0
M  V30 12 N 0.168434 2.224991 -0.744880 0
M  V30 13 C -0.796524 1.637880 -1.610782 0
M  V30 14 C -1.981200 2.219920 -2.012273 0
M  V30 15 C -2.804018 1.515515 -2.874010 0
M  V30 16 C -2.480873 0.244870 -3.349180 0
M  V30 17 S -3.571801 -0.544098 -4.430686 0
M  V30 18 O -2.804326 -1.369972 -5.441232 0
M  V30 19 O -4.325482 0.491435 -5.212257 0
M  V30 20 N -4.734413 -1.544653 -3.632958 0
M  V30 21 C -4.105211 -2.610958 -2.902940 0
M  V30 22 C -4.675098 -3.985517 -3.279488 0
M  V30 23 C -4.329007 -4.863013 -2.092260 0
M  V30 24 C -4.211002 -3.932558 -0.890010 0
M  V30 25 C -4.548677 -2.544932 -1.446440 0
M  V30 26 C -1.318259 -0.362065 -2.973345 0
M  V30 27 C -0.511371 0.375269 -2.103733 0
M  V30 28 N 1.228432 0.931159 0.873766 0
M  V30 29 C 2.203784 0.224746 1.475218 0
M  V30 30 N 1.950675 -0.357444 2.759111 0
M  V30 31 C 0.671583 -0.713573 3.230490 0
M  V30 32 C 0.250833 0.061664 4.477944 0
M  V30 33 C -1.239494 0.278306 4.320692 0
M  V30 34 C -1.339322 0.509778 2.805839 0
M  V30 35 C -0.494246 -0.689850 2.344820 0
M  V30 36 H 5.255820 1.384501 5.331897 0
M  V30 37 H 5.830217 0.361543 3.991214 0
M  V30 38 H 4.843094 -0.428771 5.332296 0
M  V30 39 H 3.059444 1.447276 4.487797 0
M  V30 40 H 4.062836 1.369294 3.045028 0
M  V30 41 H 2.926949 -1.187205 4.387306 0
M  V30 42 H 5.728474 -1.475382 -0.102384 0
M  V30 43 H 5.994166 0.247655 0.326057 0
M  V30 44 H 6.540582 -0.986284 1.472196 0
M  V30 45 H 4.460786 0.633821 -0.955702 0
M  V30 46 H -0.030182 3.194554 -0.426975 0
M  V30 47 H -2.196849 3.196213 -1.627619 0
M  V30 48 H -3.740183 1.983283 -3.187283 0
M  V30 49 H -5.315244 -1.967100 -4.390106 0
M  V30 50 H -3.014982 -2.602070 -2.976908 0
M  V30 51 H -5.775731 -3.862032 -3.255075 0
M  V30 52 H -4.262914 -4.341637 -4.228617 0
M  V30 53 H -5.074688 -5.645807 -1.913060 0
M  V30 54 H -3.355648 -5.389680 -2.244849 0
M  V30 55 H -3.161712 -3.871306 -0.545915 0
M  V30 56 H -4.894895 -4.248192 -0.098788 0
M  V30 57 H -4.019252 -1.741461 -0.910087 0
M  V30 58 H -5.632226 -2.368441 -1.411254 0
M  V30 59 H -1.003202 -1.341244 -3.299462 0
M  V30 60 H 0.418101 -0.116087 -1.806162 0
M  V30 61 H 0.763099 -1.776023 3.618676 0
M  V30 62 H 0.429281 -0.484094 5.412322 0
M  V30 63 H 0.694861 1.082196 4.475619 0
M  V30 64 H -1.851953 -0.572978 4.621884 0
M  V30 65 H -1.524271 1.226292 4.843376 0
M  V30 66 H -2.373562 0.440148 2.444007 0
M  V30 67 H -0.872622 1.470768 2.625830 0
M  V30 68 H -0.364398 -0.749747 1.273010 0
M  V30 69 H -1.204532 -1.548927 2.571755 0
M  V30 END ATOM
M  V30 BEGIN BOND
M  V30 1 1 1 2
M  V30 2 1 2 3
M  V30 3 1 3 4
M  V30 4 2 4 5
M  V30 5 1 4 6
M  V30 6 1 6 7
M  V30 7 1 6 8
M  V30 8 2 8 9
M  V30 9 1 9 10
M  V30 10 2 10 11
M  V30 11 1 11 12
M  V30 12 1 12 13
M  V30 13 2 13 14
M  V30 14 1 14 15
M  V30 15 2 15 16
M  V30 16 1 16 17
M  V30 17 2 17 18
M  V30 18 2 17 19
M  V30 19 1 17 20
M  V30 20 1 20 21
M  V30 21 1 21 22
M  V30 22 1 22 23
M  V30 23 1 23 24
M  V30 24 1 24 25
M  V30 25 1 16 26
M  V30 26 2 26 27
M  V30 27 1 11 28
M  V30 28 2 28 29
M  V30 29 1 29 30
M  V30 30 1 30 31
M  V30 31 1 31 32
M  V30 32 1 32 33
M  V30 33 1 33 34
M  V30 34 1 34 35
M  V30 35 1 30 3
M  V30 36 1 35 31
M  V30 37 1 29 8
M  V30 38 1 27 13
M  V30 39 1 25 21
M  V30 40 1 1 36
M  V30 41 1 1 37
M  V30 42 1 1 38
M  V30 43 1 2 39
M  V30 44 1 2 40
M  V30 45 1 3 41 CFG=1
M  V30 46 1 7 42
M  V30 47 1 7 43
M  V30 48 1 7 44
M  V30 49 1 9 45
M  V30 50 1 12 46
M  V30 51 1 14 47
M  V30 52 1 15 48
M  V30 53 1 20 49
M  V30 54 1 21 50
M  V30 55 1 22 51
M  V30 56 1 22 52
M  V30 57 1 23 53
M  V30 58 1 23 54
M  V30 59 1 24 55
M  V30 60 1 24 56
M  V30 61 1 25 57
M  V30 62 1 25 58
M  V30 63 1 26 59
M  V30 64 1 27 60
M  V30 65 1 31 61
M  V30 66 1 32 62
M  V30 67 1 32 63
M  V30 68 1 33 64
M  V30 69 1 33 65
M  V30 70 1 34 66
M  V30 71 1 34 67
M  V30 72 1 35 68
M  V30 73 1 35 69
M  V30 END BOND
M  V30 END CTAB
M  END
>  <Dataset>  (343) 
ChEMBL_Kinases

>  <Ligand_Instance>  (343) 
nan

>  <PDB_ID>  (343) 
nan

>  <Standardized_SMILES>  (343) 
CC[C@@H]1C(=O)N(C)c2cnc(Nc3ccc(S(=O)(=O)NC4CCCC4)cc3)nc2N1C1CCCC1

>  <Name>  (343) 
nan

>  <Pocket>  (343) 
nan

>  <ATP_Site>  (343) 
nan

>  <Peripheral>  (343) 
nan

>  <Num_H_Atoms_ProtBoundConf>  (343) 
nan

>  <Num_Resolved_Atoms>  (343) 
nan

>  <Num_Not_Resolved_Atoms>  (343) 
nan

$$$$
CHEMBL4785547
     RDKit          3D

  0  0  0  0  0  0  0  0  0  0999 V3000
M  V30 BEGIN CTAB
M  V30 COUNTS 58 62 0 0 0
M  V30 BEGIN ATOM
M  V30 1 C 5.962030 -0.249982 4.053985 0
M  V30 2 C 4.715351 -0.505148 3.204961 0
M  V30 3 C 4.165067 0.832999 2.798362 0
M  V30 4 C 3.872294 0.812039 1.320200 0
M  V30 5 N 3.101710 -0.381559 1.027170 0
M  V30 6 C 2.523392 -0.354687 -0.299377 0
M  V30 7 C 1.600443 0.789787 -0.511833 0
M  V30 8 C 2.062111 2.005532 -0.999729 0
M  V30 9 N 1.320415 3.105451 -1.230600 0
M  V30 10 C -0.011803 3.060023 -0.973718 0
M  V30 11 C -0.536616 1.874725 -0.484438 0
M  V30 12 C -1.975209 1.759802 -0.184045 0
M  V30 13 C -2.720750 2.860159 0.262660 0
M  V30 14 C -4.064361 2.722085 0.536321 0
M  V30 15 C -4.669506 1.496778 0.368221 0
M  V30 16 N -5.887884 0.952416 0.512214 0
M  V30 17 N -5.921985 -0.335140 0.197975 0
M  V30 18 C -4.688648 -0.716293 -0.181175 0
M  V30 19 C -4.511807 -2.096930 -0.566707 0
M  V30 20 O -5.536140 -2.866659 -0.511010 0
M  V30 21 N -3.480595 -2.910295 -1.017311 0
M  V30 22 C -3.691166 -4.274953 -1.304370 0
M  V30 23 C -3.497312 -5.164242 -0.259482 0
M  V30 24 C -3.690421 -6.528926 -0.479506 0
M  V30 25 C -4.073508 -6.944669 -1.752068 0
M  V30 26 N -4.259098 -6.060061 -2.764574 0
M  V30 27 C -4.072050 -4.741486 -2.549710 0
M  V30 28 C -3.929352 0.421120 -0.071113 0
M  V30 29 C -2.590087 0.538313 -0.349084 0
M  V30 30 C 0.241038 0.737948 -0.247851 0
M  V30 31 C 4.008576 -1.531635 1.041446 0
M  V30 32 C 5.181841 -1.236621 1.972865 0
M  V30 33 H 6.875637 -0.152384 3.434313 0
M  V30 34 H 6.097053 -1.056433 4.794921 0
M  V30 35 H 5.870079 0.689825 4.625943 0
M  V30 36 H 3.972383 -1.099354 3.783767 0
M  V30 37 H 3.217525 1.044657 3.352081 0
M  V30 38 H 4.921770 1.632835 2.985849 0
M  V30 39 H 4.775905 0.802420 0.704012 0
M  V30 40 H 3.298142 1.738812 1.114012 0
M  V30 41 H 2.054459 -1.326402 -0.494031 0
M  V30 42 H 3.373843 -0.226263 -1.014631 0
M  V30 43 H 3.105404 2.154562 -1.238940 0
M  V30 44 H -0.712430 3.878372 -1.118460 0
M  V30 45 H -2.225852 3.824997 0.391089 0
M  V30 46 H -4.680065 3.537822 0.881195 0
M  V30 47 H -6.728963 1.486123 0.839081 0
M  V30 48 H -2.579073 -2.400663 -1.109465 0
M  V30 49 H -3.195657 -4.888420 0.760203 0
M  V30 50 H -3.551766 -7.270385 0.306392 0
M  V30 51 H -4.227210 -8.009531 -1.935579 0
M  V30 52 H -4.196839 -3.986141 -3.289925 0
M  V30 53 H -2.006427 -0.272051 -0.686496 0
M  V30 54 H -0.141101 -0.185197 0.128983 0
M  V30 55 H 4.427546 -1.662770 0.034744 0
M  V30 56 H 3.514962 -2.457758 1.355942 0
M  V30 57 H 5.966815 -0.682311 1.425753 0
M  V30 58 H 5.572495 -2.222103 2.297835 0
M  V30 END ATOM
M  V30 BEGIN BOND
M  V30 1 1 1 2
M  V30 2 1 2 3
M  V30 3 1 3 4
M  V30 4 1 4 5
M  V30 5 1 5 6
M  V30 6 1 6 7
M  V30 7 2 7 8
M  V30 8 1 8 9
M  V30 9 2 9 10
M  V30 10 1 10 11
M  V30 11 1 11 12
M  V30 12 2 12 13
M  V30 13 1 13 14
M  V30 14 2 14 15
M  V30 15 1 15 16
M  V30 16 1 16 17
M  V30 17 2 17 18
M  V30 18 1 18 19
M  V30 19 2 19 20
M  V30 20 1 19 21
M  V30 21 1 21 22
M  V30 22 2 22 23
M  V30 23 1 23 24
M  V30 24 2 24 25
M  V30 25 1 25 26
M  V30 26 2 26 27
M  V30 27 1 18 28
M  V30 28 2 28 29
M  V30 29 2 11 30
M  V30 30 1 5 31
M  V30 31 1 31 32
M  V30 32 1 32 2
M  V30 33 1 30 7
M  V30 34 1 29 12
M  V30 35 1 28 15
M  V30 36 1 27 22
M  V30 37 1 1 33
M  V30 38 1 1 34
M  V30 39 1 1 35
M  V30 40 1 2 36
M  V30 41 1 3 37
M  V30 42 1 3 38
M  V30 43 1 4 39
M  V30 44 1 4 40
M  V30 45 1 6 41
M  V30 46 1 6 42
M  V30 47 1 8 43
M  V30 48 1 10 44
M  V30 49 1 13 45
M  V30 50 1 14 46
M  V30 51 1 16 47
M  V30 52 1 21 48
M  V30 53 1 23 49
M  V30 54 1 24 50
M  V30 55 1 25 51
M  V30 56 1 27 52
M  V30 57 1 29 53
M  V30 58 1 30 54
M  V30 59 1 31 55
M  V30 60 1 31 56
M  V30 61 1 32 57
M  V30 62 1 32 58
M  V30 END BOND
M  V30 END CTAB
M  END
>  <Dataset>  (344) 
ChEMBL_Kinases

>  <Ligand_Instance>  (344) 
nan

>  <PDB_ID>  (344) 
nan

>  <Standardized_SMILES>  (344) 
CC1CCN(Cc2cncc(-c3ccc4[nH]nc(C(=O)Nc5cccnc5)c4c3)c2)CC1

>  <Name>  (344) 
nan

>  <Pocket>  (344) 
nan

>  <ATP_Site>  (344) 
nan

>  <Peripheral>  (344) 
nan

>  <Num_H_Atoms_ProtBoundConf>  (344) 
nan

>  <Num_Resolved_Atoms>  (344) 
nan

>  <Num_Not_Resolved_Atoms>  (344) 
nan

$$$$
CHEMBL4785525
     RDKit          3D

  0  0  0  0  0  0  0  0  0  0999 V3000
M  V30 BEGIN CTAB
M  V30 COUNTS 63 67 0 0 0
M  V30 BEGIN ATOM
M  V30 1 O 2.988558 -4.643367 3.633498 0
M  V30 2 C 2.263023 -4.018725 2.794127 0
M  V30 3 N 2.180558 -2.606761 2.894350 0
M  V30 4 C 2.842503 -1.815812 3.859045 0
M  V30 5 C 3.674742 -2.190101 4.874572 0
M  V30 6 N 4.091093 -1.119428 5.563876 0
M  V30 7 N 3.530072 -0.061190 4.995354 0
M  V30 8 C 2.766390 -0.445074 3.958639 0
M  V30 9 C 2.015104 0.486274 3.126674 0
M  V30 10 O 1.298636 0.142186 2.154892 0
M  V30 11 N 2.024598 1.874030 3.339746 0
M  V30 12 C 1.193244 2.540145 2.366084 0
M  V30 13 C -0.143560 2.700187 2.743628 0
M  V30 14 C -1.033408 3.334341 1.868698 0
M  V30 15 C -0.505125 3.763396 0.668656 0
M  V30 16 N -1.391907 4.400106 -0.213658 0
M  V30 17 C -2.787234 4.700031 -0.085575 0
M  V30 18 C -3.439130 4.084803 -1.309858 0
M  V30 19 C -2.364199 4.306125 -2.360697 0
M  V30 20 F -1.885811 3.112678 -2.849652 0
M  V30 21 F -2.800257 5.088841 -3.406049 0
M  V30 22 C -1.291756 4.986489 -1.538537 0
M  V30 23 N 0.786075 3.596477 0.330295 0
M  V30 24 C 1.677072 2.992476 1.140236 0
M  V30 25 C 1.592217 -4.838602 1.814072 0
M  V30 26 C 1.769106 -6.204164 1.837140 0
M  V30 27 N 1.158773 -7.019643 0.934965 0
M  V30 28 C 0.366286 -6.458929 0.004484 0
M  V30 29 C 0.135876 -5.088862 -0.086413 0
M  V30 30 O -0.699203 -4.718752 -1.099972 0
M  V30 31 C -1.119565 -3.434801 -1.445251 0
M  V30 32 C -2.600948 -3.316689 -1.272499 0
M  V30 33 C -3.417818 -3.688188 -2.463118 0
M  V30 34 N -2.816961 -3.328629 -3.729892 0
M  V30 35 C -1.451128 -3.800630 -3.835790 0
M  V30 36 C -0.646567 -3.017775 -2.821908 0
M  V30 37 C 0.773641 -4.300936 0.846881 0
M  V30 38 H 1.571517 -2.173115 2.175997 0
M  V30 39 H 3.988525 -3.171639 5.136238 0
M  V30 40 H 4.735901 -1.102967 6.394750 0
M  V30 41 H 2.590064 2.299773 4.129418 0
M  V30 42 H -0.497414 2.336896 3.709471 0
M  V30 43 H -2.040081 3.428174 2.209716 0
M  V30 44 H -3.257641 4.337287 0.850431 0
M  V30 45 H -2.963233 5.805759 -0.107337 0
M  V30 46 H -4.374345 4.614908 -1.527793 0
M  V30 47 H -3.566257 2.997079 -1.134387 0
M  V30 48 H -1.480914 6.083776 -1.512683 0
M  V30 49 H -0.315399 4.714986 -1.956113 0
M  V30 50 H 2.715048 2.827539 0.933819 0
M  V30 51 H 2.403999 -6.700865 2.575692 0
M  V30 52 H -0.081932 -7.183138 -0.676891 0
M  V30 53 H -0.664095 -2.700738 -0.736176 0
M  V30 54 H -2.883994 -4.047529 -0.459198 0
M  V30 55 H -2.893743 -2.328779 -0.848010 0
M  V30 56 H -3.768090 -4.738669 -2.478618 0
M  V30 57 H -4.372739 -3.087904 -2.391766 0
M  V30 58 H -2.884505 -2.316073 -3.935314 0
M  V30 59 H -1.408055 -4.877152 -3.669589 0
M  V30 60 H -1.113363 -3.499704 -4.854313 0
M  V30 61 H 0.433988 -3.244441 -2.875516 0
M  V30 62 H -0.848628 -1.949349 -2.927707 0
M  V30 63 H 0.586933 -3.248209 0.765131 0
M  V30 END ATOM
M  V30 BEGIN BOND
M  V30 1 2 1 2
M  V30 2 1 2 3
M  V30 3 1 3 4
M  V30 4 2 4 5
M  V30 5 1 5 6
M  V30 6 1 6 7
M  V30 7 2 7 8
M  V30 8 1 8 9
M  V30 9 2 9 10
M  V30 10 1 9 11
M  V30 11 1 11 12
M  V30 12 2 12 13
M  V30 13 1 13 14
M  V30 14 2 14 15
M  V30 15 1 15 16
M  V30 16 1 16 17
M  V30 17 1 17 18
M  V30 18 1 18 19
M  V30 19 1 19 20
M  V30 20 1 19 21
M  V30 21 1 19 22
M  V30 22 1 15 23
M  V30 23 2 23 24
M  V30 24 1 2 25
M  V30 25 2 25 26
M  V30 26 1 26 27
M  V30 27 2 27 28
M  V30 28 1 28 29
M  V30 29 1 29 30
M  V30 30 1 30 31
M  V30 31 1 31 32
M  V30 32 1 32 33
M  V30 33 1 33 34
M  V30 34 1 34 35
M  V30 35 1 35 36
M  V30 36 2 29 37
M  V30 37 1 8 4
M  V30 38 1 24 12
M  V30 39 1 37 25
M  V30 40 1 22 16
M  V30 41 1 36 31
M  V30 42 1 3 38
M  V30 43 1 5 39
M  V30 44 1 6 40
M  V30 45 1 11 41
M  V30 46 1 13 42
M  V30 47 1 14 43
M  V30 48 1 17 44
M  V30 49 1 17 45
M  V30 50 1 18 46
M  V30 51 1 18 47
M  V30 52 1 22 48
M  V30 53 1 22 49
M  V30 54 1 24 50
M  V30 55 1 26 51
M  V30 56 1 28 52
M  V30 57 1 31 53
M  V30 58 1 32 54
M  V30 59 1 32 55
M  V30 60 1 33 56
M  V30 61 1 33 57
M  V30 62 1 34 58
M  V30 63 1 35 59
M  V30 64 1 35 60
M  V30 65 1 36 61
M  V30 66 1 36 62
M  V30 67 1 37 63
M  V30 END BOND
M  V30 END CTAB
M  END
>  <Dataset>  (345) 
ChEMBL_Kinases

>  <Ligand_Instance>  (345) 
nan

>  <PDB_ID>  (345) 
nan

>  <Standardized_SMILES>  (345) 
O=C(Nc1c[nH]nc1C(=O)Nc1ccc(N2CCC(F)(F)C2)nc1)c1cncc(OC2CCNCC2)c1

>  <Name>  (345) 
nan

>  <Pocket>  (345) 
nan

>  <ATP_Site>  (345) 
nan

>  <Peripheral>  (345) 
nan

>  <Num_H_Atoms_ProtBoundConf>  (345) 
nan

>  <Num_Resolved_Atoms>  (345) 
nan

>  <Num_Not_Resolved_Atoms>  (345) 
nan

$$$$
CHEMBL4784533
     RDKit          3D

  0  0  0  0  0  0  0  0  0  0999 V3000
M  V30 BEGIN CTAB
M  V30 COUNTS 44 49 0 0 0
M  V30 BEGIN ATOM
M  V30 1 C -2.791967 3.848828 0.610038 0
M  V30 2 C -3.283166 2.831856 1.426278 0
M  V30 3 N -2.558026 1.699305 1.516727 0
M  V30 4 C -1.383189 1.523928 0.847055 0
M  V30 5 C -0.869665 2.509877 0.031709 0
M  V30 6 C 0.391495 2.248198 -0.651003 0
M  V30 7 C 1.007138 3.151004 -1.491152 0
M  V30 8 C 2.207059 2.814545 -2.097653 0
M  V30 9 C 2.815357 1.577559 -1.880578 0
M  V30 10 N 3.932959 0.941863 -2.286915 0
M  V30 11 N 3.976545 -0.264156 -1.721733 0
M  V30 12 C 2.896986 -0.439661 -0.940859 0
M  V30 13 C 2.583812 -1.629100 -0.154258 0
M  V30 14 N 1.498459 -1.791250 0.623774 0
M  V30 15 C 1.542321 -3.026566 1.203245 0
M  V30 16 C 0.682032 -3.667303 2.071919 0
M  V30 17 C -0.550326 -3.005100 2.539002 0
M  V30 18 C -1.822294 -3.534209 2.630681 0
M  V30 19 C -2.822710 -2.689466 3.108746 0
M  V30 20 C -2.531097 -1.390427 3.466913 0
M  V30 21 N -1.291729 -0.901478 3.369017 0
M  V30 22 C -0.286198 -1.684197 2.909867 0
M  V30 23 C 1.020573 -4.959048 2.489581 0
M  V30 24 N 2.154389 -5.500071 2.026293 0
M  V30 25 C 2.993042 -4.879549 1.181480 0
M  V30 26 C 2.713624 -3.594795 0.729216 0
M  V30 27 N 3.348540 -2.734647 -0.102394 0
M  V30 28 C 2.151131 0.718266 -1.030576 0
M  V30 29 N 0.970549 1.054365 -0.436346 0
M  V30 30 C -1.596553 3.674051 -0.073172 0
M  V30 31 H -3.337773 4.778935 0.503768 0
M  V30 32 H -4.211493 2.934287 1.973225 0
M  V30 33 H -0.889267 0.573959 0.996456 0
M  V30 34 H 0.546990 4.113139 -1.668348 0
M  V30 35 H 2.723394 3.499365 -2.766680 0
M  V30 36 H 4.553420 1.464929 -2.943396 0
M  V30 37 H -1.885700 -4.555067 2.315072 0
M  V30 38 H -3.801096 -3.160455 3.158658 0
M  V30 39 H -3.336675 -0.794764 3.824663 0
M  V30 40 H 0.662129 -1.184393 2.875419 0
M  V30 41 H 0.347258 -5.465482 3.171883 0
M  V30 42 H 3.896454 -5.327150 0.820465 0
M  V30 43 H 4.244741 -2.909859 -0.592775 0
M  V30 44 H -1.213586 4.459115 -0.705725 0
M  V30 END ATOM
M  V30 BEGIN BOND
M  V30 1 2 1 2
M  V30 2 1 2 3
M  V30 3 2 3 4
M  V30 4 1 4 5
M  V30 5 1 5 6
M  V30 6 2 6 7
M  V30 7 1 7 8
M  V30 8 2 8 9
M  V30 9 1 9 10
M  V30 10 1 10 11
M  V30 11 2 11 12
M  V30 12 1 12 13
M  V30 13 2 13 14
M  V30 14 1 14 15
M  V30 15 2 15 16
M  V30 16 1 16 17
M  V30 17 2 17 18
M  V30 18 1 18 19
M  V30 19 2 19 20
M  V30 20 1 20 21
M  V30 21 2 21 22
M  V30 22 1 16 23
M  V30 23 2 23 24
M  V30 24 1 24 25
M  V30 25 2 25 26
M  V30 26 1 26 27
M  V30 27 1 12 28
M  V30 28 2 28 29
M  V30 29 2 5 30
M  V30 30 1 30 1
M  V30 31 1 29 6
M  V30 32 1 28 9
M  V30 33 1 27 13
M  V30 34 1 26 15
M  V30 35 1 22 17
M  V30 36 1 1 31
M  V30 37 1 2 32
M  V30 38 1 4 33
M  V30 39 1 7 34
M  V30 40 1 8 35
M  V30 41 1 10 36
M  V30 42 1 18 37
M  V30 43 1 19 38
M  V30 44 1 20 39
M  V30 45 1 22 40
M  V30 46 1 23 41
M  V30 47 1 25 42
M  V30 48 1 27 43
M  V30 49 1 30 44
M  V30 END BOND
M  V30 END CTAB
M  END
>  <Dataset>  (346) 
ChEMBL_Kinases

>  <Ligand_Instance>  (346) 
nan

>  <PDB_ID>  (346) 
nan

>  <Standardized_SMILES>  (346) 
c1cncc(-c2ccc3[nH]nc(-c4nc5c(-c6cccnc6)cncc5[nH]4)c3n2)c1

>  <Name>  (346) 
nan

>  <Pocket>  (346) 
nan

>  <ATP_Site>  (346) 
nan

>  <Peripheral>  (346) 
nan

>  <Num_H_Atoms_ProtBoundConf>  (346) 
nan

>  <Num_Resolved_Atoms>  (346) 
nan

>  <Num_Not_Resolved_Atoms>  (346) 
nan

$$$$
CHEMBL4785348
     RDKit          3D

  0  0  0  0  0  0  0  0  0  0999 V3000
M  V30 BEGIN CTAB
M  V30 COUNTS 55 58 0 0 0
M  V30 BEGIN ATOM
M  V30 1 C 3.036434 1.049521 6.686244 0
M  V30 2 C 4.096388 0.729564 5.654349 0
M  V30 3 C 4.430849 -0.749734 5.861046 0
M  V30 4 N 3.538602 0.888343 4.331050 0
M  V30 5 C 4.041203 1.745586 3.344154 0
M  V30 6 O 5.053637 2.322394 3.864074 0
M  V30 7 C 3.686215 2.080034 1.990925 0
M  V30 8 N 4.456886 2.991280 1.369106 0
M  V30 9 N 4.007739 3.190669 0.137995 0
M  V30 10 C 2.930187 2.441441 -0.137887 0
M  V30 11 C 2.049144 2.197499 -1.170169 0
M  V30 12 C 1.010856 1.296671 -1.047853 0
M  V30 13 C 0.854855 0.616390 0.160239 0
M  V30 14 C -0.267563 -0.330456 0.232460 0
M  V30 15 C -0.915559 -0.562341 1.437993 0
M  V30 16 N -1.945306 -1.438947 1.480070 0
M  V30 17 C -2.353261 -2.089935 0.376396 0
M  V30 18 C -1.767802 -1.920445 -0.860689 0
M  V30 19 C -2.167724 -2.606278 -2.115767 0
M  V30 20 N -3.151707 -1.925274 -2.875688 0
M  V30 21 C -4.408587 -1.704695 -2.243804 0
M  V30 22 C -5.247221 -2.902625 -1.986722 0
M  V30 23 C -5.257527 -3.950677 -3.039418 0
M  V30 24 F -5.367609 -5.184338 -2.381211 0
M  V30 25 F -6.361332 -3.831709 -3.872711 0
M  V30 26 C -3.995090 -4.033505 -3.848841 0
M  V30 27 C -3.391598 -2.663137 -4.099327 0
M  V30 28 C -0.705587 -1.011497 -0.886363 0
M  V30 29 C 1.726762 0.848389 1.202113 0
M  V30 30 C 2.746957 1.751736 1.041739 0
M  V30 31 H 2.486090 0.134850 7.008468 0
M  V30 32 H 2.299525 1.722199 6.201646 0
M  V30 33 H 3.469994 1.616437 7.545704 0
M  V30 34 H 4.967649 1.358770 5.841609 0
M  V30 35 H 5.031881 -0.887784 6.769625 0
M  V30 36 H 3.527369 -1.367320 5.877322 0
M  V30 37 H 5.064471 -1.089123 4.998477 0
M  V30 38 H 2.703986 0.354343 4.034268 0
M  V30 39 H 4.428808 3.849156 -0.551500 0
M  V30 40 H 2.263211 2.787354 -2.076655 0
M  V30 41 H 0.374627 1.179624 -1.922990 0
M  V30 42 H -0.600563 -0.044602 2.344682 0
M  V30 43 H -3.178344 -2.786299 0.433699 0
M  V30 44 H -2.463703 -3.639654 -1.807364 0
M  V30 45 H -1.226334 -2.751670 -2.684448 0
M  V30 46 H -4.989857 -1.025135 -2.933240 0
M  V30 47 H -4.345902 -1.134871 -1.295010 0
M  V30 48 H -6.311718 -2.531263 -1.904260 0
M  V30 49 H -5.046866 -3.313944 -0.967858 0
M  V30 50 H -3.263710 -4.759770 -3.435307 0
M  V30 51 H -4.278109 -4.420286 -4.854059 0
M  V30 52 H -2.493912 -2.786370 -4.728469 0
M  V30 53 H -4.186372 -2.097753 -4.648750 0
M  V30 54 H -0.223873 -0.858654 -1.852781 0
M  V30 55 H 1.573492 0.306900 2.110934 0
M  V30 END ATOM
M  V30 BEGIN BOND
M  V30 1 1 1 2
M  V30 2 1 2 3
M  V30 3 1 2 4
M  V30 4 1 4 5
M  V30 5 2 5 6
M  V30 6 1 5 7
M  V30 7 2 7 8
M  V30 8 1 8 9
M  V30 9 1 9 10
M  V30 10 2 10 11
M  V30 11 1 11 12
M  V30 12 2 12 13
M  V30 13 1 13 14
M  V30 14 2 14 15
M  V30 15 1 15 16
M  V30 16 2 16 17
M  V30 17 1 17 18
M  V30 18 1 18 19
M  V30 19 1 19 20
M  V30 20 1 20 21
M  V30 21 1 21 22
M  V30 22 1 22 23
M  V30 23 1 23 24
M  V30 24 1 23 25
M  V30 25 1 23 26
M  V30 26 1 26 27
M  V30 27 2 18 28
M  V30 28 1 13 29
M  V30 29 2 29 30
M  V30 30 1 30 7
M  V30 31 1 30 10
M  V30 32 1 28 14
M  V30 33 1 27 20
M  V30 34 1 1 31
M  V30 35 1 1 32
M  V30 36 1 1 33
M  V30 37 1 2 34
M  V30 38 1 3 35
M  V30 39 1 3 36
M  V30 40 1 3 37
M  V30 41 1 4 38
M  V30 42 1 9 39
M  V30 43 1 11 40
M  V30 44 1 12 41
M  V30 45 1 15 42
M  V30 46 1 17 43
M  V30 47 1 19 44
M  V30 48 1 19 45
M  V30 49 1 21 46
M  V30 50 1 21 47
M  V30 51 1 22 48
M  V30 52 1 22 49
M  V30 53 1 26 50
M  V30 54 1 26 51
M  V30 55 1 27 52
M  V30 56 1 27 53
M  V30 57 1 28 54
M  V30 58 1 29 55
M  V30 END BOND
M  V30 END CTAB
M  END
>  <Dataset>  (347) 
ChEMBL_Kinases

>  <Ligand_Instance>  (347) 
nan

>  <PDB_ID>  (347) 
nan

>  <Standardized_SMILES>  (347) 
CC(C)NC(=O)c1n[nH]c2ccc(-c3cncc(CN4CCC(F)(F)CC4)c3)cc12

>  <Name>  (347) 
nan

>  <Pocket>  (347) 
nan

>  <ATP_Site>  (347) 
nan

>  <Peripheral>  (347) 
nan

>  <Num_H_Atoms_ProtBoundConf>  (347) 
nan

>  <Num_Resolved_Atoms>  (347) 
nan

>  <Num_Not_Resolved_Atoms>  (347) 
nan

$$$$
CHEMBL4174667
     RDKit          3D

  0  0  0  0  0  0  0  0  0  0999 V3000
M  V30 BEGIN CTAB
M  V30 COUNTS 66 70 0 0 0
M  V30 BEGIN ATOM
M  V30 1 C 5.107610 2.058257 4.533514 0
M  V30 2 C 3.594231 2.328646 4.454529 0
M  V30 3 C 3.135762 1.727229 3.177574 0 CFG=2
M  V30 4 C 3.859716 2.352730 2.005917 0
M  V30 5 O 4.727247 3.291177 2.013189 0
M  V30 6 N 3.540720 1.832834 0.698231 0
M  V30 7 C 4.485149 1.822554 -0.415939 0
M  V30 8 C 2.235898 1.306816 0.487750 0
M  V30 9 C 1.805726 0.776512 -0.707608 0
M  V30 10 N 0.547097 0.307143 -0.774306 0
M  V30 11 C -0.312039 0.332174 0.275493 0
M  V30 12 N -1.603755 -0.210061 0.015806 0
M  V30 13 C -2.803012 0.198659 0.467940 0
M  V30 14 C -3.833836 -0.585611 -0.007396 0
M  V30 15 C -3.212546 -1.531415 -0.800136 0
M  V30 16 C -3.721354 -2.599552 -1.553957 0
M  V30 17 C -2.880409 -3.419760 -2.277976 0
M  V30 18 C -3.471012 -4.511756 -3.041865 0
M  V30 19 O -4.722814 -4.625839 -2.979953 0
M  V30 20 N -2.679778 -5.403758 -3.817676 0
M  V30 21 C -3.335620 -6.485326 -4.566613 0
M  V30 22 C -3.034203 -6.253329 -6.031937 0
M  V30 23 C -2.756162 -7.832070 -4.188799 0
M  V30 24 C -1.529132 -3.145232 -2.227979 0
M  V30 25 C -0.987320 -2.105974 -1.500043 0
M  V30 26 C -1.855427 -1.285805 -0.772986 0
M  V30 27 N 0.112390 0.848682 1.433147 0
M  V30 28 C 1.375474 1.347464 1.586908 0
M  V30 29 N 1.724927 1.878485 2.884495 0
M  V30 30 C 0.816181 2.484512 3.813373 0
M  V30 31 C 0.517509 1.692921 5.038611 0
M  V30 32 C -0.964523 1.748848 5.194033 0
M  V30 33 C -1.568415 2.199332 3.909701 0
M  V30 34 C -0.473833 2.996936 3.234805 0
M  V30 35 H 5.701555 2.926344 4.211602 0
M  V30 36 H 5.355907 1.127088 3.963696 0
M  V30 37 H 5.418540 1.842662 5.593244 0
M  V30 38 H 3.180955 1.738949 5.300223 0
M  V30 39 H 3.368285 3.399857 4.476114 0
M  V30 40 H 3.437854 0.665407 3.184458 0
M  V30 41 H 3.911603 2.230670 -1.294497 0
M  V30 42 H 4.692637 0.746512 -0.633631 0
M  V30 43 H 5.390249 2.392371 -0.212258 0
M  V30 44 H 2.491940 0.757313 -1.543257 0
M  V30 45 H -2.985415 1.035640 1.125796 0
M  V30 46 H -4.891501 -0.482357 0.195681 0
M  V30 47 H -4.810093 -2.718354 -1.516101 0
M  V30 48 H -1.644177 -5.309645 -3.868810 0
M  V30 49 H -4.430787 -6.436359 -4.399012 0
M  V30 50 H -2.148156 -5.600913 -6.138586 0
M  V30 51 H -3.868788 -5.689011 -6.528644 0
M  V30 52 H -2.840240 -7.217877 -6.526453 0
M  V30 53 H -1.887026 -8.095375 -4.838284 0
M  V30 54 H -3.546993 -8.603017 -4.380215 0
M  V30 55 H -2.521210 -7.911829 -3.117755 0
M  V30 56 H -0.852099 -3.775926 -2.788130 0
M  V30 57 H 0.096673 -1.958708 -1.515563 0
M  V30 58 H 1.312753 3.445822 4.222370 0
M  V30 59 H 0.963593 2.126887 5.982114 0
M  V30 60 H 0.916533 0.657363 5.009310 0
M  V30 61 H -1.411963 0.761399 5.448304 0
M  V30 62 H -1.237850 2.495720 5.989830 0
M  V30 63 H -2.426174 2.899591 4.116100 0
M  V30 64 H -1.899360 1.402942 3.230313 0
M  V30 65 H -0.647695 4.097910 3.463345 0
M  V30 66 H -0.473218 2.938199 2.146085 0
M  V30 END ATOM
M  V30 BEGIN BOND
M  V30 1 1 1 2
M  V30 2 1 2 3
M  V30 3 1 3 4
M  V30 4 2 4 5
M  V30 5 1 4 6
M  V30 6 1 6 7
M  V30 7 1 6 8
M  V30 8 2 8 9
M  V30 9 1 9 10
M  V30 10 2 10 11
M  V30 11 1 11 12
M  V30 12 1 12 13
M  V30 13 2 13 14
M  V30 14 1 14 15
M  V30 15 2 15 16
M  V30 16 1 16 17
M  V30 17 1 17 18
M  V30 18 2 18 19
M  V30 19 1 18 20
M  V30 20 1 20 21
M  V30 21 1 21 22
M  V30 22 1 21 23
M  V30 23 2 17 24
M  V30 24 1 24 25
M  V30 25 2 25 26
M  V30 26 1 11 27
M  V30 27 2 27 28
M  V30 28 1 28 29
M  V30 29 1 29 30
M  V30 30 1 30 31
M  V30 31 1 31 32
M  V30 32 1 32 33
M  V30 33 1 33 34
M  V30 34 1 29 3
M  V30 35 1 34 30
M  V30 36 1 28 8
M  V30 37 1 26 12
M  V30 38 1 26 15
M  V30 39 1 1 35
M  V30 40 1 1 36
M  V30 41 1 1 37
M  V30 42 1 2 38
M  V30 43 1 2 39
M  V30 44 1 3 40 CFG=1
M  V30 45 1 7 41
M  V30 46 1 7 42
M  V30 47 1 7 43
M  V30 48 1 9 44
M  V30 49 1 13 45
M  V30 50 1 14 46
M  V30 51 1 16 47
M  V30 52 1 20 48
M  V30 53 1 21 49
M  V30 54 1 22 50
M  V30 55 1 22 51
M  V30 56 1 22 52
M  V30 57 1 23 53
M  V30 58 1 23 54
M  V30 59 1 23 55
M  V30 60 1 24 56
M  V30 61 1 25 57
M  V30 62 1 30 58
M  V30 63 1 31 59
M  V30 64 1 31 60
M  V30 65 1 32 61
M  V30 66 1 32 62
M  V30 67 1 33 63
M  V30 68 1 33 64
M  V30 69 1 34 65
M  V30 70 1 34 66
M  V30 END BOND
M  V30 END CTAB
M  END
>  <Dataset>  (348) 
ChEMBL_Kinases

>  <Ligand_Instance>  (348) 
nan

>  <PDB_ID>  (348) 
nan

>  <Standardized_SMILES>  (348) 
CC[C@@H]1C(=O)N(C)c2cnc(-n3ccc4cc(C(=O)NC(C)C)ccc43)nc2N1C1CCCC1

>  <Name>  (348) 
nan

>  <Pocket>  (348) 
nan

>  <ATP_Site>  (348) 
nan

>  <Peripheral>  (348) 
nan

>  <Num_H_Atoms_ProtBoundConf>  (348) 
nan

>  <Num_Resolved_Atoms>  (348) 
nan

>  <Num_Not_Resolved_Atoms>  (348) 
nan

$$$$
CHEMBL4785138
     RDKit          3D

  0  0  0  0  0  0  0  0  0  0999 V3000
M  V30 BEGIN CTAB
M  V30 COUNTS 57 60 0 0 0
M  V30 BEGIN ATOM
M  V30 1 C 6.886325 -5.697306 3.981676 0
M  V30 2 O 6.781588 -4.331399 4.390465 0
M  V30 3 C 6.396679 -3.344765 3.503315 0
M  V30 4 C 6.315953 -2.047944 3.963420 0
M  V30 5 C 5.934880 -1.017635 3.116854 0
M  V30 6 C 5.641456 -1.355998 1.794025 0
M  V30 7 N 5.235246 -0.407276 0.803382 0
M  V30 8 C 3.825482 -0.230695 0.742504 0
M  V30 9 O 3.139959 -0.911344 1.543771 0
M  V30 10 C 3.272497 0.709745 -0.225718 0
M  V30 11 N 3.966805 1.474580 -1.118501 0
M  V30 12 N 3.114435 2.196674 -1.822689 0
M  V30 13 C 1.848225 1.951187 -1.440140 0
M  V30 14 C 1.941353 1.012749 -0.431653 0
M  V30 15 C 0.775408 0.450261 0.285421 0
M  V30 16 C -0.450818 0.823402 -0.007202 0
M  V30 17 C -1.646497 0.315306 0.653573 0
M  V30 18 C -1.616298 -0.619299 1.665946 0
M  V30 19 N -2.764171 -1.045313 2.233040 0
M  V30 20 C -3.970329 -0.578900 1.836113 0
M  V30 21 C -4.088566 0.357981 0.829011 0
M  V30 22 C -5.310696 0.952258 0.287787 0
M  V30 23 N -5.854562 0.273133 -0.813583 0
M  V30 24 C -6.267529 -1.047884 -0.710074 0
M  V30 25 C -5.588716 -2.052790 -1.589822 0
M  V30 26 C -4.922547 -1.457705 -2.793339 0
M  V30 27 C -5.445663 -0.112565 -3.202860 0
M  V30 28 C -5.651226 0.852617 -2.085070 0
M  V30 29 C -2.885549 0.781448 0.259833 0
M  V30 30 C 5.737453 -2.683107 1.374323 0
M  V30 31 N 6.112377 -3.664359 2.226500 0
M  V30 32 H 7.636740 -5.804635 3.178897 0
M  V30 33 H 7.245643 -6.305720 4.834797 0
M  V30 34 H 5.895587 -6.097159 3.684455 0
M  V30 35 H 6.544645 -1.771975 5.001796 0
M  V30 36 H 5.843220 0.030757 3.387670 0
M  V30 37 H 5.903119 0.110807 0.180087 0
M  V30 38 H 3.347739 2.888333 -2.593668 0
M  V30 39 H 0.965285 2.419489 -1.866414 0
M  V30 40 H 0.943900 -0.280660 1.063072 0
M  V30 41 H -0.527737 1.546507 -0.784735 0
M  V30 42 H -0.677674 -1.020772 2.016687 0
M  V30 43 H -4.897692 -0.909868 2.285106 0
M  V30 44 H -6.063409 0.934768 1.127275 0
M  V30 45 H -5.193182 2.033044 0.060339 0
M  V30 46 H -7.383352 -1.090057 -0.889522 0
M  V30 47 H -6.167320 -1.398054 0.335559 0
M  V30 48 H -4.805683 -2.645725 -1.049315 0
M  V30 49 H -6.334294 -2.795653 -1.942928 0
M  V30 50 H -5.038678 -2.134884 -3.673293 0
M  V30 51 H -3.817849 -1.376546 -2.631484 0
M  V30 52 H -4.724343 0.308490 -3.934591 0
M  V30 53 H -6.397424 -0.267900 -3.788130 0
M  V30 54 H -6.533585 1.480653 -2.325564 0
M  V30 55 H -4.780395 1.538889 -2.028374 0
M  V30 56 H -2.895793 1.523258 -0.544768 0
M  V30 57 H 5.511589 -2.974191 0.337826 0
M  V30 END ATOM
M  V30 BEGIN BOND
M  V30 1 1 1 2
M  V30 2 1 2 3
M  V30 3 2 3 4
M  V30 4 1 4 5
M  V30 5 2 5 6
M  V30 6 1 6 7
M  V30 7 1 7 8
M  V30 8 2 8 9
M  V30 9 1 8 10
M  V30 10 2 10 11
M  V30 11 1 11 12
M  V30 12 1 12 13
M  V30 13 2 13 14
M  V30 14 1 14 15
M  V30 15 2 15 16
M  V30 16 1 16 17
M  V30 17 2 17 18
M  V30 18 1 18 19
M  V30 19 2 19 20
M  V30 20 1 20 21
M  V30 21 1 21 22
M  V30 22 1 22 23
M  V30 23 1 23 24
M  V30 24 1 24 25
M  V30 25 1 25 26
M  V30 26 1 26 27
M  V30 27 1 27 28
M  V30 28 2 21 29
M  V30 29 1 6 30
M  V30 30 2 30 31
M  V30 31 1 31 3
M  V30 32 1 14 10
M  V30 33 1 29 17
M  V30 34 1 28 23
M  V30 35 1 1 32
M  V30 36 1 1 33
M  V30 37 1 1 34
M  V30 38 1 4 35
M  V30 39 1 5 36
M  V30 40 1 7 37
M  V30 41 1 12 38
M  V30 42 1 13 39
M  V30 43 1 15 40
M  V30 44 1 16 41
M  V30 45 1 18 42
M  V30 46 1 20 43
M  V30 47 1 22 44
M  V30 48 1 22 45
M  V30 49 1 24 46
M  V30 50 1 24 47
M  V30 51 1 25 48
M  V30 52 1 25 49
M  V30 53 1 26 50
M  V30 54 1 26 51
M  V30 55 1 27 52
M  V30 56 1 27 53
M  V30 57 1 28 54
M  V30 58 1 28 55
M  V30 59 1 29 56
M  V30 60 1 30 57
M  V30 END BOND
M  V30 END CTAB
M  END
>  <Dataset>  (349) 
ChEMBL_Kinases

>  <Ligand_Instance>  (349) 
nan

>  <PDB_ID>  (349) 
nan

>  <Standardized_SMILES>  (349) 
COc1ccc(NC(=O)c2n[nH]cc2/C=C/c2cncc(CN3CCCCC3)c2)cn1

>  <Name>  (349) 
nan

>  <Pocket>  (349) 
nan

>  <ATP_Site>  (349) 
nan

>  <Peripheral>  (349) 
nan

>  <Num_H_Atoms_ProtBoundConf>  (349) 
nan

>  <Num_Resolved_Atoms>  (349) 
nan

>  <Num_Not_Resolved_Atoms>  (349) 
nan

$$$$
CHEMBL3326006
     RDKit          3D

  0  0  0  0  0  0  0  0  0  0999 V3000
M  V30 BEGIN CTAB
M  V30 COUNTS 75 79 0 0 0
M  V30 BEGIN ATOM
M  V30 1 C 4.215815 -3.164851 4.503361 0
M  V30 2 C 5.044870 -1.943696 4.280280 0
M  V30 3 C 5.021288 -1.461120 2.822364 0
M  V30 4 C 5.897421 -0.223460 2.789942 0
M  V30 5 N 5.994860 0.379176 1.479371 0
M  V30 6 C 4.612519 0.561307 1.159397 0
M  V30 7 N 3.752692 1.491264 1.640605 0
M  V30 8 C 2.464348 1.479570 1.180266 0
M  V30 9 C 2.158964 0.504268 0.253101 0
M  V30 10 C 0.926789 0.319409 -0.335360 0
M  V30 11 C -0.387785 0.947600 -0.236165 0
M  V30 12 C -1.151149 1.352043 -1.295208 0
M  V30 13 C -2.380551 1.910146 -1.005643 0
M  V30 14 C -2.836726 2.062009 0.287618 0
M  V30 15 C -4.204317 2.688173 0.379187 0
M  V30 16 N -5.193841 1.629581 0.352623 0
M  V30 17 C -6.496004 2.214536 0.402620 0
M  V30 18 C -7.573808 1.192345 0.189327 0
M  V30 19 N -7.004333 -0.122845 0.277344 0
M  V30 20 C -6.359306 -0.562167 -0.916658 0
M  V30 21 C -6.206685 -0.217721 1.470253 0
M  V30 22 C -4.970360 0.656100 1.401126 0
M  V30 23 C -2.051856 1.648338 1.343353 0
M  V30 24 C -0.819176 1.087002 1.089386 0
M  V30 25 C 1.099030 -0.756525 -1.183637 0
M  V30 26 N 2.355241 -1.237350 -1.147570 0
M  V30 27 C 2.965666 -2.338511 -1.861399 0 CFG=1
M  V30 28 C 2.570824 -3.620042 -1.197782 0
M  V30 29 C 1.288616 -4.208519 -1.664633 0
M  V30 30 C 0.887018 -3.985182 -3.066130 0 CFG=2
M  V30 31 O 0.317115 -5.155382 -3.580263 0
M  V30 32 C 2.113607 -3.587784 -3.852956 0
M  V30 33 C 2.545979 -2.245774 -3.301373 0
M  V30 34 C 2.996471 -0.455064 -0.260917 0
M  V30 35 N 4.247885 -0.368760 0.249252 0
M  V30 36 H 4.160517 -3.310316 5.620236 0
M  V30 37 H 3.190901 -3.033151 4.101766 0
M  V30 38 H 4.711013 -4.060599 4.061950 0
M  V30 39 H 4.723910 -1.093555 4.897085 0
M  V30 40 H 6.121009 -2.129017 4.521583 0
M  V30 41 H 3.964650 -1.149292 2.643641 0
M  V30 42 H 5.300041 -2.233084 2.109702 0
M  V30 43 H 5.463503 0.499927 3.511131 0
M  V30 44 H 6.913983 -0.450266 3.212473 0
M  V30 45 H 6.775919 0.651632 0.846150 0
M  V30 46 H 1.759213 2.199824 1.538502 0
M  V30 47 H -0.748770 1.213575 -2.293982 0
M  V30 48 H -2.950817 2.215975 -1.883413 0
M  V30 49 H -4.364206 3.424853 -0.427362 0
M  V30 50 H -4.274170 3.193694 1.346893 0
M  V30 51 H -6.644187 2.761199 1.351218 0
M  V30 52 H -6.524544 2.964328 -0.442916 0
M  V30 53 H -8.113558 1.357323 -0.779456 0
M  V30 54 H -8.309700 1.275545 1.042238 0
M  V30 55 H -6.607796 0.033619 -1.801305 0
M  V30 56 H -5.263163 -0.649327 -0.739271 0
M  V30 57 H -6.707959 -1.603669 -1.152623 0
M  V30 58 H -6.855536 0.050197 2.331362 0
M  V30 59 H -5.926800 -1.297224 1.626608 0
M  V30 60 H -4.817762 1.116235 2.385723 0
M  V30 61 H -4.098371 0.039417 1.116517 0
M  V30 62 H -2.515476 1.817810 2.308327 0
M  V30 63 H -0.242465 0.778271 1.967959 0
M  V30 64 H 0.381287 -1.239029 -1.844127 0
M  V30 65 H 4.066201 -2.241037 -1.835589 0
M  V30 66 H 3.361120 -4.393584 -1.308925 0
M  V30 67 H 2.479035 -3.458891 -0.088519 0
M  V30 68 H 1.287190 -5.312969 -1.454628 0
M  V30 69 H 0.433617 -3.836451 -1.019193 0
M  V30 70 H 0.101837 -3.199913 -3.184097 0
M  V30 71 H -0.633567 -5.240073 -3.358033 0
M  V30 72 H 1.761579 -3.424985 -4.896215 0
M  V30 73 H 2.894142 -4.355946 -3.791350 0
M  V30 74 H 3.368022 -1.879563 -3.948389 0
M  V30 75 H 1.695150 -1.550712 -3.435906 0
M  V30 END ATOM
M  V30 BEGIN BOND
M  V30 1 1 1 2
M  V30 2 1 2 3
M  V30 3 1 3 4
M  V30 4 1 4 5
M  V30 5 1 5 6
M  V30 6 2 6 7
M  V30 7 1 7 8
M  V30 8 2 8 9
M  V30 9 1 9 10
M  V30 10 1 10 11
M  V30 11 2 11 12
M  V30 12 1 12 13
M  V30 13 2 13 14
M  V30 14 1 14 15
M  V30 15 1 15 16
M  V30 16 1 16 17
M  V30 17 1 17 18
M  V30 18 1 18 19
M  V30 19 1 19 20
M  V30 20 1 19 21
M  V30 21 1 21 22
M  V30 22 1 14 23
M  V30 23 2 23 24
M  V30 24 2 10 25
M  V30 25 1 25 26
M  V30 26 1 26 27
M  V30 27 1 27 28
M  V30 28 1 28 29
M  V30 29 1 29 30
M  V30 30 1 30 31
M  V30 31 1 30 32
M  V30 32 1 32 33
M  V30 33 1 26 34
M  V30 34 2 34 35
M  V30 35 1 35 6
M  V30 36 1 34 9
M  V30 37 1 24 11
M  V30 38 1 33 27
M  V30 39 1 22 16
M  V30 40 1 1 36
M  V30 41 1 1 37
M  V30 42 1 1 38
M  V30 43 1 2 39
M  V30 44 1 2 40
M  V30 45 1 3 41
M  V30 46 1 3 42
M  V30 47 1 4 43
M  V30 48 1 4 44
M  V30 49 1 5 45
M  V30 50 1 8 46
M  V30 51 1 12 47
M  V30 52 1 13 48
M  V30 53 1 15 49
M  V30 54 1 15 50
M  V30 55 1 17 51
M  V30 56 1 17 52
M  V30 57 1 18 53
M  V30 58 1 18 54
M  V30 59 1 20 55
M  V30 60 1 20 56
M  V30 61 1 20 57
M  V30 62 1 21 58
M  V30 63 1 21 59
M  V30 64 1 22 60
M  V30 65 1 22 61
M  V30 66 1 23 62
M  V30 67 1 24 63
M  V30 68 1 25 64
M  V30 69 1 27 65 CFG=3
M  V30 70 1 28 66
M  V30 71 1 28 67
M  V30 72 1 29 68
M  V30 73 1 29 69
M  V30 74 1 30 70 CFG=1
M  V30 75 1 31 71
M  V30 76 1 32 72
M  V30 77 1 32 73
M  V30 78 1 33 74
M  V30 79 1 33 75
M  V30 END BOND
M  V30 END CTAB
M  END
>  <Dataset>  (350) 
ChEMBL_Kinases

>  <Ligand_Instance>  (350) 
nan

>  <PDB_ID>  (350) 
nan

>  <Standardized_SMILES>  (350) 
CCCCNc1ncc2c(-c3ccc(CN4CCN(C)CC4)cc3)cn([C@H]3CC[C@H](O)CC3)c2n1

>  <Name>  (350) 
nan

>  <Pocket>  (350) 
nan

>  <ATP_Site>  (350) 
nan

>  <Peripheral>  (350) 
nan

>  <Num_H_Atoms_ProtBoundConf>  (350) 
nan

>  <Num_Resolved_Atoms>  (350) 
nan

>  <Num_Not_Resolved_Atoms>  (350) 
nan

$$$$
CHEMBL1738758
     RDKit          3D

  0  0  0  0  0  0  0  0  0  0999 V3000
M  V30 BEGIN CTAB
M  V30 COUNTS 65 69 0 0 0
M  V30 BEGIN ATOM
M  V30 1 C 4.201379 0.343250 5.455091 0
M  V30 2 N 3.062677 0.921649 4.766244 0
M  V30 3 C 2.006696 -0.065832 4.702054 0
M  V30 4 C 0.808440 0.486178 3.931279 0
M  V30 5 N 1.076747 1.840113 3.510266 0
M  V30 6 C 1.067818 2.339472 2.179748 0
M  V30 7 C 1.292025 3.657602 1.845399 0
M  V30 8 C 1.285747 4.119177 0.552052 0
M  V30 9 C 1.048723 3.265858 -0.510579 0
M  V30 10 O 1.064355 3.828903 -1.762952 0
M  V30 11 C -0.022409 4.373763 -2.446018 0
M  V30 12 F -1.042158 3.461458 -2.672295 0
M  V30 13 F 0.435040 4.867465 -3.673375 0
M  V30 14 F -0.619582 5.444908 -1.807701 0
M  V30 15 C 0.821241 1.942764 -0.206250 0
M  V30 16 N 0.593735 1.060983 -1.299635 0
M  V30 17 C 0.303271 -0.324723 -1.145819 0
M  V30 18 N 1.294077 -1.083325 -0.586916 0
M  V30 19 C 1.140587 -2.411166 -0.393858 0
M  V30 20 C -0.046329 -3.064429 -0.762123 0
M  V30 21 C -0.986197 -2.226229 -1.316304 0
M  V30 22 N -0.853484 -0.926867 -1.511669 0
M  V30 23 C -2.210656 -2.931327 -1.706398 0
M  V30 24 C -2.160667 -4.282116 -1.435489 0
M  V30 25 C -3.387330 -4.749016 -1.879825 0
M  V30 26 C -4.048324 -6.049951 -1.923301 0
M  V30 27 N -3.332424 -7.176028 -1.391221 0
M  V30 28 O -5.169182 -6.438708 -2.344666 0
M  V30 29 N -4.119467 -3.714073 -2.387490 0
M  V30 30 N -3.370578 -2.602863 -2.268562 0
M  V30 31 C -3.696327 -1.247873 -2.655665 0
M  V30 32 C -3.275777 -0.921397 -4.071295 0
M  V30 33 O -3.925774 -1.788563 -4.962885 0
M  V30 34 C -1.194153 -5.227116 -0.843610 0
M  V30 35 C 0.048565 -4.499987 -0.438098 0
M  V30 36 C 0.835537 1.522768 1.094953 0
M  V30 37 C 1.365606 2.622296 4.667814 0
M  V30 38 C 2.558638 2.089900 5.472277 0
M  V30 39 H 4.071467 0.319664 6.563974 0
M  V30 40 H 5.150718 0.821677 5.163765 0
M  V30 41 H 4.280111 -0.728523 5.129958 0
M  V30 42 H 2.434132 -0.957388 4.181059 0
M  V30 43 H 1.709210 -0.342578 5.724712 0
M  V30 44 H 0.601435 -0.195046 3.088536 0
M  V30 45 H -0.065122 0.522718 4.644262 0
M  V30 46 H 1.486469 4.382577 2.622951 0
M  V30 47 H 1.472944 5.187622 0.372462 0
M  V30 48 H 0.622886 1.364807 -2.289167 0
M  V30 49 H 2.029684 -2.873109 0.066773 0
M  V30 50 H -2.563478 -7.905434 -1.411904 0
M  V30 51 H -3.268907 -7.863012 -0.618177 0
M  V30 52 H -4.826845 -1.204911 -2.638065 0
M  V30 53 H -3.361747 -0.475596 -1.954457 0
M  V30 54 H -2.174043 -0.986858 -4.164592 0
M  V30 55 H -3.666315 0.100541 -4.287591 0
M  V30 56 H -4.262095 -1.294317 -5.736277 0
M  V30 57 H -0.987160 -6.094666 -1.512514 0
M  V30 58 H -1.684646 -5.594461 0.113701 0
M  V30 59 H 0.938242 -4.973467 -0.953471 0
M  V30 60 H 0.244175 -4.647766 0.653436 0
M  V30 61 H 0.645842 0.468834 1.199450 0
M  V30 62 H 0.481084 2.544444 5.367640 0
M  V30 63 H 1.496066 3.696368 4.506278 0
M  V30 64 H 3.370249 2.836067 5.503015 0
M  V30 65 H 2.294493 1.827094 6.495855 0
M  V30 END ATOM
M  V30 BEGIN BOND
M  V30 1 1 1 2
M  V30 2 1 2 3
M  V30 3 1 3 4
M  V30 4 1 4 5
M  V30 5 1 5 6
M  V30 6 2 6 7
M  V30 7 1 7 8
M  V30 8 2 8 9
M  V30 9 1 9 10
M  V30 10 1 10 11
M  V30 11 1 11 12
M  V30 12 1 11 13
M  V30 13 1 11 14
M  V30 14 1 9 15
M  V30 15 1 15 16
M  V30 16 1 16 17
M  V30 17 2 17 18
M  V30 18 1 18 19
M  V30 19 2 19 20
M  V30 20 1 20 21
M  V30 21 2 21 22
M  V30 22 1 21 23
M  V30 23 2 23 24
M  V30 24 1 24 25
M  V30 25 1 25 26
M  V30 26 1 26 27
M  V30 27 2 26 28
M  V30 28 2 25 29
M  V30 29 1 29 30
M  V30 30 1 30 31
M  V30 31 1 31 32
M  V30 32 1 32 33
M  V30 33 1 24 34
M  V30 34 1 34 35
M  V30 35 2 15 36
M  V30 36 1 5 37
M  V30 37 1 37 38
M  V30 38 1 38 2
M  V30 39 1 36 6
M  V30 40 1 22 17
M  V30 41 1 30 23
M  V30 42 1 35 20
M  V30 43 1 1 39
M  V30 44 1 1 40
M  V30 45 1 1 41
M  V30 46 1 3 42
M  V30 47 1 3 43
M  V30 48 1 4 44
M  V30 49 1 4 45
M  V30 50 1 7 46
M  V30 51 1 8 47
M  V30 52 1 16 48
M  V30 53 1 19 49
M  V30 54 1 27 50
M  V30 55 1 27 51
M  V30 56 1 31 52
M  V30 57 1 31 53
M  V30 58 1 32 54
M  V30 59 1 32 55
M  V30 60 1 33 56
M  V30 61 1 34 57
M  V30 62 1 34 58
M  V30 63 1 35 59
M  V30 64 1 35 60
M  V30 65 1 36 61
M  V30 66 1 37 62
M  V30 67 1 37 63
M  V30 68 1 38 64
M  V30 69 1 38 65
M  V30 END BOND
M  V30 END CTAB
M  END
>  <Dataset>  (351) 
ChEMBL_Kinases

>  <Ligand_Instance>  (351) 
nan

>  <PDB_ID>  (351) 
nan

>  <Standardized_SMILES>  (351) 
CN1CCN(c2ccc(OC(F)(F)F)c(Nc3ncc4c(n3)-c3c(c(C(N)=O)nn3CCO)CC4)c2)CC1

>  <Name>  (351) 
ONVANSERTIB

>  <Pocket>  (351) 
nan

>  <ATP_Site>  (351) 
nan

>  <Peripheral>  (351) 
nan

>  <Num_H_Atoms_ProtBoundConf>  (351) 
nan

>  <Num_Resolved_Atoms>  (351) 
nan

>  <Num_Not_Resolved_Atoms>  (351) 
nan

$$$$
CHEMBL4175615
     RDKit          3D

  0  0  0  0  0  0  0  0  0  0999 V3000
M  V30 BEGIN CTAB
M  V30 COUNTS 63 66 0 0 0
M  V30 BEGIN ATOM
M  V30 1 C 4.263135 -1.153117 3.363846 0
M  V30 2 C 4.990290 -0.268011 2.387713 0
M  V30 3 C 4.775312 -0.663156 0.956230 0
M  V30 4 C 5.554834 0.301068 0.108812 0
M  V30 5 O 6.673468 0.084741 -0.471852 0
M  V30 6 N 5.015060 1.624538 -0.095074 0
M  V30 7 C 5.819645 2.795012 -0.424526 0
M  V30 8 C 3.605356 1.773344 0.039182 0
M  V30 9 C 3.014172 3.003788 -0.139343 0
M  V30 10 N 1.685777 3.059589 0.004594 0
M  V30 11 C 0.868952 2.062813 0.300414 0
M  V30 12 N -0.523067 2.306355 0.408266 0
M  V30 13 C -1.552577 1.396808 0.751389 0
M  V30 14 C -1.373250 0.090736 1.140938 0
M  V30 15 C -2.355802 -0.810760 1.472514 0
M  V30 16 C -3.677546 -0.364766 1.411180 0
M  V30 17 S -5.000449 -1.425054 1.811705 0
M  V30 18 O -4.605614 -2.452905 2.827750 0
M  V30 19 O -6.190958 -0.633126 2.308046 0
M  V30 20 N -5.546010 -2.288618 0.390614 0
M  V30 21 C -6.026276 -1.391114 -0.610066 0
M  V30 22 C -6.517544 -2.016121 -1.870631 0
M  V30 23 C -7.662621 -2.968261 -1.712389 0
M  V30 24 O -7.423265 -4.055543 -0.911902 0
M  V30 25 C -3.900755 0.938797 1.024880 0
M  V30 26 C -2.869991 1.792625 0.705232 0
M  V30 27 N 1.484815 0.881669 0.465827 0
M  V30 28 C 2.807804 0.699841 0.347864 0
M  V30 29 N 3.416996 -0.570286 0.531529 0
M  V30 30 C 2.660049 -1.748615 0.281423 0
M  V30 31 C 3.116068 -3.057108 0.477235 0
M  V30 32 C 2.144954 -3.975109 0.138989 0
M  V30 33 N 1.112378 -3.211903 -0.257606 0
M  V30 34 C -0.189377 -3.698908 -0.727703 0
M  V30 35 N 1.409441 -1.926338 -0.175554 0
M  V30 36 H 4.532882 -0.784144 4.384689 0
M  V30 37 H 4.612901 -2.209821 3.320201 0
M  V30 38 H 3.174985 -1.117545 3.305880 0
M  V30 39 H 6.063793 -0.328668 2.659324 0
M  V30 40 H 4.674745 0.779589 2.591653 0
M  V30 41 H 5.215185 -1.672800 0.811247 0
M  V30 42 H 5.567330 3.673047 0.203061 0
M  V30 43 H 5.715738 2.982050 -1.506107 0
M  V30 44 H 6.870061 2.503017 -0.242717 0
M  V30 45 H 3.570215 3.898466 -0.383926 0
M  V30 46 H -0.846117 3.299629 0.207475 0
M  V30 47 H -0.378760 -0.307694 1.210086 0
M  V30 48 H -2.146679 -1.826552 1.771332 0
M  V30 49 H -6.268657 -2.948279 0.766210 0
M  V30 50 H -5.145090 -0.752898 -0.905769 0
M  V30 51 H -6.759812 -0.637244 -0.205189 0
M  V30 52 H -6.901960 -1.180242 -2.510482 0
M  V30 53 H -5.659091 -2.442104 -2.396644 0
M  V30 54 H -8.578142 -2.478249 -1.325254 0
M  V30 55 H -7.948065 -3.312660 -2.748668 0
M  V30 56 H -6.555303 -4.464555 -1.202663 0
M  V30 57 H -4.939444 1.297586 0.974279 0
M  V30 58 H -3.152664 2.799393 0.412872 0
M  V30 59 H 4.097350 -3.387362 0.845859 0
M  V30 60 H 2.178113 -5.055047 0.174415 0
M  V30 61 H -0.104077 -4.629505 -1.316239 0
M  V30 62 H -0.834807 -3.862386 0.170517 0
M  V30 63 H -0.713501 -2.900495 -1.304678 0
M  V30 END ATOM
M  V30 BEGIN BOND
M  V30 1 1 1 2
M  V30 2 1 2 3
M  V30 3 1 3 4
M  V30 4 2 4 5
M  V30 5 1 4 6
M  V30 6 1 6 7
M  V30 7 1 6 8
M  V30 8 2 8 9
M  V30 9 1 9 10
M  V30 10 2 10 11
M  V30 11 1 11 12
M  V30 12 1 12 13
M  V30 13 2 13 14
M  V30 14 1 14 15
M  V30 15 2 15 16
M  V30 16 1 16 17
M  V30 17 2 17 18
M  V30 18 2 17 19
M  V30 19 1 17 20
M  V30 20 1 20 21
M  V30 21 1 21 22
M  V30 22 1 22 23
M  V30 23 1 23 24
M  V30 24 1 16 25
M  V30 25 2 25 26
M  V30 26 1 11 27
M  V30 27 2 27 28
M  V30 28 1 28 29
M  V30 29 1 29 30
M  V30 30 1 30 31
M  V30 31 2 31 32
M  V30 32 1 32 33
M  V30 33 1 33 34
M  V30 34 1 33 35
M  V30 35 1 29 3
M  V30 36 2 35 30
M  V30 37 1 28 8
M  V30 38 1 26 13
M  V30 39 1 1 36
M  V30 40 1 1 37
M  V30 41 1 1 38
M  V30 42 1 2 39
M  V30 43 1 2 40
M  V30 44 1 3 41
M  V30 45 1 7 42
M  V30 46 1 7 43
M  V30 47 1 7 44
M  V30 48 1 9 45
M  V30 49 1 12 46
M  V30 50 1 14 47
M  V30 51 1 15 48
M  V30 52 1 20 49
M  V30 53 1 21 50
M  V30 54 1 21 51
M  V30 55 1 22 52
M  V30 56 1 22 53
M  V30 57 1 23 54
M  V30 58 1 23 55
M  V30 59 1 24 56
M  V30 60 1 25 57
M  V30 61 1 26 58
M  V30 62 1 31 59
M  V30 63 1 32 60
M  V30 64 1 34 61
M  V30 65 1 34 62
M  V30 66 1 34 63
M  V30 END BOND
M  V30 END CTAB
M  END
>  <Dataset>  (352) 
ChEMBL_Kinases

>  <Ligand_Instance>  (352) 
nan

>  <PDB_ID>  (352) 
nan

>  <Standardized_SMILES>  (352) 
CCC1C(=O)N(C)c2cnc(Nc3ccc(S(=O)(=O)NCCCO)cc3)nc2N1c1ccn(C)n1

>  <Name>  (352) 
nan

>  <Pocket>  (352) 
nan

>  <ATP_Site>  (352) 
nan

>  <Peripheral>  (352) 
nan

>  <Num_H_Atoms_ProtBoundConf>  (352) 
nan

>  <Num_Resolved_Atoms>  (352) 
nan

>  <Num_Not_Resolved_Atoms>  (352) 
nan

$$$$
CHEMBL4176689
     RDKit          3D

  0  0  0  0  0  0  0  0  0  0999 V3000
M  V30 BEGIN CTAB
M  V30 COUNTS 65 68 0 0 0
M  V30 BEGIN ATOM
M  V30 1 C 2.629943 -3.639113 4.507651 0
M  V30 2 C 2.725858 -2.220505 3.953450 0
M  V30 3 C 3.580926 -2.231504 2.726912 0
M  V30 4 C 3.720197 -0.852861 2.118665 0
M  V30 5 N 4.325605 0.096943 3.028835 0
M  V30 6 S 4.424536 1.622836 2.211075 0
M  V30 7 O 5.142750 1.392322 0.910224 0
M  V30 8 O 5.156128 2.645988 2.993004 0
M  V30 9 C 2.780824 2.115384 1.830854 0
M  V30 10 C 2.225187 1.691181 0.625933 0
M  V30 11 C 0.937500 2.054067 0.290597 0
M  V30 12 C 0.170744 2.837560 1.126063 0
M  V30 13 N -1.160568 3.188228 0.768549 0
M  V30 14 C -1.780741 2.617648 -0.388664 0
M  V30 15 N -2.381491 3.229873 -1.422590 0
M  V30 16 C -2.932732 2.550670 -2.447183 0
M  V30 17 C -2.848119 1.175077 -2.380265 0
M  V30 18 C -2.221433 0.529858 -1.300957 0
M  V30 19 N -1.695244 1.277090 -0.317580 0
M  V30 20 N -2.201218 -0.909952 -1.313806 0
M  V30 21 C -2.250700 -1.568632 -0.055740 0
M  V30 22 C -2.120760 -1.082499 1.196969 0
M  V30 23 C -2.256103 -2.081504 2.137423 0
M  V30 24 N -2.473587 -3.199247 1.423741 0
M  V30 25 C -2.705406 -4.613447 1.734385 0
M  V30 26 N -2.466907 -2.883154 0.150333 0
M  V30 27 C -2.144803 -1.531073 -2.616096 0
M  V30 28 C -1.921683 -2.996761 -2.636939 0
M  V30 29 C -0.587797 -3.294234 -1.989947 0
M  V30 30 C -3.309234 -1.036031 -3.368772 0
M  V30 31 O -4.255414 -1.657981 -3.963956 0
M  V30 32 N -3.421253 0.404384 -3.463701 0
M  V30 33 C -4.078468 1.119299 -4.573787 0
M  V30 34 C 0.707430 3.256095 2.304519 0
M  V30 35 C 1.993367 2.902542 2.656111 0
M  V30 36 H 3.495435 -3.848861 5.151400 0
M  V30 37 H 2.533032 -4.347451 3.667304 0
M  V30 38 H 1.688506 -3.686725 5.107163 0
M  V30 39 H 3.059845 -1.519717 4.722664 0
M  V30 40 H 1.685315 -1.930591 3.633103 0
M  V30 41 H 4.580121 -2.616659 2.956129 0
M  V30 42 H 3.095473 -2.877132 1.972897 0
M  V30 43 H 2.728684 -0.464592 1.793965 0
M  V30 44 H 4.350327 -0.922025 1.213645 0
M  V30 45 H 3.742079 0.209349 3.887484 0
M  V30 46 H 2.842126 1.067416 -0.038896 0
M  V30 47 H 0.606914 1.683946 -0.645492 0
M  V30 48 H -1.690118 3.874923 1.361738 0
M  V30 49 H -3.391086 3.103158 -3.233385 0
M  V30 50 H -1.938822 -0.086925 1.534298 0
M  V30 51 H -2.227520 -2.154757 3.215813 0
M  V30 52 H -3.692172 -4.890064 1.266579 0
M  V30 53 H -2.850829 -4.733320 2.814848 0
M  V30 54 H -1.974228 -5.284375 1.273170 0
M  V30 55 H -1.238409 -1.094720 -3.160019 0
M  V30 56 H -2.741376 -3.595757 -2.214120 0
M  V30 57 H -1.850082 -3.300855 -3.701568 0
M  V30 58 H 0.205719 -3.453563 -2.783454 0
M  V30 59 H -0.209098 -2.456939 -1.393783 0
M  V30 60 H -0.573231 -4.203188 -1.372310 0
M  V30 61 H -4.880487 1.747099 -4.138990 0
M  V30 62 H -4.516277 0.360155 -5.225805 0
M  V30 63 H -3.376754 1.803999 -5.078105 0
M  V30 64 H 0.126664 3.870706 2.976419 0
M  V30 65 H 2.421853 3.231114 3.586791 0
M  V30 END ATOM
M  V30 BEGIN BOND
M  V30 1 1 1 2
M  V30 2 1 2 3
M  V30 3 1 3 4
M  V30 4 1 4 5
M  V30 5 1 5 6
M  V30 6 2 6 7
M  V30 7 2 6 8
M  V30 8 1 6 9
M  V30 9 2 9 10
M  V30 10 1 10 11
M  V30 11 2 11 12
M  V30 12 1 12 13
M  V30 13 1 13 14
M  V30 14 2 14 15
M  V30 15 1 15 16
M  V30 16 2 16 17
M  V30 17 1 17 18
M  V30 18 2 18 19
M  V30 19 1 18 20
M  V30 20 1 20 21
M  V30 21 1 21 22
M  V30 22 2 22 23
M  V30 23 1 23 24
M  V30 24 1 24 25
M  V30 25 1 24 26
M  V30 26 1 20 27
M  V30 27 1 27 28
M  V30 28 1 28 29
M  V30 29 1 27 30
M  V30 30 2 30 31
M  V30 31 1 30 32
M  V30 32 1 32 33
M  V30 33 1 12 34
M  V30 34 2 34 35
M  V30 35 1 35 9
M  V30 36 1 19 14
M  V30 37 2 26 21
M  V30 38 1 32 17
M  V30 39 1 1 36
M  V30 40 1 1 37
M  V30 41 1 1 38
M  V30 42 1 2 39
M  V30 43 1 2 40
M  V30 44 1 3 41
M  V30 45 1 3 42
M  V30 46 1 4 43
M  V30 47 1 4 44
M  V30 48 1 5 45
M  V30 49 1 10 46
M  V30 50 1 11 47
M  V30 51 1 13 48
M  V30 52 1 16 49
M  V30 53 1 22 50
M  V30 54 1 23 51
M  V30 55 1 25 52
M  V30 56 1 25 53
M  V30 57 1 25 54
M  V30 58 1 27 55
M  V30 59 1 28 56
M  V30 60 1 28 57
M  V30 61 1 29 58
M  V30 62 1 29 59
M  V30 63 1 29 60
M  V30 64 1 33 61
M  V30 65 1 33 62
M  V30 66 1 33 63
M  V30 67 1 34 64
M  V30 68 1 35 65
M  V30 END BOND
M  V30 END CTAB
M  END
>  <Dataset>  (353) 
ChEMBL_Kinases

>  <Ligand_Instance>  (353) 
nan

>  <PDB_ID>  (353) 
nan

>  <Standardized_SMILES>  (353) 
CCCCNS(=O)(=O)c1ccc(Nc2ncc3c(n2)N(c2ccn(C)n2)C(CC)C(=O)N3C)cc1

>  <Name>  (353) 
nan

>  <Pocket>  (353) 
nan

>  <ATP_Site>  (353) 
nan

>  <Peripheral>  (353) 
nan

>  <Num_H_Atoms_ProtBoundConf>  (353) 
nan

>  <Num_Resolved_Atoms>  (353) 
nan

>  <Num_Not_Resolved_Atoms>  (353) 
nan

$$$$
CHEMBL4784866
     RDKit          3D

  0  0  0  0  0  0  0  0  0  0999 V3000
M  V30 BEGIN CTAB
M  V30 COUNTS 20 21 0 0 0
M  V30 BEGIN ATOM
M  V30 1 N 0.172518 2.467149 1.201743 0
M  V30 2 C 0.603567 1.152119 1.430391 0
M  V30 3 C 1.214125 0.726432 2.582926 0
M  V30 4 C 1.658710 -0.540747 2.870147 0
M  V30 5 C 1.460628 -1.490072 1.869132 0
M  V30 6 C 0.847881 -1.135045 0.670840 0
M  V30 7 C 0.664306 -2.094564 -0.302840 0
M  V30 8 C 0.053769 -1.702811 -1.474914 0
M  V30 9 N -0.376235 -0.444155 -1.733668 0
M  V30 10 C -0.164153 0.436166 -0.740377 0
M  V30 11 O -0.541439 1.639200 -0.910486 0
M  V30 12 C 0.424962 0.178597 0.460018 0
M  V30 13 H -0.850648 2.678683 1.164675 0
M  V30 14 H 1.029515 3.049017 1.100884 0
M  V30 15 H 1.365752 1.468934 3.358296 0
M  V30 16 H 2.128161 -0.765132 3.815660 0
M  V30 17 H 1.799151 -2.513817 2.053842 0
M  V30 18 H 0.983262 -3.119401 -0.163504 0
M  V30 19 H -0.079947 -2.480142 -2.229404 0
M  V30 20 H -0.833790 -0.181531 -2.629928 0
M  V30 END ATOM
M  V30 BEGIN BOND
M  V30 1 1 1 2
M  V30 2 2 2 3
M  V30 3 1 3 4
M  V30 4 2 4 5
M  V30 5 1 5 6
M  V30 6 1 6 7
M  V30 7 2 7 8
M  V30 8 1 8 9
M  V30 9 1 9 10
M  V30 10 2 10 11
M  V30 11 1 10 12
M  V30 12 1 12 2
M  V30 13 2 12 6
M  V30 14 1 1 13
M  V30 15 1 1 14
M  V30 16 1 3 15
M  V30 17 1 4 16
M  V30 18 1 5 17
M  V30 19 1 7 18
M  V30 20 1 8 19
M  V30 21 1 9 20
M  V30 END BOND
M  V30 END CTAB
M  END
>  <Dataset>  (354) 
ChEMBL_Kinases

>  <Ligand_Instance>  (354) 
nan

>  <PDB_ID>  (354) 
nan

>  <Standardized_SMILES>  (354) 
Nc1cccc2cc[nH]c(=O)c12

>  <Name>  (354) 
nan

>  <Pocket>  (354) 
nan

>  <ATP_Site>  (354) 
nan

>  <Peripheral>  (354) 
nan

>  <Num_H_Atoms_ProtBoundConf>  (354) 
nan

>  <Num_Resolved_Atoms>  (354) 
nan

>  <Num_Not_Resolved_Atoms>  (354) 
nan

$$$$
CHEMBL4176983
     RDKit          3D

  0  0  0  0  0  0  0  0  0  0999 V3000
M  V30 BEGIN CTAB
M  V30 COUNTS 63 66 0 0 0
M  V30 BEGIN ATOM
M  V30 1 C 3.226737 0.623509 3.330311 0
M  V30 2 C 3.285523 -0.865381 3.454771 0
M  V30 3 C 3.449845 -1.547958 2.099198 0 CFG=2
M  V30 4 C 4.691063 -1.083254 1.489630 0
M  V30 5 O 5.762866 -1.659522 1.842616 0
M  V30 6 N 4.690968 -0.034695 0.545767 0
M  V30 7 C 5.932996 0.562379 0.129028 0
M  V30 8 C 3.437383 0.397492 0.034094 0
M  V30 9 C 3.467769 1.398378 -0.886899 0
M  V30 10 N 2.319390 1.832778 -1.412720 0
M  V30 11 C 1.115032 1.324757 -1.073646 0
M  V30 12 N 0.021438 1.897296 -1.774178 0
M  V30 13 C -1.365297 1.682011 -1.590921 0
M  V30 14 C -1.889526 1.195180 -0.410643 0
M  V30 15 C -3.234522 0.948261 -0.245178 0
M  V30 16 C -4.119559 1.176242 -1.250969 0
M  V30 17 S -5.788343 0.803126 -0.856231 0
M  V30 18 O -6.136848 1.173788 0.556448 0
M  V30 19 O -6.641557 1.606256 -1.797668 0
M  V30 20 N -6.128532 -0.870722 -1.144359 0
M  V30 21 C -5.291241 -1.713678 -0.300016 0
M  V30 22 C -5.561035 -3.178787 -0.522624 0
M  V30 23 O -6.869525 -3.492751 -0.242997 0
M  V30 24 C -3.650946 1.659492 -2.439600 0
M  V30 25 C -2.303756 1.896585 -2.576608 0
M  V30 26 N 1.060101 0.325933 -0.155676 0
M  V30 27 C 2.199728 -0.130554 0.388899 0
M  V30 28 N 2.254004 -1.167925 1.326725 0
M  V30 29 C 1.159850 -2.002653 1.623725 0
M  V30 30 C 1.307054 -3.426610 1.132131 0
M  V30 31 C -0.024347 -4.023948 1.522931 0
M  V30 32 C -0.970440 -2.867458 1.737251 0
M  V30 33 C -0.200913 -1.642173 1.193016 0
M  V30 34 H 2.939262 1.012979 4.348486 0
M  V30 35 H 4.196051 1.076880 3.064071 0
M  V30 36 H 2.385072 0.912823 2.677869 0
M  V30 37 H 4.142611 -1.188067 4.080643 0
M  V30 38 H 2.379912 -1.202058 3.996700 0
M  V30 39 H 3.524850 -2.633690 2.262351 0
M  V30 40 H 5.930924 1.668388 0.175587 0
M  V30 41 H 6.203751 0.217427 -0.894754 0
M  V30 42 H 6.759071 0.205782 0.790058 0
M  V30 43 H 4.401268 1.849290 -1.201819 0
M  V30 44 H 0.176642 2.574219 -2.537173 0
M  V30 45 H -1.146495 1.049035 0.347186 0
M  V30 46 H -3.505428 0.565763 0.740999 0
M  V30 47 H -6.004271 -1.094257 -2.152627 0
M  V30 48 H -5.519767 -1.498796 0.761006 0
M  V30 49 H -4.205353 -1.533577 -0.499566 0
M  V30 50 H -4.909812 -3.716674 0.216209 0
M  V30 51 H -5.272953 -3.510643 -1.546019 0
M  V30 52 H -7.299980 -3.765386 -1.093053 0
M  V30 53 H -4.384679 1.827467 -3.212040 0
M  V30 54 H -2.002656 2.281003 -3.546570 0
M  V30 55 H 1.076130 -2.141520 2.758180 0
M  V30 56 H 1.364366 -3.449574 0.011684 0
M  V30 57 H 2.151019 -3.972284 1.592594 0
M  V30 58 H 0.157226 -4.509196 2.525906 0
M  V30 59 H -0.389446 -4.768336 0.785731 0
M  V30 60 H -1.926737 -2.952206 1.208907 0
M  V30 61 H -1.069999 -2.631568 2.832712 0
M  V30 62 H -0.411307 -1.675517 0.104991 0
M  V30 63 H -0.600098 -0.725673 1.696438 0
M  V30 END ATOM
M  V30 BEGIN BOND
M  V30 1 1 1 2
M  V30 2 1 2 3
M  V30 3 1 3 4
M  V30 4 2 4 5
M  V30 5 1 4 6
M  V30 6 1 6 7
M  V30 7 1 6 8
M  V30 8 2 8 9
M  V30 9 1 9 10
M  V30 10 2 10 11
M  V30 11 1 11 12
M  V30 12 1 12 13
M  V30 13 2 13 14
M  V30 14 1 14 15
M  V30 15 2 15 16
M  V30 16 1 16 17
M  V30 17 2 17 18
M  V30 18 2 17 19
M  V30 19 1 17 20
M  V30 20 1 20 21
M  V30 21 1 21 22
M  V30 22 1 22 23
M  V30 23 1 16 24
M  V30 24 2 24 25
M  V30 25 1 11 26
M  V30 26 2 26 27
M  V30 27 1 27 28
M  V30 28 1 28 29
M  V30 29 1 29 30
M  V30 30 1 30 31
M  V30 31 1 31 32
M  V30 32 1 32 33
M  V30 33 1 28 3
M  V30 34 1 33 29
M  V30 35 1 27 8
M  V30 36 1 25 13
M  V30 37 1 1 34
M  V30 38 1 1 35
M  V30 39 1 1 36
M  V30 40 1 2 37
M  V30 41 1 2 38
M  V30 42 1 3 39 CFG=1
M  V30 43 1 7 40
M  V30 44 1 7 41
M  V30 45 1 7 42
M  V30 46 1 9 43
M  V30 47 1 12 44
M  V30 48 1 14 45
M  V30 49 1 15 46
M  V30 50 1 20 47
M  V30 51 1 21 48
M  V30 52 1 21 49
M  V30 53 1 22 50
M  V30 54 1 22 51
M  V30 55 1 23 52
M  V30 56 1 24 53
M  V30 57 1 25 54
M  V30 58 1 29 55
M  V30 59 1 30 56
M  V30 60 1 30 57
M  V30 61 1 31 58
M  V30 62 1 31 59
M  V30 63 1 32 60
M  V30 64 1 32 61
M  V30 65 1 33 62
M  V30 66 1 33 63
M  V30 END BOND
M  V30 END CTAB
M  END
>  <Dataset>  (355) 
ChEMBL_Kinases

>  <Ligand_Instance>  (355) 
nan

>  <PDB_ID>  (355) 
nan

>  <Standardized_SMILES>  (355) 
CC[C@@H]1C(=O)N(C)c2cnc(Nc3ccc(S(=O)(=O)NCCO)cc3)nc2N1C1CCCC1

>  <Name>  (355) 
nan

>  <Pocket>  (355) 
nan

>  <ATP_Site>  (355) 
nan

>  <Peripheral>  (355) 
nan

>  <Num_H_Atoms_ProtBoundConf>  (355) 
nan

>  <Num_Resolved_Atoms>  (355) 
nan

>  <Num_Not_Resolved_Atoms>  (355) 
nan

$$$$
CHEMBL4177399
     RDKit          3D

  0  0  0  0  0  0  0  0  0  0999 V3000
M  V30 BEGIN CTAB
M  V30 COUNTS 65 68 0 0 0
M  V30 BEGIN ATOM
M  V30 1 C 1.499947 0.458207 3.275774 0
M  V30 2 C 2.472015 -0.481460 3.840320 0
M  V30 3 C 3.094871 -1.526698 2.952644 0
M  V30 4 N 3.221943 -1.119987 1.678547 0
M  V30 5 S 4.333591 0.038940 1.110709 0
M  V30 6 O 4.637899 0.930533 2.385117 0
M  V30 7 O 5.390611 -0.199164 0.356898 0
M  V30 8 C 3.196880 1.194325 0.192924 0
M  V30 9 C 2.607310 0.583623 -0.976834 0
M  V30 10 C 1.637425 1.156386 -1.758308 0
M  V30 11 C 1.174034 2.375410 -1.351145 0
M  V30 12 N -0.166929 2.841292 -1.906901 0
M  V30 13 C -1.075544 2.104852 -0.936047 0
M  V30 14 N -1.328268 2.862385 0.110060 0
M  V30 15 C -1.742334 2.100529 1.308473 0
M  V30 16 C -1.776062 0.669210 1.125643 0
M  V30 17 C -1.428854 0.032318 -0.131889 0
M  V30 18 N -1.039476 0.813246 -1.280909 0
M  V30 19 N -1.626142 -1.344193 -0.194650 0
M  V30 20 C -2.425270 -1.870010 -1.219690 0
M  V30 21 C -3.485661 -0.945407 -1.784360 0
M  V30 22 C -4.247439 -1.921626 -2.657361 0
M  V30 23 C -3.168776 -2.882726 -3.163378 0
M  V30 24 C -1.874237 -2.455145 -2.436586 0
M  V30 25 C -1.144157 -2.103677 0.926577 0 CFG=2
M  V30 26 C -0.829869 -3.523909 0.799916 0
M  V30 27 C 0.412409 -3.827936 0.025802 0
M  V30 28 C -1.976455 -1.667575 2.068000 0
M  V30 29 O -2.515612 -2.419423 2.740221 0
M  V30 30 N -2.013895 -0.264408 2.160426 0
M  V30 31 C -2.517260 0.311034 3.432036 0
M  V30 32 C 1.663525 3.030894 -0.294168 0
M  V30 33 C 2.670503 2.487386 0.473828 0
M  V30 34 H 0.671359 0.740726 3.960072 0
M  V30 35 H 1.977285 1.515240 3.107592 0
M  V30 36 H 1.082205 0.109506 2.330669 0
M  V30 37 H 2.083294 -0.926839 4.726434 0
M  V30 38 H 3.429352 0.084221 4.260875 0
M  V30 39 H 3.459030 -2.362096 3.447490 0
M  V30 40 H 1.931740 -2.107194 2.763238 0
M  V30 41 H 3.972880 -2.107417 1.380082 0
M  V30 42 H 2.969247 -0.427093 -1.224690 0
M  V30 43 H 1.381092 0.664086 -2.666181 0
M  V30 44 H -0.286115 3.464784 -2.692510 0
M  V30 45 H -1.945470 2.504417 2.276076 0
M  V30 46 H -3.043636 -2.679870 -0.706870 0
M  V30 47 H -3.111847 -0.169024 -2.451885 0
M  V30 48 H -4.154241 -0.534745 -0.975097 0
M  V30 49 H -4.736980 -1.379130 -3.505841 0
M  V30 50 H -4.986081 -2.426993 -1.998998 0
M  V30 51 H -3.420228 -3.884154 -2.750364 0
M  V30 52 H -3.069935 -2.862297 -4.246597 0
M  V30 53 H -1.198927 -3.319058 -2.298310 0
M  V30 54 H -1.430942 -1.650022 -3.093396 0
M  V30 55 H -0.064330 -1.668746 1.173998 0
M  V30 56 H -0.920271 -4.081181 1.706808 0
M  V30 57 H -1.636768 -3.987238 0.069729 0
M  V30 58 H 0.947725 -2.925203 -0.305042 0
M  V30 59 H 0.396801 -4.583826 -0.731454 0
M  V30 60 H 1.175522 -4.244364 0.818298 0
M  V30 61 H -3.625627 0.597028 3.153339 0
M  V30 62 H -2.646020 -0.485947 4.169449 0
M  V30 63 H -2.037913 1.207219 3.721701 0
M  V30 64 H 1.402085 4.026608 -0.013148 0
M  V30 65 H 3.123929 2.853570 1.327633 0
M  V30 END ATOM
M  V30 BEGIN BOND
M  V30 1 1 1 2
M  V30 2 1 2 3
M  V30 3 1 3 4
M  V30 4 1 4 5
M  V30 5 2 5 6
M  V30 6 2 5 7
M  V30 7 1 5 8
M  V30 8 2 8 9
M  V30 9 1 9 10
M  V30 10 2 10 11
M  V30 11 1 11 12
M  V30 12 1 12 13
M  V30 13 2 13 14
M  V30 14 1 14 15
M  V30 15 2 15 16
M  V30 16 1 16 17
M  V30 17 2 17 18
M  V30 18 1 17 19
M  V30 19 1 19 20
M  V30 20 1 20 21
M  V30 21 1 21 22
M  V30 22 1 22 23
M  V30 23 1 23 24
M  V30 24 1 19 25
M  V30 25 1 25 26
M  V30 26 1 26 27
M  V30 27 1 25 28
M  V30 28 2 28 29
M  V30 29 1 28 30
M  V30 30 1 30 31
M  V30 31 1 11 32
M  V30 32 2 32 33
M  V30 33 1 33 8
M  V30 34 1 18 13
M  V30 35 1 24 20
M  V30 36 1 30 16
M  V30 37 1 1 34
M  V30 38 1 1 35
M  V30 39 1 1 36
M  V30 40 1 2 37
M  V30 41 1 2 38
M  V30 42 1 3 39
M  V30 43 1 3 40
M  V30 44 1 4 41
M  V30 45 1 9 42
M  V30 46 1 10 43
M  V30 47 1 12 44
M  V30 48 1 15 45
M  V30 49 1 20 46
M  V30 50 1 21 47
M  V30 51 1 21 48
M  V30 52 1 22 49
M  V30 53 1 22 50
M  V30 54 1 23 51
M  V30 55 1 23 52
M  V30 56 1 24 53
M  V30 57 1 24 54
M  V30 58 1 25 55 CFG=1
M  V30 59 1 26 56
M  V30 60 1 26 57
M  V30 61 1 27 58
M  V30 62 1 27 59
M  V30 63 1 27 60
M  V30 64 1 31 61
M  V30 65 1 31 62
M  V30 66 1 31 63
M  V30 67 1 32 64
M  V30 68 1 33 65
M  V30 END BOND
M  V30 END CTAB
M  END
>  <Dataset>  (356) 
ChEMBL_Kinases

>  <Ligand_Instance>  (356) 
nan

>  <PDB_ID>  (356) 
nan

>  <Standardized_SMILES>  (356) 
CCCNS(=O)(=O)c1ccc(Nc2ncc3c(n2)N(C2CCCC2)[C@H](CC)C(=O)N3C)cc1

>  <Name>  (356) 
nan

>  <Pocket>  (356) 
nan

>  <ATP_Site>  (356) 
nan

>  <Peripheral>  (356) 
nan

>  <Num_H_Atoms_ProtBoundConf>  (356) 
nan

>  <Num_Resolved_Atoms>  (356) 
nan

>  <Num_Not_Resolved_Atoms>  (356) 
nan

$$$$
CHEMBL4202432
     RDKit          3D

  0  0  0  0  0  0  0  0  0  0999 V3000
M  V30 BEGIN CTAB
M  V30 COUNTS 71 75 0 0 0
M  V30 BEGIN ATOM
M  V30 1 C 3.570924 -2.811702 5.059017 0
M  V30 2 C 3.750453 -2.005973 3.852545 0
M  V30 3 N 4.848775 -1.972787 3.039283 0
M  V30 4 C 4.616506 -1.108279 2.036851 0
M  V30 5 C 5.411088 -0.732229 0.968339 0
M  V30 6 F 6.654403 -1.303737 0.868123 0
M  V30 7 C 4.973394 0.195987 0.017479 0
M  V30 8 C 3.693000 0.728234 0.196789 0
M  V30 9 C 3.251188 1.680867 -0.816735 0
M  V30 10 C 2.054517 2.322929 -0.848874 0
M  V30 11 C 1.606789 3.218078 -1.793485 0
M  V30 12 N 0.306655 3.755741 -1.575291 0
M  V30 13 C -0.955680 3.119492 -1.678895 0
M  V30 14 C -1.303436 2.692411 -0.389362 0
M  V30 15 N -2.474531 2.029438 -0.145410 0
M  V30 16 C -3.343118 1.764761 -1.163318 0
M  V30 17 C -4.598823 1.040921 -0.807236 0
M  V30 18 N -4.428003 -0.332688 -0.865067 0
M  V30 19 C -4.103956 -1.004544 -2.049780 0
M  V30 20 C -2.808056 -1.801667 -1.838614 0
M  V30 21 N -2.996678 -2.705475 -0.759263 0
M  V30 22 C -2.731197 -4.082158 -1.061983 0
M  V30 23 C -3.602604 -4.646380 -2.145895 0
M  V30 24 C -1.297329 -4.220206 -1.514105 0
M  V30 25 C -4.249023 -2.592506 -0.066621 0
M  V30 26 C -4.648684 -1.167339 0.244477 0
M  V30 27 C -2.978519 2.194570 -2.419132 0
M  V30 28 N -1.832329 2.843868 -2.660664 0
M  V30 29 N 2.487893 3.472764 -2.805582 0
M  V30 30 C 3.697692 2.845247 -2.802167 0
M  V30 31 N 4.106943 1.962838 -1.846923 0
M  V30 32 C 2.945017 0.328485 1.265312 0
M  V30 33 C 3.356215 -0.583634 2.211900 0
M  V30 34 N 2.846986 -1.146118 3.326058 0
M  V30 35 C 1.540240 -0.783043 3.746971 0
M  V30 36 C 0.516688 -1.093547 2.642908 0
M  V30 37 C 1.011479 -1.321158 5.001921 0
M  V30 38 H 3.033111 -3.769925 4.905747 0
M  V30 39 H 4.601769 -3.166320 5.375318 0
M  V30 40 H 3.240392 -2.249778 5.963798 0
M  V30 41 H 5.654691 0.433584 -0.783603 0
M  V30 42 H 1.423222 2.058457 -0.011347 0
M  V30 43 H 0.276336 4.766654 -1.300318 0
M  V30 44 H -0.762964 2.801725 0.561266 0
M  V30 45 H -5.433472 1.380150 -1.471726 0
M  V30 46 H -4.905981 1.360770 0.221363 0
M  V30 47 H -4.939053 -1.726879 -2.291265 0
M  V30 48 H -3.981660 -0.356872 -2.944649 0
M  V30 49 H -2.009758 -1.056053 -1.641239 0
M  V30 50 H -2.565198 -2.286257 -2.806449 0
M  V30 51 H -2.901064 -4.688056 -0.157278 0
M  V30 52 H -4.676703 -4.600898 -1.941834 0
M  V30 53 H -3.304624 -4.257853 -3.136696 0
M  V30 54 H -3.366078 -5.750488 -2.179784 0
M  V30 55 H -0.973092 -3.243760 -1.915250 0
M  V30 56 H -1.176711 -5.013168 -2.283440 0
M  V30 57 H -0.693057 -4.450346 -0.597795 0
M  V30 58 H -4.083031 -3.094276 0.931710 0
M  V30 59 H -5.062929 -3.167720 -0.549214 0
M  V30 60 H -4.192805 -0.815008 1.195169 0
M  V30 61 H -5.770015 -1.218669 0.402528 0
M  V30 62 H -3.645816 1.997078 -3.230456 0
M  V30 63 H 4.341303 3.111850 -3.654447 0
M  V30 64 H 1.956428 0.739871 1.405161 0
M  V30 65 H 1.521257 0.344510 3.827404 0
M  V30 66 H 1.043590 -1.481732 1.724898 0
M  V30 67 H -0.125464 -1.940895 2.962096 0
M  V30 68 H -0.063938 -0.223764 2.338489 0
M  V30 69 H 1.329224 -0.815882 5.932783 0
M  V30 70 H -0.103672 -1.113112 4.979614 0
M  V30 71 H 1.058157 -2.417830 5.015477 0
M  V30 END ATOM
M  V30 BEGIN BOND
M  V30 1 1 1 2
M  V30 2 2 2 3
M  V30 3 1 3 4
M  V30 4 2 4 5
M  V30 5 1 5 6
M  V30 6 1 5 7
M  V30 7 2 7 8
M  V30 8 1 8 9
M  V30 9 2 9 10
M  V30 10 1 10 11
M  V30 11 1 11 12
M  V30 12 1 12 13
M  V30 13 2 13 14
M  V30 14 1 14 15
M  V30 15 2 15 16
M  V30 16 1 16 17
M  V30 17 1 17 18
M  V30 18 1 18 19
M  V30 19 1 19 20
M  V30 20 1 20 21
M  V30 21 1 21 22
M  V30 22 1 22 23
M  V30 23 1 22 24
M  V30 24 1 21 25
M  V30 25 1 25 26
M  V30 26 1 16 27
M  V30 27 2 27 28
M  V30 28 2 11 29
M  V30 29 1 29 30
M  V30 30 2 30 31
M  V30 31 1 8 32
M  V30 32 2 32 33
M  V30 33 1 33 34
M  V30 34 1 34 35
M  V30 35 1 35 36
M  V30 36 1 35 37
M  V30 37 1 34 2
M  V30 38 1 33 4
M  V30 39 1 31 9
M  V30 40 1 28 13
M  V30 41 1 26 18
M  V30 42 1 1 38
M  V30 43 1 1 39
M  V30 44 1 1 40
M  V30 45 1 7 41
M  V30 46 1 10 42
M  V30 47 1 12 43
M  V30 48 1 14 44
M  V30 49 1 17 45
M  V30 50 1 17 46
M  V30 51 1 19 47
M  V30 52 1 19 48
M  V30 53 1 20 49
M  V30 54 1 20 50
M  V30 55 1 22 51
M  V30 56 1 23 52
M  V30 57 1 23 53
M  V30 58 1 23 54
M  V30 59 1 24 55
M  V30 60 1 24 56
M  V30 61 1 24 57
M  V30 62 1 25 58
M  V30 63 1 25 59
M  V30 64 1 26 60
M  V30 65 1 26 61
M  V30 66 1 27 62
M  V30 67 1 30 63
M  V30 68 1 32 64
M  V30 69 1 35 65
M  V30 70 1 36 66
M  V30 71 1 36 67
M  V30 72 1 36 68
M  V30 73 1 37 69
M  V30 74 1 37 70
M  V30 75 1 37 71
M  V30 END BOND
M  V30 END CTAB
M  END
>  <Dataset>  (357) 
ChEMBL_Kinases

>  <Ligand_Instance>  (357) 
nan

>  <PDB_ID>  (357) 
nan

>  <Standardized_SMILES>  (357) 
Cc1nc2c(F)cc(-c3cc(Nc4cnc(CN5CCN(C(C)C)CC5)cn4)ncn3)cc2n1C(C)C

>  <Name>  (357) 
nan

>  <Pocket>  (357) 
nan

>  <ATP_Site>  (357) 
nan

>  <Peripheral>  (357) 
nan

>  <Num_H_Atoms_ProtBoundConf>  (357) 
nan

>  <Num_Resolved_Atoms>  (357) 
nan

>  <Num_Not_Resolved_Atoms>  (357) 
nan

$$$$
CHEMBL175845
     RDKit          3D

  0  0  0  0  0  0  0  0  0  0999 V3000
M  V30 BEGIN CTAB
M  V30 COUNTS 79 86 0 0 0
M  V30 BEGIN ATOM
M  V30 1 C -1.711067 -6.292466 -2.733527 0
M  V30 2 N -0.364843 -5.748685 -2.712949 0
M  V30 3 C 0.631592 -6.780522 -2.905059 0
M  V30 4 C 1.989986 -6.146578 -2.829234 0
M  V30 5 N 1.928393 -4.707678 -2.535915 0
M  V30 6 C 3.301836 -4.244576 -2.588847 0
M  V30 7 C 3.430746 -2.783010 -2.310945 0
M  V30 8 C 2.910511 -2.446812 -0.934606 0
M  V30 9 N 3.027476 -1.025465 -0.659339 0
M  V30 10 N 2.053230 -0.236025 -0.970328 0
M  V30 11 C 2.272882 1.049638 -0.675418 0
M  V30 12 C 1.522772 2.306805 -0.784992 0
M  V30 13 C 0.276198 2.671327 -0.449708 0
M  V30 14 C -0.838398 1.965347 0.158087 0
M  V30 15 C -1.524857 2.462197 1.275045 0
M  V30 16 N -2.530326 1.612091 1.626072 0
M  V30 17 C -3.389498 1.879097 2.734441 0
M  V30 18 C -4.753718 1.723671 2.586499 0
M  V30 19 C -5.614608 1.974111 3.636054 0
M  V30 20 C -5.161160 2.385393 4.864067 0
M  V30 21 C -6.020536 2.642245 5.931747 0
M  V30 22 C -5.505286 3.060434 7.162894 0
M  V30 23 C -4.140197 3.212157 7.297742 0
M  V30 24 C -3.263314 2.959207 6.238896 0
M  V30 25 C -3.788282 2.546918 5.029458 0
M  V30 26 C -2.913205 2.295861 3.974628 0
M  V30 27 C -2.539556 0.571894 0.787623 0
M  V30 28 C -3.333730 -0.545843 0.686945 0
M  V30 29 C -3.056943 -1.424216 -0.334466 0
M  V30 30 C -2.029753 -1.257718 -1.270683 0
M  V30 31 C -1.281166 -0.118290 -1.103435 0
M  V30 32 C -1.510440 0.794807 -0.100068 0
M  V30 33 C 0.075902 4.069867 -0.824259 0
M  V30 34 O -0.961069 4.799498 -0.680230 0
M  V30 35 N 1.266881 4.581706 -1.421533 0
M  V30 36 C 2.179319 3.465589 -1.396037 0
M  V30 37 O 3.325731 3.697901 -1.890104 0
M  V30 38 C 3.545268 0.983688 -0.119736 0
M  V30 39 C 4.467639 1.871340 0.436880 0
M  V30 40 C 5.685738 1.514276 0.930102 0
M  V30 41 C 6.072896 0.199778 0.897567 0
M  V30 42 C 5.221826 -0.741896 0.365510 0
M  V30 43 C 4.017881 -0.310724 -0.109349 0
M  V30 44 C 1.172198 -4.140076 -3.660225 0
M  V30 45 C -0.213274 -4.690127 -3.692720 0
M  V30 46 H -2.117445 -6.322923 -1.720423 0
M  V30 47 H -1.728255 -7.296323 -3.168817 0
M  V30 48 H -2.336984 -5.560061 -3.312468 0
M  V30 49 H 0.423153 -7.270198 -3.887820 0
M  V30 50 H 0.500024 -7.502660 -2.067657 0
M  V30 51 H 2.655283 -6.586882 -2.058855 0
M  V30 52 H 2.468991 -6.215093 -3.839659 0
M  V30 53 H 3.700327 -4.484169 -3.591225 0
M  V30 54 H 3.898035 -4.817101 -1.852034 0
M  V30 55 H 2.937775 -2.172281 -3.097313 0
M  V30 56 H 4.495325 -2.472016 -2.332622 0
M  V30 57 H 3.581533 -2.954772 -0.196033 0
M  V30 58 H 1.883060 -2.808310 -0.783946 0
M  V30 59 H -1.282762 3.403366 1.789887 0
M  V30 60 H -5.234137 1.406931 1.670827 0
M  V30 61 H -6.692773 1.866114 3.570016 0
M  V30 62 H -7.095748 2.500579 5.752553 0
M  V30 63 H -6.216282 3.244080 7.951492 0
M  V30 64 H -3.779316 3.540002 8.273233 0
M  V30 65 H -2.193247 3.102656 6.424346 0
M  V30 66 H -1.845911 2.413997 4.078005 0
M  V30 67 H -4.120350 -0.694974 1.386597 0
M  V30 68 H -3.667793 -2.309385 -0.432457 0
M  V30 69 H -1.883868 -1.999014 -2.041887 0
M  V30 70 H -0.495625 0.041561 -1.821947 0
M  V30 71 H 1.383545 5.570376 -1.780910 0
M  V30 72 H 4.223872 2.912370 0.503777 0
M  V30 73 H 6.367686 2.237335 1.351375 0
M  V30 74 H 7.023996 -0.123078 1.275279 0
M  V30 75 H 5.533790 -1.775819 0.342849 0
M  V30 76 H 1.177797 -3.030941 -3.650772 0
M  V30 77 H 1.682818 -4.432385 -4.611480 0
M  V30 78 H -0.960735 -3.902212 -3.457991 0
M  V30 79 H -0.496999 -5.141189 -4.686662 0
M  V30 END ATOM
M  V30 BEGIN BOND
M  V30 1 1 1 2
M  V30 2 1 2 3
M  V30 3 1 3 4
M  V30 4 1 4 5
M  V30 5 1 5 6
M  V30 6 1 6 7
M  V30 7 1 7 8
M  V30 8 1 8 9
M  V30 9 1 9 10
M  V30 10 2 10 11
M  V30 11 1 11 12
M  V30 12 2 12 13
M  V30 13 1 13 14
M  V30 14 2 14 15
M  V30 15 1 15 16
M  V30 16 1 16 17
M  V30 17 2 17 18
M  V30 18 1 18 19
M  V30 19 2 19 20
M  V30 20 1 20 21
M  V30 21 2 21 22
M  V30 22 1 22 23
M  V30 23 2 23 24
M  V30 24 1 24 25
M  V30 25 2 25 26
M  V30 26 1 16 27
M  V30 27 2 27 28
M  V30 28 1 28 29
M  V30 29 2 29 30
M  V30 30 1 30 31
M  V30 31 2 31 32
M  V30 32 1 13 33
M  V30 33 2 33 34
M  V30 34 1 33 35
M  V30 35 1 35 36
M  V30 36 2 36 37
M  V30 37 1 11 38
M  V30 38 2 38 39
M  V30 39 1 39 40
M  V30 40 2 40 41
M  V30 41 1 41 42
M  V30 42 2 42 43
M  V30 43 1 5 44
M  V30 44 1 44 45
M  V30 45 1 45 2
M  V30 46 1 43 9
M  V30 47 1 36 12
M  V30 48 1 43 38
M  V30 49 1 32 14
M  V30 50 1 26 17
M  V30 51 1 32 27
M  V30 52 1 25 20
M  V30 53 1 1 46
M  V30 54 1 1 47
M  V30 55 1 1 48
M  V30 56 1 3 49
M  V30 57 1 3 50
M  V30 58 1 4 51
M  V30 59 1 4 52
M  V30 60 1 6 53
M  V30 61 1 6 54
M  V30 62 1 7 55
M  V30 63 1 7 56
M  V30 64 1 8 57
M  V30 65 1 8 58
M  V30 66 1 15 59
M  V30 67 1 18 60
M  V30 68 1 19 61
M  V30 69 1 21 62
M  V30 70 1 22 63
M  V30 71 1 23 64
M  V30 72 1 24 65
M  V30 73 1 26 66
M  V30 74 1 28 67
M  V30 75 1 29 68
M  V30 76 1 30 69
M  V30 77 1 31 70
M  V30 78 1 35 71
M  V30 79 1 39 72
M  V30 80 1 40 73
M  V30 81 1 41 74
M  V30 82 1 42 75
M  V30 83 1 44 76
M  V30 84 1 44 77
M  V30 85 1 45 78
M  V30 86 1 45 79
M  V30 END BOND
M  V30 END CTAB
M  END
>  <Dataset>  (358) 
ChEMBL_Kinases

>  <Ligand_Instance>  (358) 
nan

>  <PDB_ID>  (358) 
nan

>  <Standardized_SMILES>  (358) 
CN1CCN(CCCn2nc(C3=C(c4cn(-c5ccc6ccccc6c5)c5ccccc45)C(=O)NC3=O)c3ccccc32)CC1

>  <Name>  (358) 
nan

>  <Pocket>  (358) 
nan

>  <ATP_Site>  (358) 
nan

>  <Peripheral>  (358) 
nan

>  <Num_H_Atoms_ProtBoundConf>  (358) 
nan

>  <Num_Resolved_Atoms>  (358) 
nan

>  <Num_Not_Resolved_Atoms>  (358) 
nan

$$$$
CHEMBL4202753
     RDKit          3D

  0  0  0  0  0  0  0  0  0  0999 V3000
M  V30 BEGIN CTAB
M  V30 COUNTS 51 56 0 0 0
M  V30 BEGIN ATOM
M  V30 1 C -3.886473 -0.663116 -0.642195 0
M  V30 2 O -2.524342 -0.521237 -0.962173 0
M  V30 3 C -1.610889 -1.575208 -0.879647 0
M  V30 4 C -1.962296 -2.861725 -0.473917 0
M  V30 5 C -1.031289 -3.875569 -0.405411 0
M  V30 6 C 0.282113 -3.598875 -0.750115 0
M  V30 7 C 0.645406 -2.336757 -1.152002 0
M  V30 8 C -0.299030 -1.312961 -1.220298 0
M  V30 9 C 0.188315 0.006270 -1.662802 0
M  V30 10 C 0.269485 0.535431 -2.946822 0
M  V30 11 N 0.781853 1.774822 -2.835160 0
M  V30 12 N 1.038911 2.089878 -1.579344 0
M  V30 13 C 1.544441 3.191289 -0.993861 0
M  V30 14 C 1.693795 3.209950 0.379171 0
M  V30 15 C 1.330730 2.112644 1.156956 0
M  V30 16 C 1.571162 2.342866 2.582227 0
M  V30 17 C 2.784383 2.915761 2.982173 0
M  V30 18 C 3.048052 3.148198 4.318672 0
M  V30 19 N 2.155336 2.835423 5.283651 0
M  V30 20 C 0.971707 2.278854 4.920602 0
M  V30 21 N -0.109570 1.861491 5.641906 0
M  V30 22 C -1.045826 1.374163 4.808527 0
M  V30 23 C -0.572410 1.472875 3.520087 0
M  V30 24 C 0.682239 2.035760 3.593203 0
M  V30 25 C 0.815444 0.999263 0.523655 0
M  V30 26 C 0.681360 1.018312 -0.849010 0
M  V30 27 C 1.346073 -4.621467 -0.707013 0
M  V30 28 N 0.889421 -5.939083 -0.457984 0
M  V30 29 C -0.490673 -6.205636 -0.658685 0
M  V30 30 C -1.431961 -5.234710 0.029348 0
M  V30 31 H -4.309008 0.380181 -0.640942 0
M  V30 32 H -4.458060 -1.238397 -1.381490 0
M  V30 33 H -4.071947 -1.059699 0.381198 0
M  V30 34 H -3.012583 -3.027877 -0.212524 0
M  V30 35 H 1.686519 -2.118704 -1.424936 0
M  V30 36 H -0.039781 -0.007228 -3.817933 0
M  V30 37 H 1.812311 4.016513 -1.628685 0
M  V30 38 H 2.107472 4.138337 0.752008 0
M  V30 39 H 3.548294 3.190952 2.243486 0
M  V30 40 H 3.970728 3.589431 4.687462 0
M  V30 41 H -0.233054 1.896068 6.675983 0
M  V30 42 H -2.014310 0.972103 5.127597 0
M  V30 43 H -1.100319 1.163267 2.645679 0
M  V30 44 H 0.566662 0.207683 1.209673 0
M  V30 45 H 1.794091 -4.622794 -1.741538 0
M  V30 46 H 2.185829 -4.351279 -0.044006 0
M  V30 47 H 1.228836 -6.350958 0.436344 0
M  V30 48 H -0.676756 -7.241091 -0.272146 0
M  V30 49 H -0.792183 -6.240642 -1.736734 0
M  V30 50 H -1.245914 -5.373739 1.134576 0
M  V30 51 H -2.454590 -5.505739 -0.232149 0
M  V30 END ATOM
M  V30 BEGIN BOND
M  V30 1 1 1 2
M  V30 2 1 2 3
M  V30 3 2 3 4
M  V30 4 1 4 5
M  V30 5 2 5 6
M  V30 6 1 6 7
M  V30 7 2 7 8
M  V30 8 1 8 9
M  V30 9 1 9 10
M  V30 10 2 10 11
M  V30 11 1 11 12
M  V30 12 1 12 13
M  V30 13 2 13 14
M  V30 14 1 14 15
M  V30 15 1 15 16
M  V30 16 2 16 17
M  V30 17 1 17 18
M  V30 18 2 18 19
M  V30 19 1 19 20
M  V30 20 1 20 21
M  V30 21 1 21 22
M  V30 22 2 22 23
M  V30 23 1 23 24
M  V30 24 2 15 25
M  V30 25 1 25 26
M  V30 26 1 6 27
M  V30 27 1 27 28
M  V30 28 1 28 29
M  V30 29 1 29 30
M  V30 30 1 8 3
M  V30 31 2 26 9
M  V30 32 1 30 5
M  V30 33 1 26 12
M  V30 34 1 24 16
M  V30 35 2 24 20
M  V30 36 1 1 31
M  V30 37 1 1 32
M  V30 38 1 1 33
M  V30 39 1 4 34
M  V30 40 1 7 35
M  V30 41 1 10 36
M  V30 42 1 13 37
M  V30 43 1 14 38
M  V30 44 1 17 39
M  V30 45 1 18 40
M  V30 46 1 21 41
M  V30 47 1 22 42
M  V30 48 1 23 43
M  V30 49 1 25 44
M  V30 50 1 27 45
M  V30 51 1 27 46
M  V30 52 1 28 47
M  V30 53 1 29 48
M  V30 54 1 29 49
M  V30 55 1 30 50
M  V30 56 1 30 51
M  V30 END BOND
M  V30 END CTAB
M  END
>  <Dataset>  (359) 
ChEMBL_Kinases

>  <Ligand_Instance>  (359) 
nan

>  <PDB_ID>  (359) 
nan

>  <Standardized_SMILES>  (359) 
COc1cc2c(cc1-c1cnn3ccc(-c4ccnc5[nH]ccc45)cc13)CNCC2

>  <Name>  (359) 
nan

>  <Pocket>  (359) 
nan

>  <ATP_Site>  (359) 
nan

>  <Peripheral>  (359) 
nan

>  <Num_H_Atoms_ProtBoundConf>  (359) 
nan

>  <Num_Resolved_Atoms>  (359) 
nan

>  <Num_Not_Resolved_Atoms>  (359) 
nan

$$$$
CHEMBL3322565
     RDKit          3D

  0  0  0  0  0  0  0  0  0  0999 V3000
M  V30 BEGIN CTAB
M  V30 COUNTS 60 63 0 0 0
M  V30 BEGIN ATOM
M  V30 1 C 10.194714 0.748125 0.374182 0
M  V30 2 O 8.952655 0.856625 -0.299431 0
M  V30 3 C 7.872646 1.474892 0.313266 0
M  V30 4 C 7.909363 2.015950 1.578505 0
M  V30 5 C 6.831193 2.629696 2.183419 0
M  V30 6 C 5.684959 2.665462 1.414553 0
M  V30 7 N 4.478609 3.276364 1.920797 0
M  V30 8 C 3.732434 2.264804 2.589033 0
M  V30 9 O 4.275538 1.138109 2.579303 0
M  V30 10 C 2.420047 2.453966 3.260511 0
M  V30 11 C 1.446642 1.567528 2.571224 0
M  V30 12 O 0.279748 1.653091 3.089074 0
M  V30 13 N 1.584433 0.675813 1.477409 0
M  V30 14 C 0.338252 0.020451 1.154980 0
M  V30 15 C 0.128214 -1.188359 1.820192 0
M  V30 16 C -1.035308 -1.890732 1.577379 0
M  V30 17 C -1.941151 -1.359045 0.681856 0
M  V30 18 C -1.762533 -0.166795 0.008421 0
M  V30 19 C -0.593851 0.534815 0.254710 0
M  V30 20 N -2.871482 0.111167 -0.842161 0
M  V30 21 C -3.779860 -0.958320 -0.688855 0
M  V30 22 O -4.855426 -0.961250 -1.330428 0
M  V30 23 C -3.228886 -1.891942 0.253792 0
M  V30 24 C -3.915373 -2.961308 0.600549 0
M  V30 25 C -5.200644 -3.462633 0.140636 0
M  V30 26 N -6.347615 -3.746823 0.733561 0
M  V30 27 C -7.224415 -4.261633 -0.141739 0
M  V30 28 C -8.604398 -4.676115 0.247568 0
M  V30 29 C -6.597781 -4.312824 -1.383786 0
M  V30 30 C -7.359770 -4.846204 -2.523966 0
M  V30 31 O -7.160211 -6.084949 -2.578040 0
M  V30 32 O -8.190529 -4.183776 -3.448773 0
M  V30 33 C -5.313117 -3.808200 -1.212952 0
M  V30 34 C -4.491588 -3.827862 -2.475333 0
M  V30 35 C 5.579051 2.140246 0.133883 0
M  V30 36 C 6.708437 1.528734 -0.427430 0
M  V30 37 H 10.840040 0.071500 -0.215686 0
M  V30 38 H 10.074456 0.308072 1.390619 0
M  V30 39 H 10.663297 1.736960 0.392465 0
M  V30 40 H 8.859837 1.926514 2.078684 0
M  V30 41 H 6.877140 3.042367 3.160570 0
M  V30 42 H 4.049229 4.249040 1.907395 0
M  V30 43 H 2.486924 2.233213 4.350717 0
M  V30 44 H 2.081718 3.504985 3.196714 0
M  V30 45 H 2.560955 0.663969 1.110352 0
M  V30 46 H 0.869792 -1.578491 2.524123 0
M  V30 47 H -1.227111 -2.834414 2.078427 0
M  V30 48 H -0.361004 1.480110 -0.223602 0
M  V30 49 H -2.939929 0.962649 -1.440700 0
M  V30 50 H -3.462783 -3.605546 1.369950 0
M  V30 51 H -6.493296 -3.571176 1.755989 0
M  V30 52 H -8.642673 -5.187264 1.224566 0
M  V30 53 H -9.264052 -3.803554 0.189285 0
M  V30 54 H -8.949676 -5.379264 -0.566376 0
M  V30 55 H -8.285731 -4.591181 -4.384816 0
M  V30 56 H -5.002829 -3.275308 -3.283665 0
M  V30 57 H -4.402586 -4.876128 -2.776014 0
M  V30 58 H -3.508244 -3.331548 -2.327967 0
M  V30 59 H 4.641584 2.200168 -0.424021 0
M  V30 60 H 6.548619 1.142292 -1.428051 0
M  V30 END ATOM
M  V30 BEGIN BOND
M  V30 1 1 1 2
M  V30 2 1 2 3
M  V30 3 2 3 4
M  V30 4 1 4 5
M  V30 5 2 5 6
M  V30 6 1 6 7
M  V30 7 1 7 8
M  V30 8 2 8 9
M  V30 9 1 8 10
M  V30 10 1 10 11
M  V30 11 2 11 12
M  V30 12 1 11 13
M  V30 13 1 13 14
M  V30 14 2 14 15
M  V30 15 1 15 16
M  V30 16 2 16 17
M  V30 17 1 17 18
M  V30 18 2 18 19
M  V30 19 1 18 20
M  V30 20 1 20 21
M  V30 21 2 21 22
M  V30 22 1 21 23
M  V30 23 2 23 24
M  V30 24 1 24 25
M  V30 25 1 25 26
M  V30 26 1 26 27
M  V30 27 1 27 28
M  V30 28 2 27 29
M  V30 29 1 29 30
M  V30 30 2 30 31
M  V30 31 1 30 32
M  V30 32 1 29 33
M  V30 33 1 33 34
M  V30 34 1 6 35
M  V30 35 2 35 36
M  V30 36 1 36 3
M  V30 37 1 19 14
M  V30 38 2 33 25
M  V30 39 1 23 17
M  V30 40 1 1 37
M  V30 41 1 1 38
M  V30 42 1 1 39
M  V30 43 1 4 40
M  V30 44 1 5 41
M  V30 45 1 7 42
M  V30 46 1 10 43
M  V30 47 1 10 44
M  V30 48 1 13 45
M  V30 49 1 15 46
M  V30 50 1 16 47
M  V30 51 1 19 48
M  V30 52 1 20 49
M  V30 53 1 24 50
M  V30 54 1 26 51
M  V30 55 1 28 52
M  V30 56 1 28 53
M  V30 57 1 28 54
M  V30 58 1 32 55
M  V30 59 1 34 56
M  V30 60 1 34 57
M  V30 61 1 34 58
M  V30 62 1 35 59
M  V30 63 1 36 60
M  V30 END BOND
M  V30 END CTAB
M  END
>  <Dataset>  (360) 
ChEMBL_Kinases

>  <Ligand_Instance>  (360) 
nan

>  <PDB_ID>  (360) 
nan

>  <Standardized_SMILES>  (360) 
COc1ccc(NC(=O)CC(=O)Nc2ccc3c(c2)NC(=O)/C3=C\c2[nH]c(C)c(C(=O)O)c2C)cc1

>  <Name>  (360) 
nan

>  <Pocket>  (360) 
nan

>  <ATP_Site>  (360) 
nan

>  <Peripheral>  (360) 
nan

>  <Num_H_Atoms_ProtBoundConf>  (360) 
nan

>  <Num_Resolved_Atoms>  (360) 
nan

>  <Num_Not_Resolved_Atoms>  (360) 
nan

$$$$
CHEMBL3322563
     RDKit          3D

  0  0  0  0  0  0  0  0  0  0999 V3000
M  V30 BEGIN CTAB
M  V30 COUNTS 47 50 0 0 0
M  V30 BEGIN ATOM
M  V30 1 O 1.791168 -6.292015 -0.370214 0
M  V30 2 C 1.431787 -5.070459 -0.249799 0
M  V30 3 C 2.566233 -4.154456 -0.369324 0
M  V30 4 C 2.235402 -2.726265 -0.225680 0
M  V30 5 O 1.764274 -2.616779 0.935631 0
M  V30 6 N 2.361586 -1.618146 -1.101681 0
M  V30 7 C 1.889002 -0.440946 -0.466120 0
M  V30 8 C 2.876062 0.236505 0.224933 0
M  V30 9 C 2.555751 1.404567 0.898166 0
M  V30 10 C 1.237941 1.816284 0.826564 0
M  V30 11 C 0.238436 1.153787 0.141698 0
M  V30 12 C 0.589811 -0.013465 -0.522978 0
M  V30 13 N -1.001987 1.837404 0.266818 0
M  V30 14 C -0.773996 2.977345 1.064247 0
M  V30 15 O -1.707961 3.765956 1.339013 0
M  V30 16 C 0.614592 2.988518 1.426339 0
M  V30 17 C 1.072183 3.953540 2.205062 0
M  V30 18 C 0.431673 5.118369 2.789344 0
M  V30 19 C -0.349965 6.033366 2.168342 0
M  V30 20 C -0.760081 6.945849 3.117139 0
M  V30 21 C -0.196018 6.547492 4.333454 0
M  V30 22 N 0.520474 5.434737 4.094256 0
M  V30 23 N 0.106207 -4.632660 -0.029003 0
M  V30 24 C -1.189286 -5.137295 0.136811 0
M  V30 25 C -1.894721 -5.281446 -1.060719 0
M  V30 26 C -3.201173 -5.767188 -1.117115 0
M  V30 27 C -3.747442 -6.096256 0.103114 0
M  V30 28 F -5.023547 -6.577825 0.112153 0
M  V30 29 C -3.120418 -5.984039 1.325952 0
M  V30 30 C -1.815403 -5.491993 1.314203 0
M  V30 31 H 3.026011 -4.335051 -1.368293 0
M  V30 32 H 3.328161 -4.490833 0.371207 0
M  V30 33 H 2.780426 -1.929683 -2.029404 0
M  V30 34 H 3.918440 -0.088183 0.281671 0
M  V30 35 H 3.287078 1.977811 1.456455 0
M  V30 36 H -0.134385 -0.563699 -1.064691 0
M  V30 37 H -1.863338 1.494335 -0.175303 0
M  V30 38 H 2.136609 3.869531 2.464964 0
M  V30 39 H -0.678199 6.190896 1.170205 0
M  V30 40 H -1.379750 7.840686 3.125199 0
M  V30 41 H -0.278702 6.999023 5.313180 0
M  V30 42 H 1.064057 4.901137 4.829696 0
M  V30 43 H -0.127717 -3.623950 0.060087 0
M  V30 44 H -1.477002 -5.024146 -2.047153 0
M  V30 45 H -3.722377 -5.868152 -2.054316 0
M  V30 46 H -3.573419 -6.248669 2.257991 0
M  V30 47 H -1.216390 -5.357809 2.219495 0
M  V30 END ATOM
M  V30 BEGIN BOND
M  V30 1 2 1 2
M  V30 2 1 2 3
M  V30 3 1 3 4
M  V30 4 2 4 5
M  V30 5 1 4 6
M  V30 6 1 6 7
M  V30 7 2 7 8
M  V30 8 1 8 9
M  V30 9 2 9 10
M  V30 10 1 10 11
M  V30 11 2 11 12
M  V30 12 1 11 13
M  V30 13 1 13 14
M  V30 14 2 14 15
M  V30 15 1 14 16
M  V30 16 2 16 17
M  V30 17 1 17 18
M  V30 18 2 18 19
M  V30 19 1 19 20
M  V30 20 2 20 21
M  V30 21 1 21 22
M  V30 22 1 2 23
M  V30 23 1 23 24
M  V30 24 2 24 25
M  V30 25 1 25 26
M  V30 26 2 26 27
M  V30 27 1 27 28
M  V30 28 1 27 29
M  V30 29 2 29 30
M  V30 30 1 12 7
M  V30 31 1 22 18
M  V30 32 1 30 24
M  V30 33 1 16 10
M  V30 34 1 3 31
M  V30 35 1 3 32
M  V30 36 1 6 33
M  V30 37 1 8 34
M  V30 38 1 9 35
M  V30 39 1 12 36
M  V30 40 1 13 37
M  V30 41 1 17 38
M  V30 42 1 19 39
M  V30 43 1 20 40
M  V30 44 1 21 41
M  V30 45 1 22 42
M  V30 46 1 23 43
M  V30 47 1 25 44
M  V30 48 1 26 45
M  V30 49 1 29 46
M  V30 50 1 30 47
M  V30 END BOND
M  V30 END CTAB
M  END
>  <Dataset>  (361) 
ChEMBL_Kinases

>  <Ligand_Instance>  (361) 
nan

>  <PDB_ID>  (361) 
nan

>  <Standardized_SMILES>  (361) 
O=C(CC(=O)Nc1ccc2c(c1)NC(=O)/C2=C\c1ccc[nH]1)Nc1ccc(F)cc1

>  <Name>  (361) 
nan

>  <Pocket>  (361) 
nan

>  <ATP_Site>  (361) 
nan

>  <Peripheral>  (361) 
nan

>  <Num_H_Atoms_ProtBoundConf>  (361) 
nan

>  <Num_Resolved_Atoms>  (361) 
nan

>  <Num_Not_Resolved_Atoms>  (361) 
nan

$$$$
CHEMBL4785414
     RDKit          3D

  0  0  0  0  0  0  0  0  0  0999 V3000
M  V30 BEGIN CTAB
M  V30 COUNTS 66 70 0 0 0
M  V30 BEGIN ATOM
M  V30 1 O 4.609919 -4.325338 1.543492 0
M  V30 2 C 3.603009 -3.724048 1.095994 0
M  V30 3 N 3.260564 -2.493440 1.697552 0
M  V30 4 C 3.958628 -1.874073 2.767320 0
M  V30 5 C 5.080670 -2.286679 3.452322 0
M  V30 6 N 5.443096 -1.417446 4.407697 0
M  V30 7 N 4.553010 -0.444581 4.337131 0
M  V30 8 C 3.656606 -0.676899 3.378420 0
M  V30 9 C 2.552130 0.226258 3.072421 0
M  V30 10 O 1.693433 0.019645 2.179105 0
M  V30 11 N 2.352162 1.439289 3.774140 0
M  V30 12 C 1.248836 2.261765 3.412495 0
M  V30 13 C 0.127351 1.906703 4.172726 0
M  V30 14 C -1.084903 2.573739 3.998921 0
M  V30 15 C -1.135121 3.587738 3.057394 0
M  V30 16 N -2.287041 4.359581 2.762151 0
M  V30 17 C -2.353316 5.417912 1.772918 0
M  V30 18 C -2.997114 4.834675 0.533782 0
M  V30 19 C -3.919727 3.717040 0.989769 0
M  V30 20 C -4.612060 4.180846 2.273846 0
M  V30 21 C -3.578219 4.210340 3.404479 0
M  V30 22 N -0.036138 3.904483 2.342053 0
M  V30 23 C 1.136347 3.274908 2.495298 0
M  V30 24 C 2.904958 -4.368866 0.005716 0
M  V30 25 C 3.394893 -5.589008 -0.447158 0
M  V30 26 N 2.792153 -6.251746 -1.468898 0
M  V30 27 C 1.704013 -5.752965 -2.076479 0
M  V30 28 C 1.153357 -4.552884 -1.692385 0
M  V30 29 O 0.065952 -3.834510 -2.139687 0
M  V30 30 C -0.720640 -4.293592 -3.183518 0
M  V30 31 C -0.854150 -3.288751 -4.314738 0
M  V30 32 C -1.396609 -4.046540 -5.510528 0
M  V30 33 N -2.347792 -5.052240 -5.034723 0
M  V30 34 C -3.047291 -4.567829 -3.851417 0
M  V30 35 C -2.153086 -4.470287 -2.657475 0
M  V30 36 C 1.772170 -3.873796 -0.644318 0
M  V30 37 H 2.426754 -2.013867 1.314021 0
M  V30 38 H 5.643465 -3.193831 3.283120 0
M  V30 39 H 6.252424 -1.494221 5.063719 0
M  V30 40 H 3.025205 1.703520 4.546996 0
M  V30 41 H 0.063449 1.122188 4.939837 0
M  V30 42 H -1.968007 2.346755 4.548206 0
M  V30 43 H -2.922815 6.303503 2.100441 0
M  V30 44 H -1.303533 5.722315 1.591553 0
M  V30 45 H -2.235447 4.428310 -0.164725 0
M  V30 46 H -3.578799 5.616422 -0.022284 0
M  V30 47 H -3.324506 2.824365 1.259634 0
M  V30 48 H -4.649971 3.546884 0.187296 0
M  V30 49 H -5.015984 5.201499 2.120437 0
M  V30 50 H -5.437933 3.497125 2.512956 0
M  V30 51 H -3.682258 3.251311 3.921431 0
M  V30 52 H -3.817791 5.076867 4.051556 0
M  V30 53 H 2.061552 3.450766 1.978996 0
M  V30 54 H 4.248650 -6.108357 -0.063359 0
M  V30 55 H 1.174214 -6.218105 -2.888585 0
M  V30 56 H -0.413617 -5.253280 -3.620669 0
M  V30 57 H -1.621475 -2.547571 -4.024515 0
M  V30 58 H 0.113102 -2.797282 -4.539835 0
M  V30 59 H -0.588263 -4.635916 -6.013571 0
M  V30 60 H -1.886670 -3.368060 -6.237757 0
M  V30 61 H -3.087217 -5.179613 -5.775245 0
M  V30 62 H -3.966259 -5.166739 -3.701877 0
M  V30 63 H -3.406041 -3.533560 -4.097760 0
M  V30 64 H -2.398726 -3.598261 -2.016436 0
M  V30 65 H -2.154010 -5.368836 -2.022898 0
M  V30 66 H 1.467236 -2.918036 -0.219266 0
M  V30 END ATOM
M  V30 BEGIN BOND
M  V30 1 2 1 2
M  V30 2 1 2 3
M  V30 3 1 3 4
M  V30 4 2 4 5
M  V30 5 1 5 6
M  V30 6 1 6 7
M  V30 7 2 7 8
M  V30 8 1 8 9
M  V30 9 2 9 10
M  V30 10 1 9 11
M  V30 11 1 11 12
M  V30 12 2 12 13
M  V30 13 1 13 14
M  V30 14 2 14 15
M  V30 15 1 15 16
M  V30 16 1 16 17
M  V30 17 1 17 18
M  V30 18 1 18 19
M  V30 19 1 19 20
M  V30 20 1 20 21
M  V30 21 1 15 22
M  V30 22 2 22 23
M  V30 23 1 2 24
M  V30 24 2 24 25
M  V30 25 1 25 26
M  V30 26 2 26 27
M  V30 27 1 27 28
M  V30 28 1 28 29
M  V30 29 1 29 30
M  V30 30 1 30 31
M  V30 31 1 31 32
M  V30 32 1 32 33
M  V30 33 1 33 34
M  V30 34 1 34 35
M  V30 35 2 28 36
M  V30 36 1 8 4
M  V30 37 1 23 12
M  V30 38 1 36 24
M  V30 39 1 21 16
M  V30 40 1 35 30
M  V30 41 1 3 37
M  V30 42 1 5 38
M  V30 43 1 6 39
M  V30 44 1 11 40
M  V30 45 1 13 41
M  V30 46 1 14 42
M  V30 47 1 17 43
M  V30 48 1 17 44
M  V30 49 1 18 45
M  V30 50 1 18 46
M  V30 51 1 19 47
M  V30 52 1 19 48
M  V30 53 1 20 49
M  V30 54 1 20 50
M  V30 55 1 21 51
M  V30 56 1 21 52
M  V30 57 1 23 53
M  V30 58 1 25 54
M  V30 59 1 27 55
M  V30 60 1 30 56
M  V30 61 1 31 57
M  V30 62 1 31 58
M  V30 63 1 32 59
M  V30 64 1 32 60
M  V30 65 1 33 61
M  V30 66 1 34 62
M  V30 67 1 34 63
M  V30 68 1 35 64
M  V30 69 1 35 65
M  V30 70 1 36 66
M  V30 END BOND
M  V30 END CTAB
M  END
>  <Dataset>  (362) 
ChEMBL_Kinases

>  <Ligand_Instance>  (362) 
nan

>  <PDB_ID>  (362) 
nan

>  <Standardized_SMILES>  (362) 
O=C(Nc1c[nH]nc1C(=O)Nc1ccc(N2CCCCC2)nc1)c1cncc(OC2CCNCC2)c1

>  <Name>  (362) 
nan

>  <Pocket>  (362) 
nan

>  <ATP_Site>  (362) 
nan

>  <Peripheral>  (362) 
nan

>  <Num_H_Atoms_ProtBoundConf>  (362) 
nan

>  <Num_Resolved_Atoms>  (362) 
nan

>  <Num_Not_Resolved_Atoms>  (362) 
nan

$$$$
CHEMBL4212424
     RDKit          3D

  0  0  0  0  0  0  0  0  0  0999 V3000
M  V30 BEGIN CTAB
M  V30 COUNTS 54 59 0 0 0
M  V30 BEGIN ATOM
M  V30 1 C 4.194891 -0.178373 1.124979 0
M  V30 2 O 2.985619 0.144215 0.458406 0
M  V30 3 C 2.289904 -0.794403 -0.265779 0
M  V30 4 C 2.601557 -2.116594 -0.469469 0
M  V30 5 C 1.791592 -2.929683 -1.227820 0
M  V30 6 C 0.634030 -2.477415 -1.822421 0
M  V30 7 C 0.320711 -1.149663 -1.618095 0
M  V30 8 C 1.120931 -0.305192 -0.856404 0
M  V30 9 C 0.688622 1.101589 -0.703473 0
M  V30 10 C 0.997111 2.185465 -1.500454 0
M  V30 11 N 0.372101 3.229815 -0.953532 0
M  V30 12 N -0.300024 2.833665 0.135249 0
M  V30 13 C -1.057723 3.576663 0.970689 0
M  V30 14 C -1.689012 3.009287 2.057756 0
M  V30 15 C -1.543053 1.663375 2.293209 0
M  V30 16 C -2.098452 0.832540 3.358989 0
M  V30 17 C -1.287672 -0.089103 4.019573 0
M  V30 18 C -1.764302 -0.896259 5.032073 0
M  V30 19 N -3.056993 -0.810814 5.416093 0
M  V30 20 C -3.878446 0.068193 4.803685 0
M  V30 21 N -5.195746 0.350733 4.992025 0
M  V30 22 C -5.553048 1.318566 4.117621 0
M  V30 23 C -4.446540 1.656014 3.362538 0
M  V30 24 C -3.404720 0.866597 3.801326 0
M  V30 25 C -0.754478 0.908454 1.417664 0
M  V30 26 C -0.131944 1.498666 0.335557 0
M  V30 27 C -0.292741 -3.263951 -2.646644 0
M  V30 28 N 0.134729 -4.609743 -2.867125 0
M  V30 29 C 1.557271 -4.817196 -2.769668 0
M  V30 30 C 2.286012 -4.046359 -3.859068 0
M  V30 31 F 3.653657 -4.217235 -3.802330 0
M  V30 32 C 2.137935 -4.356688 -1.441293 0
M  V30 33 H 4.763837 -0.973284 0.625012 0
M  V30 34 H 4.007318 -0.479255 2.191694 0
M  V30 35 H 4.843876 0.726826 1.163004 0
M  V30 36 H 3.498200 -2.452843 -0.004635 0
M  V30 37 H -0.590080 -0.720819 -2.063764 0
M  V30 38 H 1.627850 2.103708 -2.372701 0
M  V30 39 H -1.220405 4.640204 0.852136 0
M  V30 40 H -2.311708 3.492489 2.786386 0
M  V30 41 H -0.243669 -0.202463 3.755522 0
M  V30 42 H -1.094489 -1.610184 5.528470 0
M  V30 43 H -5.828670 -0.105157 5.696966 0
M  V30 44 H -6.551352 1.727968 4.057549 0
M  V30 45 H -4.439981 2.401683 2.585788 0
M  V30 46 H -0.551806 -0.168242 1.483542 0
M  V30 47 H -1.292473 -3.209732 -2.131961 0
M  V30 48 H -0.431035 -2.736279 -3.616079 0
M  V30 49 H -0.369383 -5.322686 -2.308505 0
M  V30 50 H 1.718292 -5.907965 -2.877712 0
M  V30 51 H 2.035700 -2.969972 -3.789174 0
M  V30 52 H 1.964599 -4.449675 -4.852945 0
M  V30 53 H 1.791926 -5.021750 -0.627272 0
M  V30 54 H 3.252631 -4.471187 -1.566481 0
M  V30 END ATOM
M  V30 BEGIN BOND
M  V30 1 1 1 2
M  V30 2 1 2 3
M  V30 3 2 3 4
M  V30 4 1 4 5
M  V30 5 2 5 6
M  V30 6 1 6 7
M  V30 7 2 7 8
M  V30 8 1 8 9
M  V30 9 1 9 10
M  V30 10 2 10 11
M  V30 11 1 11 12
M  V30 12 1 12 13
M  V30 13 2 13 14
M  V30 14 1 14 15
M  V30 15 1 15 16
M  V30 16 2 16 17
M  V30 17 1 17 18
M  V30 18 2 18 19
M  V30 19 1 19 20
M  V30 20 1 20 21
M  V30 21 1 21 22
M  V30 22 2 22 23
M  V30 23 1 23 24
M  V30 24 2 15 25
M  V30 25 1 25 26
M  V30 26 1 6 27
M  V30 27 1 27 28
M  V30 28 1 28 29
M  V30 29 1 29 30
M  V30 30 1 30 31
M  V30 31 1 29 32
M  V30 32 1 8 3
M  V30 33 2 26 9
M  V30 34 1 32 5
M  V30 35 1 26 12
M  V30 36 1 24 16
M  V30 37 2 24 20
M  V30 38 1 1 33
M  V30 39 1 1 34
M  V30 40 1 1 35
M  V30 41 1 4 36
M  V30 42 1 7 37
M  V30 43 1 10 38
M  V30 44 1 13 39
M  V30 45 1 14 40
M  V30 46 1 17 41
M  V30 47 1 18 42
M  V30 48 1 21 43
M  V30 49 1 22 44
M  V30 50 1 23 45
M  V30 51 1 25 46
M  V30 52 1 27 47
M  V30 53 1 27 48
M  V30 54 1 28 49
M  V30 55 1 29 50
M  V30 56 1 30 51
M  V30 57 1 30 52
M  V30 58 1 32 53
M  V30 59 1 32 54
M  V30 END BOND
M  V30 END CTAB
M  END
>  <Dataset>  (363) 
ChEMBL_Kinases

>  <Ligand_Instance>  (363) 
nan

>  <PDB_ID>  (363) 
nan

>  <Standardized_SMILES>  (363) 
COc1cc2c(cc1-c1cnn3ccc(-c4ccnc5[nH]ccc45)cc13)CNC(CF)C2

>  <Name>  (363) 
nan

>  <Pocket>  (363) 
nan

>  <ATP_Site>  (363) 
nan

>  <Peripheral>  (363) 
nan

>  <Num_H_Atoms_ProtBoundConf>  (363) 
nan

>  <Num_Resolved_Atoms>  (363) 
nan

>  <Num_Not_Resolved_Atoms>  (363) 
nan

$$$$
CHEMBL4780639
     RDKit          3D

  0  0  0  0  0  0  0  0  0  0999 V3000
M  V30 BEGIN CTAB
M  V30 COUNTS 81 87 0 0 0
M  V30 BEGIN ATOM
M  V30 1 C 2.224359 -5.642454 1.344597 0
M  V30 2 N 3.214214 -4.630028 0.943185 0
M  V30 3 C 3.276817 -4.695759 -0.511852 0
M  V30 4 C 2.721373 -3.304899 1.288257 0
M  V30 5 C 2.653571 -3.076033 2.769998 0
M  V30 6 N 2.177271 -1.764173 3.143264 0
M  V30 7 C 2.827813 -0.515458 2.991075 0
M  V30 8 C 4.086560 -0.343879 2.469297 0
M  V30 9 C 4.756007 0.848945 2.307279 0
M  V30 10 F 6.002078 0.934758 1.782333 0
M  V30 11 C 4.083019 2.001222 2.716579 0
M  V30 12 C 2.811333 1.880493 3.249317 0
M  V30 13 C 2.079451 3.050056 3.710520 0
M  V30 14 C 2.870971 3.838041 4.556494 0
M  V30 15 C 2.337116 4.991281 5.117045 0
M  V30 16 C 1.013109 5.300070 4.793896 0
M  V30 17 C 0.233852 4.528236 3.962808 0
M  V30 18 N -1.016515 4.574357 3.486511 0
M  V30 19 C -1.252606 3.512701 2.674329 0
M  V30 20 C -2.537884 3.313489 2.019068 0
M  V30 21 N -3.590557 4.138242 2.156226 0
M  V30 22 N -4.615531 3.723190 1.444427 0
M  V30 23 C -4.256459 2.602036 0.814178 0
M  V30 24 C -4.919098 1.739522 -0.064971 0
M  V30 25 C -4.198862 0.657865 -0.524941 0
M  V30 26 C -2.895073 0.369568 -0.186609 0
M  V30 27 C -2.158758 -0.781114 -0.695618 0
M  V30 28 C -0.855393 -0.898332 -0.239955 0
M  V30 29 N -0.159833 -1.962454 -0.712517 0
M  V30 30 C -0.710007 -2.839153 -1.567115 0
M  V30 31 C -2.004510 -2.756595 -2.044264 0
M  V30 32 C -2.524236 -3.769227 -2.990675 0
M  V30 33 N -2.268913 -3.330979 -4.321140 0
M  V30 34 C -2.846139 -2.094229 -4.714244 0
M  V30 35 C -2.297840 -1.729922 -6.084069 0
M  V30 36 C -0.840321 -1.357881 -5.854841 0
M  V30 37 C -0.159991 -2.490785 -5.158517 0
M  V30 38 C -1.020968 -3.684308 -4.892326 0
M  V30 39 C -2.736750 -1.671530 -1.571144 0
M  V30 40 N -2.309979 1.235485 0.663654 0
M  V30 41 C -2.943121 2.315240 1.158456 0
M  V30 42 C -0.108155 2.746266 2.622177 0
M  V30 43 C 0.790231 3.385691 3.418466 0
M  V30 44 C 2.208692 0.650148 3.378565 0
M  V30 45 H 1.232791 -5.259581 0.990546 0
M  V30 46 H 2.165059 -5.730924 2.451616 0
M  V30 47 H 2.493740 -6.600507 0.852649 0
M  V30 48 H 3.412303 -5.712719 -0.899201 0
M  V30 49 H 2.262657 -4.367026 -0.889711 0
M  V30 50 H 4.018323 -3.981926 -0.925085 0
M  V30 51 H 1.640151 -3.305251 0.941879 0
M  V30 52 H 3.280179 -2.520618 0.793115 0
M  V30 53 H 3.667297 -3.249541 3.247054 0
M  V30 54 H 1.966260 -3.848028 3.193343 0
M  V30 55 H 1.212005 -1.728010 3.590397 0
M  V30 56 H 4.659419 -1.199664 2.147328 0
M  V30 57 H 4.542127 2.978830 2.621331 0
M  V30 58 H 3.888643 3.640853 4.832732 0
M  V30 59 H 2.848686 5.672824 5.777513 0
M  V30 60 H 0.570852 6.197597 5.218360 0
M  V30 61 H -1.639478 5.362076 3.766957 0
M  V30 62 H -5.568526 4.179252 1.367102 0
M  V30 63 H -5.947510 1.931887 -0.356359 0
M  V30 64 H -4.733960 0.025378 -1.191440 0
M  V30 65 H -0.364805 -0.222839 0.445867 0
M  V30 66 H -0.039610 -3.638485 -1.860042 0
M  V30 67 H -3.587825 -4.018594 -2.793475 0
M  V30 68 H -1.930781 -4.704116 -2.809711 0
M  V30 69 H -2.530721 -1.298472 -4.017201 0
M  V30 70 H -3.955494 -2.190438 -4.790334 0
M  V30 71 H -2.354118 -2.644552 -6.692725 0
M  V30 72 H -2.885013 -0.894855 -6.514990 0
M  V30 73 H -0.373621 -1.040978 -6.796627 0
M  V30 74 H -0.866586 -0.493486 -5.151918 0
M  V30 75 H 0.305481 -2.181352 -4.186189 0
M  V30 76 H 0.710753 -2.778645 -5.807608 0
M  V30 77 H -1.111445 -4.354726 -5.782443 0
M  V30 78 H -0.459848 -4.307944 -4.142399 0
M  V30 79 H -3.736898 -1.575937 -1.915859 0
M  V30 80 H 0.032824 1.832816 2.062699 0
M  V30 81 H 1.196832 0.603052 3.806801 0
M  V30 END ATOM
M  V30 BEGIN BOND
M  V30 1 1 1 2
M  V30 2 1 2 3
M  V30 3 1 2 4
M  V30 4 1 4 5
M  V30 5 1 5 6
M  V30 6 1 6 7
M  V30 7 2 7 8
M  V30 8 1 8 9
M  V30 9 1 9 10
M  V30 10 2 9 11
M  V30 11 1 11 12
M  V30 12 1 12 13
M  V30 13 2 13 14
M  V30 14 1 14 15
M  V30 15 2 15 16
M  V30 16 1 16 17
M  V30 17 1 17 18
M  V30 18 1 18 19
M  V30 19 1 19 20
M  V30 20 2 20 21
M  V30 21 1 21 22
M  V30 22 1 22 23
M  V30 23 2 23 24
M  V30 24 1 24 25
M  V30 25 2 25 26
M  V30 26 1 26 27
M  V30 27 2 27 28
M  V30 28 1 28 29
M  V30 29 2 29 30
M  V30 30 1 30 31
M  V30 31 1 31 32
M  V30 32 1 32 33
M  V30 33 1 33 34
M  V30 34 1 34 35
M  V30 35 1 35 36
M  V30 36 1 36 37
M  V30 37 1 37 38
M  V30 38 2 31 39
M  V30 39 1 26 40
M  V30 40 2 40 41
M  V30 41 2 19 42
M  V30 42 1 42 43
M  V30 43 2 12 44
M  V30 44 1 44 7
M  V30 45 1 43 13
M  V30 46 2 43 17
M  V30 47 1 41 20
M  V30 48 1 41 23
M  V30 49 1 39 27
M  V30 50 1 38 33
M  V30 51 1 1 45
M  V30 52 1 1 46
M  V30 53 1 1 47
M  V30 54 1 3 48
M  V30 55 1 3 49
M  V30 56 1 3 50
M  V30 57 1 4 51
M  V30 58 1 4 52
M  V30 59 1 5 53
M  V30 60 1 5 54
M  V30 61 1 6 55
M  V30 62 1 8 56
M  V30 63 1 11 57
M  V30 64 1 14 58
M  V30 65 1 15 59
M  V30 66 1 16 60
M  V30 67 1 18 61
M  V30 68 1 22 62
M  V30 69 1 24 63
M  V30 70 1 25 64
M  V30 71 1 28 65
M  V30 72 1 30 66
M  V30 73 1 32 67
M  V30 74 1 32 68
M  V30 75 1 34 69
M  V30 76 1 34 70
M  V30 77 1 35 71
M  V30 78 1 35 72
M  V30 79 1 36 73
M  V30 80 1 36 74
M  V30 81 1 37 75
M  V30 82 1 37 76
M  V30 83 1 38 77
M  V30 84 1 38 78
M  V30 85 1 39 79
M  V30 86 1 42 80
M  V30 87 1 44 81
M  V30 END BOND
M  V30 END CTAB
M  END
>  <Dataset>  (364) 
ChEMBL_Kinases

>  <Ligand_Instance>  (364) 
nan

>  <PDB_ID>  (364) 
nan

>  <Standardized_SMILES>  (364) 
CN(C)CCNc1cc(F)cc(-c2cccc3[nH]c(-c4n[nH]c5ccc(-c6cncc(CN7CCCCC7)c6)nc45)cc23)c1

>  <Name>  (364) 
nan

>  <Pocket>  (364) 
nan

>  <ATP_Site>  (364) 
nan

>  <Peripheral>  (364) 
nan

>  <Num_H_Atoms_ProtBoundConf>  (364) 
nan

>  <Num_Resolved_Atoms>  (364) 
nan

>  <Num_Not_Resolved_Atoms>  (364) 
nan

$$$$
CHEMBL4780597
     RDKit          3D

  0  0  0  0  0  0  0  0  0  0999 V3000
M  V30 BEGIN CTAB
M  V30 COUNTS 51 55 0 0 0
M  V30 BEGIN ATOM
M  V30 1 C 4.110897 -2.874276 2.617191 0
M  V30 2 N 5.428958 -2.261212 2.656156 0
M  V30 3 C 6.446727 -2.791328 3.370719 0
M  V30 4 N 7.538835 -2.025641 3.227218 0
M  V30 5 C 7.194457 -1.004481 2.411265 0
M  V30 6 C 5.871544 -1.132262 2.039617 0
M  V30 7 C 4.991696 -0.334232 1.190168 0
M  V30 8 C 5.456033 0.120921 -0.034339 0
M  V30 9 C 4.664450 0.883806 -0.884311 0
M  V30 10 C 3.387718 1.189415 -0.489782 0
M  V30 11 C 2.592617 1.957221 -1.346455 0
M  V30 12 N 1.324406 2.248511 -0.931126 0
M  V30 13 C 0.880332 1.797751 0.269468 0
M  V30 14 N -0.464028 2.110908 0.701354 0
M  V30 15 C -1.311427 1.062966 0.230263 0
M  V30 16 O -0.646058 0.183350 -0.416009 0
M  V30 17 C -2.766730 1.008210 0.462767 0
M  V30 18 C -3.525961 1.922517 1.146752 0
M  V30 19 C -4.886944 1.723046 1.275691 0
M  V30 20 N -5.525488 0.656429 0.755493 0
M  V30 21 C -4.772549 -0.246902 0.079205 0
M  V30 22 N -5.369347 -1.413969 -0.508547 0
M  V30 23 C -4.931210 -2.568024 -1.277166 0
M  V30 24 C -6.107147 -3.331078 -0.739318 0
M  V30 25 N -5.827347 -3.931104 0.548371 0
M  V30 26 C -6.714390 -1.960220 -0.589389 0
M  V30 27 C -3.392697 -0.095502 -0.081859 0
M  V30 28 C 1.625083 1.035961 1.153222 0
M  V30 29 C 2.908886 0.747649 0.720268 0
M  V30 30 C 3.688994 -0.016621 1.581672 0
M  V30 31 H 3.467746 -2.582166 3.473193 0
M  V30 32 H 3.594659 -2.660613 1.640713 0
M  V30 33 H 4.240777 -3.990529 2.644762 0
M  V30 34 H 6.417165 -3.682818 3.968539 0
M  V30 35 H 7.722720 -0.141089 2.005576 0
M  V30 36 H 6.476272 -0.148001 -0.302424 0
M  V30 37 H 5.112752 1.191490 -1.815036 0
M  V30 38 H 2.998694 2.287092 -2.287159 0
M  V30 39 H -0.917919 2.894384 1.251683 0
M  V30 40 H -2.983045 2.762563 1.549154 0
M  V30 41 H -5.458131 2.455146 1.816667 0
M  V30 42 H -4.996276 -2.347880 -2.355814 0
M  V30 43 H -3.932711 -2.959571 -0.962248 0
M  V30 44 H -6.617700 -4.004126 -1.425930 0
M  V30 45 H -6.725763 -4.134068 1.052840 0
M  V30 46 H -5.200388 -4.741886 0.504948 0
M  V30 47 H -7.288875 -1.837217 0.352007 0
M  V30 48 H -7.235456 -1.622424 -1.515043 0
M  V30 49 H -2.844478 -0.861714 -0.639010 0
M  V30 50 H 1.223357 0.705476 2.091782 0
M  V30 51 H 3.323991 -0.370570 2.536902 0
M  V30 END ATOM
M  V30 BEGIN BOND
M  V30 1 1 1 2
M  V30 2 1 2 3
M  V30 3 2 3 4
M  V30 4 1 4 5
M  V30 5 2 5 6
M  V30 6 1 6 7
M  V30 7 2 7 8
M  V30 8 1 8 9
M  V30 9 2 9 10
M  V30 10 1 10 11
M  V30 11 2 11 12
M  V30 12 1 12 13
M  V30 13 1 13 14
M  V30 14 1 14 15
M  V30 15 2 15 16
M  V30 16 1 15 17
M  V30 17 2 17 18
M  V30 18 1 18 19
M  V30 19 2 19 20
M  V30 20 1 20 21
M  V30 21 1 21 22
M  V30 22 1 22 23
M  V30 23 1 23 24
M  V30 24 1 24 25
M  V30 25 1 24 26
M  V30 26 2 21 27
M  V30 27 2 13 28
M  V30 28 1 28 29
M  V30 29 2 29 30
M  V30 30 1 6 2
M  V30 31 1 30 7
M  V30 32 1 29 10
M  V30 33 1 27 17
M  V30 34 1 26 22
M  V30 35 1 1 31
M  V30 36 1 1 32
M  V30 37 1 1 33
M  V30 38 1 3 34
M  V30 39 1 5 35
M  V30 40 1 8 36
M  V30 41 1 9 37
M  V30 42 1 11 38
M  V30 43 1 14 39
M  V30 44 1 18 40
M  V30 45 1 19 41
M  V30 46 1 23 42
M  V30 47 1 23 43
M  V30 48 1 24 44
M  V30 49 1 25 45
M  V30 50 1 25 46
M  V30 51 1 26 47
M  V30 52 1 26 48
M  V30 53 1 27 49
M  V30 54 1 28 50
M  V30 55 1 30 51
M  V30 END BOND
M  V30 END CTAB
M  END
>  <Dataset>  (365) 
ChEMBL_Kinases

>  <Ligand_Instance>  (365) 
nan

>  <PDB_ID>  (365) 
nan

>  <Standardized_SMILES>  (365) 
Cn1cncc1-c1ccc2cnc(NC(=O)c3ccnc(N4CC(N)C4)c3)cc2c1

>  <Name>  (365) 
nan

>  <Pocket>  (365) 
nan

>  <ATP_Site>  (365) 
nan

>  <Peripheral>  (365) 
nan

>  <Num_H_Atoms_ProtBoundConf>  (365) 
nan

>  <Num_Resolved_Atoms>  (365) 
nan

>  <Num_Not_Resolved_Atoms>  (365) 
nan

$$$$
CHEMBL4780582
     RDKit          3D

  0  0  0  0  0  0  0  0  0  0999 V3000
M  V30 BEGIN CTAB
M  V30 COUNTS 48 53 0 0 0
M  V30 BEGIN ATOM
M  V30 1 N 3.865740 -5.992697 3.296068 0
M  V30 2 C 3.232790 -4.783172 2.879191 0
M  V30 3 C 3.864759 -3.621145 3.304900 0
M  V30 4 N 3.247977 -2.477288 2.898029 0
M  V30 5 C 2.130341 -2.512387 2.152711 0
M  V30 6 C 1.502884 -3.660938 1.729855 0
M  V30 7 C 0.292509 -3.703617 0.923393 0
M  V30 8 C -0.385033 -2.595456 0.476489 0
M  V30 9 C -1.529189 -2.607139 -0.285309 0
M  V30 10 C -2.299714 -1.595488 -0.794653 0
M  V30 11 C -2.197009 -0.157498 -0.719351 0
M  V30 12 C -1.356921 0.761300 -0.158166 0
M  V30 13 C -1.732944 2.065190 -0.402307 0
M  V30 14 C -1.153457 3.255296 -0.013221 0
M  V30 15 C 0.060597 3.311927 0.789869 0
M  V30 16 C 0.369304 2.737770 1.991900 0
M  V30 17 C 1.584845 2.919384 2.588859 0
M  V30 18 C 2.582272 3.688222 2.029045 0
M  V30 19 C 2.284074 4.280971 0.803234 0
M  V30 20 C 1.040010 4.088832 0.202811 0
M  V30 21 F 0.918758 4.736846 -0.983903 0
M  V30 22 N -1.762787 4.388975 -0.413600 0
M  V30 23 C -2.890249 4.341092 -1.162469 0
M  V30 24 C -3.467872 3.127903 -1.550282 0
M  V30 25 C -2.874184 1.934416 -1.160505 0
M  V30 26 N -3.112696 0.622068 -1.324029 0
M  V30 27 N -3.262366 -2.268177 -1.438051 0
M  V30 28 N -3.110782 -3.566926 -1.342172 0
M  V30 29 C -2.016082 -3.856199 -0.614373 0
M  V30 30 C -1.364872 -4.980063 -0.185197 0
M  V30 31 N -0.244985 -4.906085 0.560862 0
M  V30 32 C 2.090579 -4.841150 2.117309 0
M  V30 33 H 4.481318 -6.822311 3.142105 0
M  V30 34 H 3.553792 -6.136551 4.282410 0
M  V30 35 H 4.755828 -3.619389 3.899440 0
M  V30 36 H 1.713461 -1.556133 1.878890 0
M  V30 37 H 0.042356 -1.656840 0.765797 0
M  V30 38 H -0.486872 0.505558 0.417543 0
M  V30 39 H -0.463147 2.137739 2.390203 0
M  V30 40 H 1.757119 2.429245 3.547877 0
M  V30 41 H 3.538189 3.826631 2.503493 0
M  V30 42 H 3.072421 4.884515 0.366779 0
M  V30 43 H -3.369966 5.271779 -1.477183 0
M  V30 44 H -4.360871 3.066365 -2.141621 0
M  V30 45 H -3.964055 0.382426 -1.890843 0
M  V30 46 H -3.750006 -4.269906 -1.771822 0
M  V30 47 H -1.777607 -5.942803 -0.464406 0
M  V30 48 H 1.695768 -5.802305 1.849129 0
M  V30 END ATOM
M  V30 BEGIN BOND
M  V30 1 1 1 2
M  V30 2 2 2 3
M  V30 3 1 3 4
M  V30 4 2 4 5
M  V30 5 1 5 6
M  V30 6 1 6 7
M  V30 7 2 7 8
M  V30 8 1 8 9
M  V30 9 1 9 10
M  V30 10 1 10 11
M  V30 11 2 11 12
M  V30 12 1 12 13
M  V30 13 2 13 14
M  V30 14 1 14 15
M  V30 15 2 15 16
M  V30 16 1 16 17
M  V30 17 2 17 18
M  V30 18 1 18 19
M  V30 19 2 19 20
M  V30 20 1 20 21
M  V30 21 1 14 22
M  V30 22 2 22 23
M  V30 23 1 23 24
M  V30 24 2 24 25
M  V30 25 1 25 26
M  V30 26 2 10 27
M  V30 27 1 27 28
M  V30 28 1 28 29
M  V30 29 1 29 30
M  V30 30 2 30 31
M  V30 31 2 6 32
M  V30 32 1 32 2
M  V30 33 1 31 7
M  V30 34 2 29 9
M  V30 35 1 26 11
M  V30 36 1 25 13
M  V30 37 1 20 15
M  V30 38 1 1 33
M  V30 39 1 1 34
M  V30 40 1 3 35
M  V30 41 1 5 36
M  V30 42 1 8 37
M  V30 43 1 12 38
M  V30 44 1 16 39
M  V30 45 1 17 40
M  V30 46 1 18 41
M  V30 47 1 19 42
M  V30 48 1 23 43
M  V30 49 1 24 44
M  V30 50 1 26 45
M  V30 51 1 28 46
M  V30 52 1 30 47
M  V30 53 1 32 48
M  V30 END BOND
M  V30 END CTAB
M  END
>  <Dataset>  (366) 
ChEMBL_Kinases

>  <Ligand_Instance>  (366) 
nan

>  <PDB_ID>  (366) 
nan

>  <Standardized_SMILES>  (366) 
Nc1cncc(-c2cc3c(-c4cc5c(-c6ccccc6F)nccc5[nH]4)n[nH]c3cn2)c1

>  <Name>  (366) 
nan

>  <Pocket>  (366) 
nan

>  <ATP_Site>  (366) 
nan

>  <Peripheral>  (366) 
nan

>  <Num_H_Atoms_ProtBoundConf>  (366) 
nan

>  <Num_Resolved_Atoms>  (366) 
nan

>  <Num_Not_Resolved_Atoms>  (366) 
nan

$$$$
CHEMBL4780576
     RDKit          3D

  0  0  0  0  0  0  0  0  0  0999 V3000
M  V30 BEGIN CTAB
M  V30 COUNTS 57 61 0 0 0
M  V30 BEGIN ATOM
M  V30 1 O 3.583322 1.106665 2.783648 0
M  V30 2 C 4.063688 2.022530 2.068680 0
M  V30 3 N 5.209827 2.629528 2.665503 0
M  V30 4 C 5.472302 1.995917 3.929978 0
M  V30 5 C 6.325174 0.906234 3.823452 0
M  V30 6 C 6.689879 0.174428 4.934042 0
M  V30 7 C 6.154525 0.598184 6.132765 0
M  V30 8 N 5.327244 1.652109 6.249403 0
M  V30 9 C 4.962950 2.378861 5.158519 0
M  V30 10 C 3.528532 2.438517 0.769526 0
M  V30 11 N 3.952028 3.394946 -0.078330 0
M  V30 12 N 3.143785 3.411074 -1.146440 0
M  V30 13 C 2.203963 2.472117 -0.991377 0
M  V30 14 C 1.122259 2.034735 -1.751010 0
M  V30 15 C 0.271657 1.006440 -1.349982 0
M  V30 16 C 0.507073 0.382556 -0.135695 0
M  V30 17 C -0.341993 -0.699690 0.347173 0
M  V30 18 C 0.115348 -1.743340 1.148654 0
M  V30 19 N -0.703536 -2.714835 1.567725 0
M  V30 20 C -2.001839 -2.700146 1.217053 0
M  V30 21 C -2.535390 -1.705441 0.427521 0
M  V30 22 C -3.948454 -1.595294 -0.015615 0
M  V30 23 N -4.087299 -2.280678 -1.265491 0
M  V30 24 C -3.768268 -3.694701 -1.242833 0
M  V30 25 C -4.808859 -3.859540 -2.330524 0
M  V30 26 C -4.261779 -3.520221 -3.679467 0
M  V30 27 O -3.820938 -2.199538 -3.716306 0
M  V30 28 C -5.607807 -5.131599 -2.248514 0
M  V30 29 O -6.298934 -5.221104 -1.058152 0
M  V30 30 C -5.437967 -2.665911 -1.640781 0
M  V30 31 C -1.688925 -0.690630 -0.012604 0
M  V30 32 C 1.580515 0.800433 0.641679 0
M  V30 33 C 2.416812 1.823862 0.229323 0
M  V30 34 H 5.693915 3.417338 2.141831 0
M  V30 35 H 6.760611 0.554357 2.879631 0
M  V30 36 H 7.355795 -0.691797 4.917819 0
M  V30 37 H 6.365347 0.103869 7.084493 0
M  V30 38 H 4.309719 3.236997 5.138711 0
M  V30 39 H 3.235313 4.062222 -1.977978 0
M  V30 40 H 0.934195 2.524218 -2.707925 0
M  V30 41 H -0.546471 0.706676 -1.969845 0
M  V30 42 H 1.169794 -1.671984 1.379058 0
M  V30 43 H -2.682935 -3.472840 1.543123 0
M  V30 44 H -4.547390 -2.188699 0.732705 0
M  V30 45 H -4.294963 -0.549286 -0.065317 0
M  V30 46 H -4.102642 -4.142044 -0.267420 0
M  V30 47 H -2.734360 -3.942085 -1.553035 0
M  V30 48 H -3.351239 -4.166948 -3.847721 0
M  V30 49 H -4.934412 -3.771633 -4.510322 0
M  V30 50 H -2.830146 -2.136016 -3.744233 0
M  V30 51 H -6.263776 -5.244039 -3.134189 0
M  V30 52 H -4.871562 -5.980497 -2.349955 0
M  V30 53 H -5.668118 -5.495715 -0.347024 0
M  V30 54 H -5.950105 -1.954517 -2.315778 0
M  V30 55 H -6.002563 -2.934958 -0.719030 0
M  V30 56 H -2.046066 0.118603 -0.634777 0
M  V30 57 H 1.745178 0.298559 1.586744 0
M  V30 END ATOM
M  V30 BEGIN BOND
M  V30 1 2 1 2
M  V30 2 1 2 3
M  V30 3 1 3 4
M  V30 4 2 4 5
M  V30 5 1 5 6
M  V30 6 2 6 7
M  V30 7 1 7 8
M  V30 8 2 8 9
M  V30 9 1 2 10
M  V30 10 2 10 11
M  V30 11 1 11 12
M  V30 12 1 12 13
M  V30 13 2 13 14
M  V30 14 1 14 15
M  V30 15 2 15 16
M  V30 16 1 16 17
M  V30 17 2 17 18
M  V30 18 1 18 19
M  V30 19 2 19 20
M  V30 20 1 20 21
M  V30 21 1 21 22
M  V30 22 1 22 23
M  V30 23 1 23 24
M  V30 24 1 24 25
M  V30 25 1 25 26
M  V30 26 1 26 27
M  V30 27 1 25 28
M  V30 28 1 28 29
M  V30 29 1 25 30
M  V30 30 2 21 31
M  V30 31 1 16 32
M  V30 32 2 32 33
M  V30 33 1 9 4
M  V30 34 1 33 10
M  V30 35 1 33 13
M  V30 36 1 31 17
M  V30 37 1 30 23
M  V30 38 1 3 34
M  V30 39 1 5 35
M  V30 40 1 6 36
M  V30 41 1 7 37
M  V30 42 1 9 38
M  V30 43 1 12 39
M  V30 44 1 14 40
M  V30 45 1 15 41
M  V30 46 1 18 42
M  V30 47 1 20 43
M  V30 48 1 22 44
M  V30 49 1 22 45
M  V30 50 1 24 46
M  V30 51 1 24 47
M  V30 52 1 26 48
M  V30 53 1 26 49
M  V30 54 1 27 50
M  V30 55 1 28 51
M  V30 56 1 28 52
M  V30 57 1 29 53
M  V30 58 1 30 54
M  V30 59 1 30 55
M  V30 60 1 31 56
M  V30 61 1 32 57
M  V30 END BOND
M  V30 END CTAB
M  END
>  <Dataset>  (367) 
ChEMBL_Kinases

>  <Ligand_Instance>  (367) 
nan

>  <PDB_ID>  (367) 
nan

>  <Standardized_SMILES>  (367) 
O=C(Nc1cccnc1)c1n[nH]c2ccc(-c3cncc(CN4CC(CO)(CO)C4)c3)cc12

>  <Name>  (367) 
nan

>  <Pocket>  (367) 
nan

>  <ATP_Site>  (367) 
nan

>  <Peripheral>  (367) 
nan

>  <Num_H_Atoms_ProtBoundConf>  (367) 
nan

>  <Num_Resolved_Atoms>  (367) 
nan

>  <Num_Not_Resolved_Atoms>  (367) 
nan

$$$$
CHEMBL4780561
     RDKit          3D

  0  0  0  0  0  0  0  0  0  0999 V3000
M  V30 BEGIN CTAB
M  V30 COUNTS 70 75 0 0 0
M  V30 BEGIN ATOM
M  V30 1 C 2.524596 -4.852430 4.323533 0
M  V30 2 C 3.412675 -3.869383 5.043258 0
M  V30 3 C 4.112087 -4.597649 6.153354 0
M  V30 4 C 4.386388 -3.223912 4.079497 0
M  V30 5 C 3.672517 -2.491942 3.002542 0
M  V30 6 O 2.399014 -2.497819 3.020524 0
M  V30 7 N 4.373955 -1.801679 1.977345 0
M  V30 8 C 3.415884 -1.191473 1.081705 0
M  V30 9 C 3.015590 -1.974576 0.021166 0
M  V30 10 N 2.115397 -1.415863 -0.827374 0
M  V30 11 C 1.654601 -0.152227 -0.613656 0
M  V30 12 C 2.096138 0.589434 0.475524 0
M  V30 13 C 1.543178 1.931902 0.616426 0
M  V30 14 C 2.260737 2.989575 1.185790 0
M  V30 15 C 1.691087 4.239205 1.291632 0
M  V30 16 C 0.421338 4.524261 0.860115 0
M  V30 17 N -0.439808 5.553279 0.789894 0
M  V30 18 N -1.592073 5.165039 0.225113 0
M  V30 19 C -1.532442 3.870828 -0.096000 0
M  V30 20 C -2.607519 3.113833 -0.729176 0
M  V30 21 N -2.603210 1.813968 -1.069202 0
M  V30 22 C -3.777645 1.476337 -1.629263 0
M  V30 23 C -4.265689 0.292489 -2.137832 0
M  V30 24 N -3.521262 -0.916775 -2.148615 0
M  V30 25 C -4.122485 -2.076331 -2.766017 0
M  V30 26 C -2.966208 -2.957856 -3.210250 0
M  V30 27 N -2.150510 -3.350176 -2.109852 0
M  V30 28 C -1.112571 -4.240537 -2.579151 0
M  V30 29 C -1.631421 -2.290333 -1.314783 0
M  V30 30 C -2.216539 -0.946664 -1.546496 0
M  V30 31 C -5.550606 0.388642 -2.629663 0
M  V30 32 C -6.320888 1.532387 -2.638008 0
M  V30 33 C -5.779594 2.688196 -2.115369 0
M  V30 34 C -4.497213 2.652592 -1.608664 0
M  V30 35 N -3.790849 3.656832 -1.060803 0
M  V30 36 C -0.274932 3.460788 0.298054 0
M  V30 37 C 0.263857 2.198442 0.176200 0
M  V30 38 C 3.011044 0.085366 1.379455 0
M  V30 39 H 2.424488 -5.820675 4.843282 0
M  V30 40 H 3.002587 -5.067926 3.348931 0
M  V30 41 H 1.490736 -4.448544 4.206721 0
M  V30 42 H 2.797267 -3.040199 5.461525 0
M  V30 43 H 4.420454 -3.875565 6.943020 0
M  V30 44 H 3.340713 -5.262204 6.633515 0
M  V30 45 H 4.936698 -5.232535 5.813226 0
M  V30 46 H 5.003565 -4.033010 3.619851 0
M  V30 47 H 5.105385 -2.562968 4.603691 0
M  V30 48 H 5.430307 -1.839194 2.026994 0
M  V30 49 H 3.388102 -2.969877 -0.133890 0
M  V30 50 H 0.942805 0.179946 -1.358974 0
M  V30 51 H 3.269795 2.795846 1.538866 0
M  V30 52 H 2.233578 5.084421 1.734228 0
M  V30 53 H -0.172718 6.512398 1.152324 0
M  V30 54 H -4.697627 -1.822906 -3.691516 0
M  V30 55 H -4.807924 -2.600679 -2.074516 0
M  V30 56 H -3.461076 -3.886427 -3.608510 0
M  V30 57 H -2.463551 -2.487775 -4.052827 0
M  V30 58 H -0.326908 -3.665078 -3.107366 0
M  V30 59 H -1.506775 -5.034713 -3.229664 0
M  V30 60 H -0.682460 -4.741855 -1.670674 0
M  V30 61 H -0.535797 -2.231739 -1.480056 0
M  V30 62 H -1.759382 -2.612083 -0.246529 0
M  V30 63 H -2.349334 -0.467199 -0.530977 0
M  V30 64 H -1.559837 -0.260033 -2.114031 0
M  V30 65 H -6.053283 -0.468190 -3.056435 0
M  V30 66 H -7.324818 1.569644 -3.030929 0
M  V30 67 H -6.357571 3.602037 -2.106479 0
M  V30 68 H -4.108883 4.648497 -0.927546 0
M  V30 69 H -0.302586 1.377720 -0.268988 0
M  V30 70 H 3.349205 0.650772 2.211283 0
M  V30 END ATOM
M  V30 BEGIN BOND
M  V30 1 1 1 2
M  V30 2 1 2 3
M  V30 3 1 2 4
M  V30 4 1 4 5
M  V30 5 2 5 6
M  V30 6 1 5 7
M  V30 7 1 7 8
M  V30 8 2 8 9
M  V30 9 1 9 10
M  V30 10 2 10 11
M  V30 11 1 11 12
M  V30 12 1 12 13
M  V30 13 2 13 14
M  V30 14 1 14 15
M  V30 15 2 15 16
M  V30 16 1 16 17
M  V30 17 1 17 18
M  V30 18 2 18 19
M  V30 19 1 19 20
M  V30 20 2 20 21
M  V30 21 1 21 22
M  V30 22 2 22 23
M  V30 23 1 23 24
M  V30 24 1 24 25
M  V30 25 1 25 26
M  V30 26 1 26 27
M  V30 27 1 27 28
M  V30 28 1 27 29
M  V30 29 1 29 30
M  V30 30 1 23 31
M  V30 31 2 31 32
M  V30 32 1 32 33
M  V30 33 2 33 34
M  V30 34 1 34 35
M  V30 35 1 19 36
M  V30 36 2 36 37
M  V30 37 2 12 38
M  V30 38 1 38 8
M  V30 39 1 37 13
M  V30 40 1 36 16
M  V30 41 1 35 20
M  V30 42 1 34 22
M  V30 43 1 30 24
M  V30 44 1 1 39
M  V30 45 1 1 40
M  V30 46 1 1 41
M  V30 47 1 2 42
M  V30 48 1 3 43
M  V30 49 1 3 44
M  V30 50 1 3 45
M  V30 51 1 4 46
M  V30 52 1 4 47
M  V30 53 1 7 48
M  V30 54 1 9 49
M  V30 55 1 11 50
M  V30 56 1 14 51
M  V30 57 1 15 52
M  V30 58 1 17 53
M  V30 59 1 25 54
M  V30 60 1 25 55
M  V30 61 1 26 56
M  V30 62 1 26 57
M  V30 63 1 28 58
M  V30 64 1 28 59
M  V30 65 1 28 60
M  V30 66 1 29 61
M  V30 67 1 29 62
M  V30 68 1 30 63
M  V30 69 1 30 64
M  V30 70 1 31 65
M  V30 71 1 32 66
M  V30 72 1 33 67
M  V30 73 1 35 68
M  V30 74 1 37 69
M  V30 75 1 38 70
M  V30 END BOND
M  V30 END CTAB
M  END
>  <Dataset>  (368) 
ChEMBL_Kinases

>  <Ligand_Instance>  (368) 
nan

>  <PDB_ID>  (368) 
nan

>  <Standardized_SMILES>  (368) 
CC(C)CC(=O)Nc1cncc(-c2ccc3[nH]nc(-c4nc5c(N6CCN(C)CC6)cccc5[nH]4)c3c2)c1

>  <Name>  (368) 
nan

>  <Pocket>  (368) 
nan

>  <ATP_Site>  (368) 
nan

>  <Peripheral>  (368) 
nan

>  <Num_H_Atoms_ProtBoundConf>  (368) 
nan

>  <Num_Resolved_Atoms>  (368) 
nan

>  <Num_Not_Resolved_Atoms>  (368) 
nan

$$$$
CHEMBL4780543
     RDKit          3D

  0  0  0  0  0  0  0  0  0  0999 V3000
M  V30 BEGIN CTAB
M  V30 COUNTS 56 61 0 0 0
M  V30 BEGIN ATOM
M  V30 1 C 3.778193 -3.464898 4.357608 0
M  V30 2 C 4.884378 -2.501704 4.079378 0
M  V30 3 C 4.495812 -1.467302 3.085843 0
M  V30 4 O 3.326665 -1.552989 2.640312 0
M  V30 5 N 5.347748 -0.432734 2.637180 0
M  V30 6 C 5.084144 0.594506 1.704209 0
M  V30 7 C 6.097744 1.487457 1.437274 0
M  V30 8 N 5.942162 2.496683 0.565937 0
M  V30 9 C 4.785134 2.695797 -0.099042 0
M  V30 10 C 3.735327 1.834701 0.126683 0
M  V30 11 C 2.502932 2.080881 -0.609221 0
M  V30 12 C 1.351737 1.330045 -0.515655 0
M  V30 13 C 0.204605 1.577015 -1.214921 0
M  V30 14 C -1.011289 0.939458 -1.239878 0
M  V30 15 C -1.508291 -0.221280 -0.532977 0
M  V30 16 C -2.807019 -0.689471 -0.728883 0
M  V30 17 C -3.070426 -1.796563 0.038019 0
M  V30 18 C -4.151596 -2.629662 0.224999 0
M  V30 19 C -5.384794 -2.391022 -0.509577 0
M  V30 20 C -6.100392 -1.233648 -0.722618 0
M  V30 21 C -7.256301 -1.255388 -1.472775 0
M  V30 22 C -7.731076 -2.443478 -2.033748 0
M  V30 23 C -7.030262 -3.613228 -1.832607 0
M  V30 24 F -7.531390 -4.725736 -2.394238 0
M  V30 25 C -5.878119 -3.569303 -1.080269 0
M  V30 26 N -4.071831 -3.661121 1.077729 0
M  V30 27 C -2.959958 -3.917165 1.768145 0
M  V30 28 C -1.863682 -3.098567 1.599697 0
M  V30 29 C -1.906232 -2.028677 0.732580 0
M  V30 30 N -1.052138 -1.094164 0.362188 0
M  V30 31 N -1.702104 1.685229 -2.136485 0
M  V30 32 N -0.986804 2.672448 -2.609321 0
M  V30 33 C 0.237281 2.662411 -2.065007 0
M  V30 34 C 1.374286 3.432141 -2.179818 0
M  V30 35 N 2.465867 3.124370 -1.456477 0
M  V30 36 C 3.914679 0.813242 1.018149 0
M  V30 37 H 4.243294 -4.454024 4.623754 0
M  V30 38 H 3.038917 -3.589577 3.555791 0
M  V30 39 H 3.200177 -3.194999 5.288513 0
M  V30 40 H 5.784623 -2.998752 3.658133 0
M  V30 41 H 5.145276 -1.990402 5.049059 0
M  V30 42 H 6.281725 -0.493076 3.095500 0
M  V30 43 H 7.092678 1.450345 1.902341 0
M  V30 44 H 4.749282 3.538438 -0.785310 0
M  V30 45 H 1.400431 0.502891 0.164483 0
M  V30 46 H -3.578278 -0.287113 -1.391376 0
M  V30 47 H -5.653284 -0.380074 -0.245418 0
M  V30 48 H -7.744446 -0.302422 -1.583238 0
M  V30 49 H -8.645678 -2.391974 -2.612512 0
M  V30 50 H -5.411652 -4.560917 -0.992090 0
M  V30 51 H -2.846007 -4.734082 2.465823 0
M  V30 52 H -0.943848 -3.272009 2.140604 0
M  V30 53 H -0.102581 -1.065448 0.755198 0
M  V30 54 H -1.351284 3.347631 -3.306728 0
M  V30 55 H 1.340347 4.271266 -2.863012 0
M  V30 56 H 3.098823 0.160151 1.180918 0
M  V30 END ATOM
M  V30 BEGIN BOND
M  V30 1 1 1 2
M  V30 2 1 2 3
M  V30 3 2 3 4
M  V30 4 1 3 5
M  V30 5 1 5 6
M  V30 6 2 6 7
M  V30 7 1 7 8
M  V30 8 2 8 9
M  V30 9 1 9 10
M  V30 10 1 10 11
M  V30 11 2 11 12
M  V30 12 1 12 13
M  V30 13 1 13 14
M  V30 14 1 14 15
M  V30 15 2 15 16
M  V30 16 1 16 17
M  V30 17 2 17 18
M  V30 18 1 18 19
M  V30 19 2 19 20
M  V30 20 1 20 21
M  V30 21 2 21 22
M  V30 22 1 22 23
M  V30 23 1 23 24
M  V30 24 2 23 25
M  V30 25 1 18 26
M  V30 26 2 26 27
M  V30 27 1 27 28
M  V30 28 2 28 29
M  V30 29 1 29 30
M  V30 30 2 14 31
M  V30 31 1 31 32
M  V30 32 1 32 33
M  V30 33 1 33 34
M  V30 34 2 34 35
M  V30 35 2 10 36
M  V30 36 1 36 6
M  V30 37 1 35 11
M  V30 38 2 33 13
M  V30 39 1 30 15
M  V30 40 1 29 17
M  V30 41 1 25 19
M  V30 42 1 1 37
M  V30 43 1 1 38
M  V30 44 1 1 39
M  V30 45 1 2 40
M  V30 46 1 2 41
M  V30 47 1 5 42
M  V30 48 1 7 43
M  V30 49 1 9 44
M  V30 50 1 12 45
M  V30 51 1 16 46
M  V30 52 1 20 47
M  V30 53 1 21 48
M  V30 54 1 22 49
M  V30 55 1 25 50
M  V30 56 1 27 51
M  V30 57 1 28 52
M  V30 58 1 30 53
M  V30 59 1 32 54
M  V30 60 1 34 55
M  V30 61 1 36 56
M  V30 END BOND
M  V30 END CTAB
M  END
>  <Dataset>  (369) 
ChEMBL_Kinases

>  <Ligand_Instance>  (369) 
nan

>  <PDB_ID>  (369) 
nan

>  <Standardized_SMILES>  (369) 
CCC(=O)Nc1cncc(-c2cc3c(-c4cc5c(-c6cccc(F)c6)nccc5[nH]4)n[nH]c3cn2)c1

>  <Name>  (369) 
nan

>  <Pocket>  (369) 
nan

>  <ATP_Site>  (369) 
nan

>  <Peripheral>  (369) 
nan

>  <Num_H_Atoms_ProtBoundConf>  (369) 
nan

>  <Num_Resolved_Atoms>  (369) 
nan

>  <Num_Not_Resolved_Atoms>  (369) 
nan

$$$$
CHEMBL4780537
     RDKit          3D

  0  0  0  0  0  0  0  0  0  0999 V3000
M  V30 BEGIN CTAB
M  V30 COUNTS 53 57 0 0 0
M  V30 BEGIN ATOM
M  V30 1 O -2.059744 -4.565921 3.746749 0
M  V30 2 C -1.117551 -5.408681 3.731601 0
M  V30 3 N -0.693168 -5.741334 2.414360 0
M  V30 4 C -1.435995 -5.039246 1.396393 0
M  V30 5 C -0.995586 -3.815318 0.937912 0
M  V30 6 C -1.698395 -3.124257 -0.042060 0
M  V30 7 C -1.271045 -1.892660 -0.515539 0
M  V30 8 C -1.929603 -1.165929 -1.484881 0
M  V30 9 C -1.367461 0.117055 -1.887922 0
M  V30 10 C -1.948392 0.920448 -2.845286 0
M  V30 11 N -1.349890 2.103501 -3.154631 0
M  V30 12 C -0.218279 2.455978 -2.525297 0
M  V30 13 C 0.395944 1.683514 -1.562234 0
M  V30 14 N 1.580970 2.044341 -0.886317 0
M  V30 15 C 2.285447 3.289495 -1.108174 0 CFG=1
M  V30 16 C 1.502719 4.491272 -0.739530 0
M  V30 17 C 1.976498 5.225386 0.493116 0
M  V30 18 N 3.406889 5.422312 0.351021 0
M  V30 19 C 3.994898 4.113393 0.566888 0
M  V30 20 C 3.662581 3.177049 -0.567949 0 CFG=2
M  V30 21 F 4.650373 3.366241 -1.545919 0
M  V30 22 N -0.244636 0.531189 -1.304775 0
M  V30 23 C -3.070844 -1.715913 -1.993793 0
M  V30 24 C -3.530263 -2.940947 -1.548772 0
M  V30 25 C -2.856399 -3.642184 -0.584207 0
M  V30 26 C -3.262975 -4.873505 -0.095555 0
M  V30 27 N -2.580291 -5.546770 0.857638 0
M  V30 28 C -0.456332 -6.041790 4.901286 0
M  V30 29 C -0.598517 -5.394619 6.256533 0
M  V30 30 C -1.479548 -6.537429 5.952815 0
M  V30 31 H 0.095077 -6.443827 2.318888 0
M  V30 32 H -0.078405 -3.380844 1.351993 0
M  V30 33 H -0.352523 -1.519342 -0.062288 0
M  V30 34 H -2.860030 0.617137 -3.339375 0
M  V30 35 H 0.215503 3.402718 -2.813394 0
M  V30 36 H 1.962592 1.359351 -0.184349 0
M  V30 37 H 2.401959 3.337420 -2.236562 0
M  V30 38 H 1.472999 5.250215 -1.545919 0
M  V30 39 H 0.429154 4.196640 -0.586253 0
M  V30 40 H 1.493495 6.216574 0.503221 0
M  V30 41 H 1.808082 4.637633 1.425892 0
M  V30 42 H 3.778032 6.062551 1.085373 0
M  V30 43 H 5.076989 4.170862 0.683124 0
M  V30 44 H 3.531457 3.701534 1.495925 0
M  V30 45 H 3.866344 2.137013 -0.178096 0
M  V30 46 H -3.615053 -1.178018 -2.754584 0
M  V30 47 H -4.429886 -3.349365 -1.966055 0
M  V30 48 H -4.176106 -5.265290 -0.533793 0
M  V30 49 H 0.371417 -6.772507 4.741375 0
M  V30 50 H -1.057894 -4.365730 6.184839 0
M  V30 51 H 0.175461 -5.489223 7.021740 0
M  V30 52 H -2.541907 -6.325465 5.794895 0
M  V30 53 H -1.272097 -7.508691 6.447537 0
M  V30 END ATOM
M  V30 BEGIN BOND
M  V30 1 2 1 2
M  V30 2 1 2 3
M  V30 3 1 3 4
M  V30 4 2 4 5
M  V30 5 1 5 6
M  V30 6 2 6 7
M  V30 7 1 7 8
M  V30 8 1 8 9
M  V30 9 2 9 10
M  V30 10 1 10 11
M  V30 11 2 11 12
M  V30 12 1 12 13
M  V30 13 1 13 14
M  V30 14 1 14 15
M  V30 15 1 15 16
M  V30 16 1 16 17
M  V30 17 1 17 18
M  V30 18 1 18 19
M  V30 19 1 19 20
M  V30 20 1 20 21
M  V30 21 2 13 22
M  V30 22 2 8 23
M  V30 23 1 23 24
M  V30 24 2 24 25
M  V30 25 1 25 26
M  V30 26 2 26 27
M  V30 27 1 2 28
M  V30 28 1 28 29
M  V30 29 1 29 30
M  V30 30 1 27 4
M  V30 31 1 30 28
M  V30 32 1 25 6
M  V30 33 1 22 9
M  V30 34 1 20 15
M  V30 35 1 3 31
M  V30 36 1 5 32
M  V30 37 1 7 33
M  V30 38 1 10 34
M  V30 39 1 12 35
M  V30 40 1 14 36
M  V30 41 1 15 37 CFG=3
M  V30 42 1 16 38
M  V30 43 1 16 39
M  V30 44 1 17 40
M  V30 45 1 17 41
M  V30 46 1 18 42
M  V30 47 1 19 43
M  V30 48 1 19 44
M  V30 49 1 20 45 CFG=1
M  V30 50 1 23 46
M  V30 51 1 24 47
M  V30 52 1 26 48
M  V30 53 1 28 49
M  V30 54 1 29 50
M  V30 55 1 29 51
M  V30 56 1 30 52
M  V30 57 1 30 53
M  V30 END BOND
M  V30 END CTAB
M  END
>  <Dataset>  (370) 
ChEMBL_Kinases

>  <Ligand_Instance>  (370) 
nan

>  <PDB_ID>  (370) 
nan

>  <Standardized_SMILES>  (370) 
O=C(Nc1cc2cc(-c3cncc(N[C@H]4CCNC[C@@H]4F)n3)ccc2cn1)C1CC1

>  <Name>  (370) 
nan

>  <Pocket>  (370) 
nan

>  <ATP_Site>  (370) 
nan

>  <Peripheral>  (370) 
nan

>  <Num_H_Atoms_ProtBoundConf>  (370) 
nan

>  <Num_Resolved_Atoms>  (370) 
nan

>  <Num_Not_Resolved_Atoms>  (370) 
nan

$$$$
CHEMBL4780519
     RDKit          3D

  0  0  0  0  0  0  0  0  0  0999 V3000
M  V30 BEGIN CTAB
M  V30 COUNTS 62 67 0 0 0
M  V30 BEGIN ATOM
M  V30 1 C 3.367787 -4.841896 4.281896 0
M  V30 2 C 4.535926 -3.901193 4.473845 0
M  V30 3 C 4.022442 -2.611574 5.030722 0
M  V30 4 C 5.269330 -3.618910 3.188594 0
M  V30 5 C 4.332463 -2.998281 2.216879 0
M  V30 6 O 3.102866 -2.714195 2.364646 0
M  V30 7 N 4.753926 -2.621521 0.893734 0
M  V30 8 C 3.602050 -2.055752 0.226287 0
M  V30 9 C 2.884067 -3.055410 -0.433129 0
M  V30 10 N 1.762626 -2.753229 -1.125071 0
M  V30 11 C 1.326368 -1.475336 -1.183852 0
M  V30 12 C 2.036803 -0.483248 -0.531002 0
M  V30 13 C 1.616569 0.940307 -0.549756 0
M  V30 14 C 2.545195 1.959195 -0.491085 0
M  V30 15 C 2.080676 3.262625 -0.512551 0
M  V30 16 C 0.727196 3.517777 -0.590376 0
M  V30 17 N -0.018226 4.636357 -0.629083 0
M  V30 18 N -1.293092 4.328909 -0.704705 0
M  V30 19 C -1.495995 3.005137 -0.722064 0
M  V30 20 C -2.786486 2.360439 -0.798988 0
M  V30 21 C -3.264247 1.080010 -0.829891 0
M  V30 22 C -4.635278 1.033807 -0.907928 0
M  V30 23 C -5.518321 0.003178 -0.962713 0
M  V30 24 C -5.090578 -1.384889 -0.941690 0
M  V30 25 C -5.711740 -2.187685 -1.906519 0
M  V30 26 C -5.431836 -3.553005 -2.036155 0
M  V30 27 N -4.540941 -4.118702 -1.213636 0
M  V30 28 C -3.936728 -3.368082 -0.284914 0
M  V30 29 C -4.184682 -2.019062 -0.124239 0
M  V30 30 N -6.850771 0.200524 -1.040425 0
M  V30 31 C -7.257915 1.495018 -1.060400 0
M  V30 32 C -6.387735 2.586698 -1.005934 0
M  V30 33 C -5.028179 2.355254 -0.926836 0
M  V30 34 N -3.917131 3.100329 -0.861377 0
M  V30 35 C -0.217527 2.512282 -0.649718 0
M  V30 36 C 0.271389 1.230327 -0.626828 0
M  V30 37 C 3.184458 -0.751215 0.184611 0
M  V30 38 H 3.497120 -5.538105 3.433790 0
M  V30 39 H 3.275616 -5.439101 5.215724 0
M  V30 40 H 2.397778 -4.272892 4.200366 0
M  V30 41 H 5.301844 -4.377888 5.150452 0
M  V30 42 H 4.059104 -2.677227 6.142310 0
M  V30 43 H 4.747829 -1.825238 4.743194 0
M  V30 44 H 2.994847 -2.450135 4.680020 0
M  V30 45 H 6.158053 -3.027613 3.412998 0
M  V30 46 H 5.569398 -4.607670 2.760874 0
M  V30 47 H 5.748190 -2.780207 0.584211 0
M  V30 48 H 3.125891 -4.114119 -0.463608 0
M  V30 49 H 0.437518 -1.143612 -1.715578 0
M  V30 50 H 3.600752 1.730536 -0.430185 0
M  V30 51 H 2.771465 4.096192 -0.468163 0
M  V30 52 H 0.321949 5.622811 -0.605121 0
M  V30 53 H -2.656309 0.216138 -0.800294 0
M  V30 54 H -6.453880 -1.805728 -2.620872 0
M  V30 55 H -5.925845 -4.150771 -2.790311 0
M  V30 56 H -3.206707 -3.816721 0.393986 0
M  V30 57 H -3.732149 -1.366320 0.607972 0
M  V30 58 H -8.308366 1.756290 -1.121233 0
M  V30 59 H -6.726115 3.595251 -1.022604 0
M  V30 60 H -4.055570 4.140073 -0.866399 0
M  V30 61 H -0.408372 0.402908 -0.669962 0
M  V30 62 H 3.810051 -0.084076 0.721792 0
M  V30 END ATOM
M  V30 BEGIN BOND
M  V30 1 1 1 2
M  V30 2 1 2 3
M  V30 3 1 2 4
M  V30 4 1 4 5
M  V30 5 2 5 6
M  V30 6 1 5 7
M  V30 7 1 7 8
M  V30 8 2 8 9
M  V30 9 1 9 10
M  V30 10 2 10 11
M  V30 11 1 11 12
M  V30 12 1 12 13
M  V30 13 2 13 14
M  V30 14 1 14 15
M  V30 15 2 15 16
M  V30 16 1 16 17
M  V30 17 1 17 18
M  V30 18 2 18 19
M  V30 19 1 19 20
M  V30 20 2 20 21
M  V30 21 1 21 22
M  V30 22 2 22 23
M  V30 23 1 23 24
M  V30 24 2 24 25
M  V30 25 1 25 26
M  V30 26 2 26 27
M  V30 27 1 27 28
M  V30 28 2 28 29
M  V30 29 1 23 30
M  V30 30 2 30 31
M  V30 31 1 31 32
M  V30 32 2 32 33
M  V30 33 1 33 34
M  V30 34 1 19 35
M  V30 35 2 35 36
M  V30 36 2 12 37
M  V30 37 1 37 8
M  V30 38 1 36 13
M  V30 39 1 35 16
M  V30 40 1 34 20
M  V30 41 1 33 22
M  V30 42 1 29 24
M  V30 43 1 1 38
M  V30 44 1 1 39
M  V30 45 1 1 40
M  V30 46 1 2 41
M  V30 47 1 3 42
M  V30 48 1 3 43
M  V30 49 1 3 44
M  V30 50 1 4 45
M  V30 51 1 4 46
M  V30 52 1 7 47
M  V30 53 1 9 48
M  V30 54 1 11 49
M  V30 55 1 14 50
M  V30 56 1 15 51
M  V30 57 1 17 52
M  V30 58 1 21 53
M  V30 59 1 25 54
M  V30 60 1 26 55
M  V30 61 1 28 56
M  V30 62 1 29 57
M  V30 63 1 31 58
M  V30 64 1 32 59
M  V30 65 1 34 60
M  V30 66 1 36 61
M  V30 67 1 37 62
M  V30 END BOND
M  V30 END CTAB
M  END
>  <Dataset>  (371) 
ChEMBL_Kinases

>  <Ligand_Instance>  (371) 
nan

>  <PDB_ID>  (371) 
nan

>  <Standardized_SMILES>  (371) 
CC(C)CC(=O)Nc1cncc(-c2ccc3[nH]nc(-c4cc5c(-c6ccncc6)nccc5[nH]4)c3c2)c1

>  <Name>  (371) 
nan

>  <Pocket>  (371) 
nan

>  <ATP_Site>  (371) 
nan

>  <Peripheral>  (371) 
nan

>  <Num_H_Atoms_ProtBoundConf>  (371) 
nan

>  <Num_Resolved_Atoms>  (371) 
nan

>  <Num_Not_Resolved_Atoms>  (371) 
nan

$$$$
CHEMBL4212934
     RDKit          3D

  0  0  0  0  0  0  0  0  0  0999 V3000
M  V30 BEGIN CTAB
M  V30 COUNTS 47 52 0 0 0
M  V30 BEGIN ATOM
M  V30 1 C 0.589519 -3.141371 -1.390087 0
M  V30 2 O 1.098221 -1.887353 -0.953886 0
M  V30 3 C 1.730294 -1.732855 0.270877 0
M  V30 4 C 1.933834 -2.752257 1.185272 0
M  V30 5 C 2.572752 -2.523947 2.388204 0
M  V30 6 C 3.000660 -1.235091 2.641372 0
M  V30 7 C 2.829330 -0.174973 1.773415 0
M  V30 8 C 2.179949 -0.439406 0.566532 0
M  V30 9 N 1.971916 0.631093 -0.381936 0
M  V30 10 C 2.899114 1.262153 -1.142478 0
M  V30 11 N 2.261723 2.194579 -1.881104 0
M  V30 12 C 0.960434 2.180075 -1.618056 0
M  V30 13 C -0.165761 2.852726 -2.023052 0
M  V30 14 C -1.382716 2.503328 -1.466976 0
M  V30 15 C -1.571152 1.521534 -0.524332 0
M  V30 16 C -2.886303 1.206415 0.018947 0
M  V30 17 C -4.055731 1.826137 -0.328948 0
M  V30 18 C -5.276180 1.497127 0.209002 0
M  V30 19 N -5.360847 0.525352 1.122583 0
M  V30 20 C -4.249375 -0.113203 1.498991 0
M  V30 21 N -4.113971 -1.109916 2.393380 0
M  V30 22 C -2.824500 -1.482363 2.489914 0
M  V30 23 C -2.155682 -0.661661 1.603761 0
M  V30 24 C -3.007204 0.211297 0.961035 0
M  V30 25 N -0.430376 0.901926 -0.171108 0
M  V30 26 C 0.766771 1.202175 -0.678004 0
M  V30 27 C 3.650194 -1.231540 3.975494 0
M  V30 28 N 3.474446 -2.540148 4.516779 0
M  V30 29 C 2.917443 -3.407099 3.526553 0
M  V30 30 H -0.433077 -3.251838 -0.983447 0
M  V30 31 H 0.518219 -3.209691 -2.477217 0
M  V30 32 H 1.264202 -3.976466 -1.073855 0
M  V30 33 H 1.575299 -3.741789 0.929202 0
M  V30 34 H 3.183533 0.823320 2.016323 0
M  V30 35 H 3.960329 1.025351 -1.127434 0
M  V30 36 H -0.058895 3.633512 -2.764457 0
M  V30 37 H -2.208449 3.087050 -1.847513 0
M  V30 38 H -4.022841 2.616779 -1.065333 0
M  V30 39 H -6.162041 2.045383 -0.127309 0
M  V30 40 H -4.888689 -1.555048 2.953045 0
M  V30 41 H -2.385357 -2.252607 3.116908 0
M  V30 42 H -1.088029 -0.707942 1.441668 0
M  V30 43 H 4.747681 -1.071408 3.797874 0
M  V30 44 H 3.267028 -0.418444 4.606471 0
M  V30 45 H 4.355992 -2.950075 4.922454 0
M  V30 46 H 3.596254 -4.237415 3.236946 0
M  V30 47 H 2.012126 -3.885679 3.985126 0
M  V30 END ATOM
M  V30 BEGIN BOND
M  V30 1 1 1 2
M  V30 2 1 2 3
M  V30 3 2 3 4
M  V30 4 1 4 5
M  V30 5 2 5 6
M  V30 6 1 6 7
M  V30 7 2 7 8
M  V30 8 1 8 9
M  V30 9 1 9 10
M  V30 10 2 10 11
M  V30 11 1 11 12
M  V30 12 2 12 13
M  V30 13 1 13 14
M  V30 14 2 14 15
M  V30 15 1 15 16
M  V30 16 2 16 17
M  V30 17 1 17 18
M  V30 18 2 18 19
M  V30 19 1 19 20
M  V30 20 1 20 21
M  V30 21 1 21 22
M  V30 22 2 22 23
M  V30 23 1 23 24
M  V30 24 1 15 25
M  V30 25 2 25 26
M  V30 26 1 6 27
M  V30 27 1 27 28
M  V30 28 1 28 29
M  V30 29 1 8 3
M  V30 30 1 26 9
M  V30 31 1 29 5
M  V30 32 1 26 12
M  V30 33 1 24 16
M  V30 34 2 24 20
M  V30 35 1 1 30
M  V30 36 1 1 31
M  V30 37 1 1 32
M  V30 38 1 4 33
M  V30 39 1 7 34
M  V30 40 1 10 35
M  V30 41 1 13 36
M  V30 42 1 14 37
M  V30 43 1 17 38
M  V30 44 1 18 39
M  V30 45 1 21 40
M  V30 46 1 22 41
M  V30 47 1 23 42
M  V30 48 1 27 43
M  V30 49 1 27 44
M  V30 50 1 28 45
M  V30 51 1 29 46
M  V30 52 1 29 47
M  V30 END BOND
M  V30 END CTAB
M  END
>  <Dataset>  (372) 
ChEMBL_Kinases

>  <Ligand_Instance>  (372) 
nan

>  <PDB_ID>  (372) 
nan

>  <Standardized_SMILES>  (372) 
COc1cc2c(cc1-n1cnc3ccc(-c4ccnc5[nH]ccc45)nc31)CNC2

>  <Name>  (372) 
nan

>  <Pocket>  (372) 
nan

>  <ATP_Site>  (372) 
nan

>  <Peripheral>  (372) 
nan

>  <Num_H_Atoms_ProtBoundConf>  (372) 
nan

>  <Num_Resolved_Atoms>  (372) 
nan

>  <Num_Not_Resolved_Atoms>  (372) 
nan

$$$$
CHEMBL4780416
     RDKit          3D

  0  0  0  0  0  0  0  0  0  0999 V3000
M  V30 BEGIN CTAB
M  V30 COUNTS 48 51 0 0 0
M  V30 BEGIN ATOM
M  V30 1 C 0.363902 -4.141834 1.541925 0
M  V30 2 C 0.688346 -4.243245 0.096189 0
M  V30 3 N 0.664877 -5.351930 -0.670873 0
M  V30 4 N 1.018720 -5.026667 -1.907279 0
M  V30 5 C 1.287684 -3.711933 -2.013361 0
M  V30 6 C 1.688626 -2.923592 -3.086546 0
M  V30 7 C 1.876494 -1.569288 -2.820184 0
M  V30 8 C 1.683541 -1.015268 -1.574717 0
M  V30 9 C 1.887977 0.405255 -1.326544 0
M  V30 10 C 2.283338 1.312474 -2.283724 0
M  V30 11 N 2.462292 2.629913 -2.008870 0
M  V30 12 C 2.246005 3.087858 -0.740070 0
M  V30 13 C 1.843763 2.171172 0.238706 0
M  V30 14 O 1.669843 2.793017 1.458674 0
M  V30 15 C 1.262763 2.038438 2.578367 0
M  V30 16 C -0.063130 1.423722 2.295774 0 CFG=2
M  V30 17 N -1.011548 2.498515 2.034322 0
M  V30 18 C -0.614831 0.645346 3.473319 0
M  V30 19 C -1.935438 0.102190 3.020508 0
M  V30 20 C -3.073643 0.857175 3.220749 0
M  V30 21 C -4.310351 0.400037 2.821587 0
M  V30 22 C -4.431342 -0.846293 2.202424 0
M  V30 23 C -3.270380 -1.591006 2.010427 0
M  V30 24 C -2.019197 -1.144659 2.406467 0
M  V30 25 N 1.687219 0.900735 -0.093854 0
M  V30 26 C 1.286168 -1.841940 -0.546507 0
M  V30 27 C 1.080793 -3.204762 -0.745778 0
M  V30 28 H 0.735745 -5.066642 2.066425 0
M  V30 29 H 0.866827 -3.296942 2.029596 0
M  V30 30 H -0.729976 -4.157834 1.682634 0
M  V30 31 H 1.070386 -5.747126 -2.687618 0
M  V30 32 H 1.847848 -3.332053 -4.076206 0
M  V30 33 H 2.185064 -0.990213 -3.667647 0
M  V30 34 H 2.461148 0.979162 -3.293073 0
M  V30 35 H 2.411749 4.152643 -0.606917 0
M  V30 36 H 1.987334 1.188075 2.745982 0
M  V30 37 H 1.174984 2.638822 3.492935 0
M  V30 38 H -0.101913 0.738476 1.435780 0
M  V30 39 H -0.738112 2.919485 1.124844 0
M  V30 40 H -1.042029 3.182706 2.822547 0
M  V30 41 H -0.737772 1.287880 4.370370 0
M  V30 42 H 0.068688 -0.187141 3.698053 0
M  V30 43 H -2.981725 1.822858 3.700226 0
M  V30 44 H -5.227883 0.979447 2.968912 0
M  V30 45 H -5.407022 -1.200913 1.890429 0
M  V30 46 H -3.331591 -2.567970 1.529934 0
M  V30 47 H -1.149491 -1.741875 2.243647 0
M  V30 48 H 1.129277 -1.421487 0.442743 0
M  V30 END ATOM
M  V30 BEGIN BOND
M  V30 1 1 1 2
M  V30 2 2 2 3
M  V30 3 1 3 4
M  V30 4 1 4 5
M  V30 5 2 5 6
M  V30 6 1 6 7
M  V30 7 2 7 8
M  V30 8 1 8 9
M  V30 9 2 9 10
M  V30 10 1 10 11
M  V30 11 2 11 12
M  V30 12 1 12 13
M  V30 13 1 13 14
M  V30 14 1 14 15
M  V30 15 1 15 16
M  V30 16 1 16 17
M  V30 17 1 16 18
M  V30 18 1 18 19
M  V30 19 2 19 20
M  V30 20 1 20 21
M  V30 21 2 21 22
M  V30 22 1 22 23
M  V30 23 2 23 24
M  V30 24 2 13 25
M  V30 25 1 8 26
M  V30 26 2 26 27
M  V30 27 1 27 2
M  V30 28 1 27 5
M  V30 29 1 25 9
M  V30 30 1 24 19
M  V30 31 1 1 28
M  V30 32 1 1 29
M  V30 33 1 1 30
M  V30 34 1 4 31
M  V30 35 1 6 32
M  V30 36 1 7 33
M  V30 37 1 10 34
M  V30 38 1 12 35
M  V30 39 1 15 36
M  V30 40 1 15 37
M  V30 41 1 16 38 CFG=3
M  V30 42 1 17 39
M  V30 43 1 17 40
M  V30 44 1 18 41
M  V30 45 1 18 42
M  V30 46 1 20 43
M  V30 47 1 21 44
M  V30 48 1 22 45
M  V30 49 1 23 46
M  V30 50 1 24 47
M  V30 51 1 26 48
M  V30 END BOND
M  V30 END CTAB
M  END
>  <Dataset>  (373) 
ChEMBL_Kinases

>  <Ligand_Instance>  (373) 
nan

>  <PDB_ID>  (373) 
nan

>  <Standardized_SMILES>  (373) 
Cc1n[nH]c2ccc(-c3cncc(OC[C@H](N)Cc4ccccc4)n3)cc12

>  <Name>  (373) 
nan

>  <Pocket>  (373) 
nan

>  <ATP_Site>  (373) 
nan

>  <Peripheral>  (373) 
nan

>  <Num_H_Atoms_ProtBoundConf>  (373) 
nan

>  <Num_Resolved_Atoms>  (373) 
nan

>  <Num_Not_Resolved_Atoms>  (373) 
nan

$$$$
CHEMBL4780410
     RDKit          3D

  0  0  0  0  0  0  0  0  0  0999 V3000
M  V30 BEGIN CTAB
M  V30 COUNTS 50 53 0 0 0
M  V30 BEGIN ATOM
M  V30 1 O 1.265035 -0.269212 0.625837 0
M  V30 2 C 0.696446 0.681446 1.263259 0
M  V30 3 N 1.462283 1.693123 1.905685 0
M  V30 4 C 2.899442 1.596137 1.804526 0
M  V30 5 C 3.708389 0.922400 2.697399 0
M  V30 6 C 5.073858 0.908688 2.480971 0
M  V30 7 C 5.953652 0.182472 3.442039 0
M  V30 8 F 5.226762 -0.171330 4.560103 0
M  V30 9 F 7.091813 0.904305 3.741186 0
M  V30 10 F 6.392282 -0.986289 2.807544 0
M  V30 11 C 5.628694 1.555320 1.392508 0
M  V30 12 C 4.813171 2.240053 0.483911 0
M  V30 13 C 5.417804 2.941793 -0.697745 0
M  V30 14 F 6.702128 3.328957 -0.464183 0
M  V30 15 F 4.619265 4.044366 -1.010326 0
M  V30 16 F 5.314606 2.085689 -1.779635 0
M  V30 17 C 3.452441 2.247853 0.708584 0
M  V30 18 N -0.725418 0.716792 1.323651 0
M  V30 19 C -1.616336 -0.253277 0.711748 0
M  V30 20 C -2.450477 0.492734 -0.286494 0
M  V30 21 C -3.592151 -0.310809 -0.868292 0
M  V30 22 N -3.616575 -1.581504 -0.115779 0
M  V30 23 C -3.478091 -2.770718 -0.867171 0
M  V30 24 N -3.671819 -2.700686 -2.217725 0
M  V30 25 C -3.596704 -3.773082 -3.020628 0
M  V30 26 N -3.321504 -5.007966 -2.545156 0
M  V30 27 C -3.117392 -5.156401 -1.223207 0
M  V30 28 N -2.822088 -6.222471 -0.459050 0
M  V30 29 N -2.718325 -5.789414 0.804220 0
M  V30 30 C -2.944366 -4.470043 0.840757 0
M  V30 31 C -3.200511 -4.041927 -0.426713 0
M  V30 32 C -3.799513 -1.323456 1.275458 0
M  V30 33 C -2.459227 -0.866746 1.816119 0
M  V30 34 H 1.012554 2.483314 2.434919 0
M  V30 35 H 3.222118 0.440979 3.520495 0
M  V30 36 H 6.710645 1.529906 1.243332 0
M  V30 37 H 2.873340 2.800494 -0.038500 0
M  V30 38 H -1.233978 1.480394 1.837011 0
M  V30 39 H -0.948854 -0.986039 0.214494 0
M  V30 40 H -1.776012 0.730648 -1.160491 0
M  V30 41 H -2.889820 1.414202 0.139958 0
M  V30 42 H -3.480280 -0.510087 -1.951650 0
M  V30 43 H -4.573716 0.178379 -0.701565 0
M  V30 44 H -3.763135 -3.639038 -4.085369 0
M  V30 45 H -2.698568 -7.206780 -0.802537 0
M  V30 46 H -2.909250 -3.899666 1.731559 0
M  V30 47 H -4.469226 -0.413598 1.377572 0
M  V30 48 H -4.304568 -2.083328 1.864337 0
M  V30 49 H -2.563262 -0.098357 2.608767 0
M  V30 50 H -1.894044 -1.709659 2.233533 0
M  V30 END ATOM
M  V30 BEGIN BOND
M  V30 1 2 1 2
M  V30 2 1 2 3
M  V30 3 1 3 4
M  V30 4 2 4 5
M  V30 5 1 5 6
M  V30 6 1 6 7
M  V30 7 1 7 8
M  V30 8 1 7 9
M  V30 9 1 7 10
M  V30 10 2 6 11
M  V30 11 1 11 12
M  V30 12 1 12 13
M  V30 13 1 13 14
M  V30 14 1 13 15
M  V30 15 1 13 16
M  V30 16 2 12 17
M  V30 17 1 2 18
M  V30 18 1 18 19
M  V30 19 1 19 20
M  V30 20 1 20 21
M  V30 21 1 21 22
M  V30 22 1 22 23
M  V30 23 2 23 24
M  V30 24 1 24 25
M  V30 25 2 25 26
M  V30 26 1 26 27
M  V30 27 1 27 28
M  V30 28 1 28 29
M  V30 29 2 29 30
M  V30 30 1 30 31
M  V30 31 1 22 32
M  V30 32 1 32 33
M  V30 33 1 17 4
M  V30 34 1 33 19
M  V30 35 1 31 23
M  V30 36 2 31 27
M  V30 37 1 3 34
M  V30 38 1 5 35
M  V30 39 1 11 36
M  V30 40 1 17 37
M  V30 41 1 18 38
M  V30 42 1 19 39
M  V30 43 1 20 40
M  V30 44 1 20 41
M  V30 45 1 21 42
M  V30 46 1 21 43
M  V30 47 1 25 44
M  V30 48 1 28 45
M  V30 49 1 30 46
M  V30 50 1 32 47
M  V30 51 1 32 48
M  V30 52 1 33 49
M  V30 53 1 33 50
M  V30 END BOND
M  V30 END CTAB
M  END
>  <Dataset>  (374) 
ChEMBL_Kinases

>  <Ligand_Instance>  (374) 
nan

>  <PDB_ID>  (374) 
nan

>  <Standardized_SMILES>  (374) 
O=C(Nc1cc(C(F)(F)F)cc(C(F)(F)F)c1)NC1CCN(c2ncnc3[nH]ncc23)CC1

>  <Name>  (374) 
nan

>  <Pocket>  (374) 
nan

>  <ATP_Site>  (374) 
nan

>  <Peripheral>  (374) 
nan

>  <Num_H_Atoms_ProtBoundConf>  (374) 
nan

>  <Num_Resolved_Atoms>  (374) 
nan

>  <Num_Not_Resolved_Atoms>  (374) 
nan

$$$$
CHEMBL4780323
     RDKit          3D

  0  0  0  0  0  0  0  0  0  0999 V3000
M  V30 BEGIN CTAB
M  V30 COUNTS 60 65 0 0 0
M  V30 BEGIN ATOM
M  V30 1 C 3.155932 -4.248129 0.086501 0
M  V30 2 C 4.067165 -3.275286 -0.599953 0
M  V30 3 C 3.494543 -1.902745 -0.615289 0
M  V30 4 O 2.355905 -1.733397 -0.138002 0
M  V30 5 N 4.166643 -0.772639 -1.139187 0
M  V30 6 C 3.778265 0.583603 -1.229848 0
M  V30 7 C 4.720026 1.435205 -1.771798 0
M  V30 8 N 4.434543 2.743009 -1.878102 0
M  V30 9 C 3.252657 3.234001 -1.468302 0
M  V30 10 C 2.267531 2.448765 -0.920827 0
M  V30 11 C 1.025445 3.051317 -0.472341 0
M  V30 12 C 0.890638 4.424186 -0.555834 0
M  V30 13 C -0.224142 5.113613 -0.132178 0
M  V30 14 C -1.282809 4.388986 0.413979 0
M  V30 15 N -2.461165 4.816523 0.897976 0
M  V30 16 N -3.057128 3.718171 1.278011 0
M  V30 17 C -2.318385 2.620851 1.059769 0
M  V30 18 C -2.749257 1.273901 1.386216 0
M  V30 19 N -2.196072 0.064627 1.217123 0
M  V30 20 C -3.056810 -0.887118 1.683283 0
M  V30 21 C -3.095021 -2.262530 1.791259 0
M  V30 22 N -1.999983 -2.998538 1.328834 0
M  V30 23 C -0.573261 -3.138522 1.666315 0
M  V30 24 C -0.340603 -4.640640 1.790097 0
M  V30 25 C -0.490622 -5.307334 0.435770 0
M  V30 26 C -1.293633 -4.405802 -0.502728 0
M  V30 27 C -2.489216 -3.820533 0.215338 0
M  V30 28 C -4.167242 -2.938109 2.330817 0
M  V30 29 C -5.270707 -2.259785 2.795344 0
M  V30 30 N -5.240388 -0.923280 2.692298 0
M  V30 31 C -4.208989 -0.265583 2.172567 0
M  V30 32 N -3.956714 1.057526 1.960973 0
M  V30 33 C -1.130359 3.003477 0.489399 0
M  V30 34 N -0.029318 2.415933 0.061881 0
M  V30 35 C 2.581586 1.114906 -0.821897 0
M  V30 36 H 2.188865 -3.744129 0.340813 0
M  V30 37 H 2.936236 -5.157940 -0.506996 0
M  V30 38 H 3.603142 -4.627746 1.052367 0
M  V30 39 H 5.029569 -3.282585 -0.058180 0
M  V30 40 H 4.258949 -3.635625 -1.644347 0
M  V30 41 H 5.114084 -1.077378 -1.505228 0
M  V30 42 H 5.698389 1.087408 -2.120978 0
M  V30 43 H 3.205882 4.285504 -1.631632 0
M  V30 44 H 1.613215 5.129392 -0.949126 0
M  V30 45 H -0.342455 6.204181 -0.195386 0
M  V30 46 H -2.828135 5.771021 0.961728 0
M  V30 47 H -0.300703 -2.618256 2.590554 0
M  V30 48 H 0.014620 -2.732681 0.832016 0
M  V30 49 H -1.202973 -5.014070 2.402991 0
M  V30 50 H 0.582891 -4.909742 2.293459 0
M  V30 51 H 0.506787 -5.411828 -0.003336 0
M  V30 52 H -0.985465 -6.285759 0.532564 0
M  V30 53 H -1.651598 -5.029104 -1.324003 0
M  V30 54 H -0.661661 -3.596684 -0.886190 0
M  V30 55 H -3.090164 -3.233804 -0.512017 0
M  V30 56 H -3.159185 -4.611855 0.613020 0
M  V30 57 H -4.173581 -4.005741 2.404594 0
M  V30 58 H -6.112311 -2.793268 3.219125 0
M  V30 59 H -4.693168 1.745149 2.254293 0
M  V30 60 H 1.846390 0.471947 -0.402699 0
M  V30 END ATOM
M  V30 BEGIN BOND
M  V30 1 1 1 2
M  V30 2 1 2 3
M  V30 3 2 3 4
M  V30 4 1 3 5
M  V30 5 1 5 6
M  V30 6 2 6 7
M  V30 7 1 7 8
M  V30 8 2 8 9
M  V30 9 1 9 10
M  V30 10 1 10 11
M  V30 11 2 11 12
M  V30 12 1 12 13
M  V30 13 2 13 14
M  V30 14 1 14 15
M  V30 15 1 15 16
M  V30 16 2 16 17
M  V30 17 1 17 18
M  V30 18 2 18 19
M  V30 19 1 19 20
M  V30 20 2 20 21
M  V30 21 1 21 22
M  V30 22 1 22 23
M  V30 23 1 23 24
M  V30 24 1 24 25
M  V30 25 1 25 26
M  V30 26 1 26 27
M  V30 27 1 21 28
M  V30 28 2 28 29
M  V30 29 1 29 30
M  V30 30 2 30 31
M  V30 31 1 31 32
M  V30 32 1 17 33
M  V30 33 2 33 34
M  V30 34 2 10 35
M  V30 35 1 35 6
M  V30 36 1 34 11
M  V30 37 1 33 14
M  V30 38 1 32 18
M  V30 39 1 31 20
M  V30 40 1 27 22
M  V30 41 1 1 36
M  V30 42 1 1 37
M  V30 43 1 1 38
M  V30 44 1 2 39
M  V30 45 1 2 40
M  V30 46 1 5 41
M  V30 47 1 7 42
M  V30 48 1 9 43
M  V30 49 1 12 44
M  V30 50 1 13 45
M  V30 51 1 15 46
M  V30 52 1 23 47
M  V30 53 1 23 48
M  V30 54 1 24 49
M  V30 55 1 24 50
M  V30 56 1 25 51
M  V30 57 1 25 52
M  V30 58 1 26 53
M  V30 59 1 26 54
M  V30 60 1 27 55
M  V30 61 1 27 56
M  V30 62 1 28 57
M  V30 63 1 29 58
M  V30 64 1 32 59
M  V30 65 1 35 60
M  V30 END BOND
M  V30 END CTAB
M  END
>  <Dataset>  (375) 
ChEMBL_Kinases

>  <Ligand_Instance>  (375) 
nan

>  <PDB_ID>  (375) 
nan

>  <Standardized_SMILES>  (375) 
CCC(=O)Nc1cncc(-c2ccc3[nH]nc(-c4nc5c(N6CCCCC6)ccnc5[nH]4)c3n2)c1

>  <Name>  (375) 
nan

>  <Pocket>  (375) 
nan

>  <ATP_Site>  (375) 
nan

>  <Peripheral>  (375) 
nan

>  <Num_H_Atoms_ProtBoundConf>  (375) 
nan

>  <Num_Resolved_Atoms>  (375) 
nan

>  <Num_Not_Resolved_Atoms>  (375) 
nan

$$$$
CHEMBL1794066
     RDKit          3D

  0  0  0  0  0  0  0  0  0  0999 V3000
M  V30 BEGIN CTAB
M  V30 COUNTS 55 58 0 0 0
M  V30 BEGIN ATOM
M  V30 1 C 0.174496 -3.789934 1.454399 0
M  V30 2 C 0.904463 -2.931981 0.461185 0
M  V30 3 N 1.001225 -1.551561 0.842319 0
M  V30 4 C 1.941737 -0.958606 1.573168 0
M  V30 5 C 3.111494 -1.396890 2.288608 0
M  V30 6 N 3.947861 -0.565198 2.925932 0
M  V30 7 O 4.941969 -1.161670 3.473781 0
M  V30 8 N 4.855872 -2.462038 3.248234 0
M  V30 9 C 3.729788 -2.584847 2.522847 0
M  V30 10 N 3.354541 -3.869849 2.153653 0
M  V30 11 N 1.603649 0.338160 1.571341 0
M  V30 12 C 0.512742 0.582939 0.889219 0
M  V30 13 C -0.180089 1.734547 0.637535 0
M  V30 14 C 0.337845 2.952702 1.190719 0
M  V30 15 C 0.760529 3.975324 1.672496 0
M  V30 16 C 1.255089 5.228033 2.251857 0
M  V30 17 C 0.042032 6.071011 2.557520 0
M  V30 18 C 2.013927 4.980575 3.539711 0
M  V30 19 O 2.073780 5.884074 1.363504 0
M  V30 20 N -1.320671 1.694182 -0.114874 0
M  V30 21 C -1.714283 0.465696 -0.585728 0
M  V30 22 C -1.008452 -0.721875 -0.331839 0
M  V30 23 O -1.594586 -1.700563 -0.879966 0
M  V30 24 C -2.203660 -2.717560 -1.449546 0
M  V30 25 C -3.643621 -2.973455 -0.976179 0
M  V30 26 C -4.230593 -4.013851 -1.901111 0
M  V30 27 N -3.214173 -4.785116 -2.559661 0
M  V30 28 C -2.448005 -4.027449 -3.530931 0
M  V30 29 C -2.330110 -2.625026 -2.981815 0
M  V30 30 C 0.125499 -0.638929 0.421363 0
M  V30 31 H -0.911927 -3.477635 1.448948 0
M  V30 32 H 0.194132 -4.854893 1.206162 0
M  V30 33 H 0.492611 -3.582952 2.503410 0
M  V30 34 H 1.886391 -3.340135 0.228676 0
M  V30 35 H 0.381636 -2.996874 -0.541704 0
M  V30 36 H 3.797466 -4.320187 1.307193 0
M  V30 37 H 3.020163 -4.824454 1.948863 0
M  V30 38 H -0.781870 5.453026 3.005515 0
M  V30 39 H 0.330739 6.767110 3.371915 0
M  V30 40 H -0.272542 6.631083 1.673462 0
M  V30 41 H 3.061824 4.659046 3.368268 0
M  V30 42 H 1.542810 4.134204 4.107967 0
M  V30 43 H 2.076503 5.891036 4.163150 0
M  V30 44 H 3.024385 5.587225 1.508145 0
M  V30 45 H -2.640050 0.621588 -1.162542 0
M  V30 46 H -1.714846 -3.731293 -1.289932 0
M  V30 47 H -3.666194 -3.253420 0.089371 0
M  V30 48 H -4.266789 -2.058155 -1.062984 0
M  V30 49 H -4.845826 -4.764926 -1.322561 0
M  V30 50 H -4.961294 -3.563845 -2.626962 0
M  V30 51 H -3.566434 -5.688894 -2.901274 0
M  V30 52 H -1.408605 -4.467484 -3.524733 0
M  V30 53 H -2.889309 -4.066893 -4.546302 0
M  V30 54 H -1.471333 -2.081919 -3.397617 0
M  V30 55 H -3.266855 -2.042137 -3.174925 0
M  V30 END ATOM
M  V30 BEGIN BOND
M  V30 1 1 1 2
M  V30 2 1 2 3
M  V30 3 1 3 4
M  V30 4 1 4 5
M  V30 5 2 5 6
M  V30 6 1 6 7
M  V30 7 1 7 8
M  V30 8 2 8 9
M  V30 9 1 9 10
M  V30 10 2 4 11
M  V30 11 1 11 12
M  V30 12 2 12 13
M  V30 13 1 13 14
M  V30 14 3 14 15
M  V30 15 1 15 16
M  V30 16 1 16 17
M  V30 17 1 16 18
M  V30 18 1 16 19
M  V30 19 1 13 20
M  V30 20 2 20 21
M  V30 21 1 21 22
M  V30 22 1 22 23
M  V30 23 1 23 24
M  V30 24 1 24 25
M  V30 25 1 25 26
M  V30 26 1 26 27
M  V30 27 1 27 28
M  V30 28 1 28 29
M  V30 29 2 22 30
M  V30 30 1 30 3
M  V30 31 1 9 5
M  V30 32 1 30 12
M  V30 33 1 29 24
M  V30 34 1 1 31
M  V30 35 1 1 32
M  V30 36 1 1 33
M  V30 37 1 2 34
M  V30 38 1 2 35
M  V30 39 1 10 36
M  V30 40 1 10 37
M  V30 41 1 17 38
M  V30 42 1 17 39
M  V30 43 1 17 40
M  V30 44 1 18 41
M  V30 45 1 18 42
M  V30 46 1 18 43
M  V30 47 1 19 44
M  V30 48 1 21 45
M  V30 49 1 24 46
M  V30 50 1 25 47
M  V30 51 1 25 48
M  V30 52 1 26 49
M  V30 53 1 26 50
M  V30 54 1 27 51
M  V30 55 1 28 52
M  V30 56 1 28 53
M  V30 57 1 29 54
M  V30 58 1 29 55
M  V30 END BOND
M  V30 END CTAB
M  END
>  <Dataset>  (376) 
ChEMBL_Kinases

>  <Ligand_Instance>  (376) 
nan

>  <PDB_ID>  (376) 
nan

>  <Standardized_SMILES>  (376) 
CCn1c(-c2nonc2N)nc2c(C#CC(C)(C)O)ncc(OC3CCNCC3)c21

>  <Name>  (376) 
GSK-619487A

>  <Pocket>  (376) 
nan

>  <ATP_Site>  (376) 
nan

>  <Peripheral>  (376) 
nan

>  <Num_H_Atoms_ProtBoundConf>  (376) 
nan

>  <Num_Resolved_Atoms>  (376) 
nan

>  <Num_Not_Resolved_Atoms>  (376) 
nan

$$$$
CHEMBL4780076
     RDKit          3D

  0  0  0  0  0  0  0  0  0  0999 V3000
M  V30 BEGIN CTAB
M  V30 COUNTS 57 62 0 0 0
M  V30 BEGIN ATOM
M  V30 1 C 6.217139 -0.991703 2.448988 0
M  V30 2 N 5.540990 0.205725 1.945810 0
M  V30 3 C 4.395232 0.484341 2.802493 0
M  V30 4 C 5.113607 -0.021834 0.578710 0
M  V30 5 C 4.424104 1.144896 -0.012238 0
M  V30 6 C 5.127080 2.126726 -0.695111 0
M  V30 7 N 4.509688 3.211799 -1.248228 0
M  V30 8 C 3.175798 3.367780 -1.147906 0
M  V30 9 C 2.395066 2.431306 -0.480830 0
M  V30 10 C 0.945267 2.502981 -0.313739 0
M  V30 11 C 0.347858 3.765086 -0.212778 0
M  V30 12 C -1.026774 3.815777 -0.053711 0
M  V30 13 C -1.763394 2.656575 0.001112 0
M  V30 14 N -3.061476 2.382967 0.143171 0
M  V30 15 N -3.267910 1.086706 0.133780 0
M  V30 16 C -2.118798 0.390467 -0.016061 0
M  V30 17 C -1.993695 -1.047963 -0.067124 0
M  V30 18 C -3.097195 -1.881606 0.039007 0
M  V30 19 C -2.751369 -3.205836 -0.034312 0
M  V30 20 C -3.425924 -4.404745 0.011577 0
M  V30 21 C -4.865856 -4.419890 0.184249 0
M  V30 22 C -5.665874 -3.739139 1.069295 0
M  V30 23 C -7.039813 -3.922664 1.032124 0
M  V30 24 N -7.594750 -4.749678 0.150774 0
M  V30 25 C -6.859500 -5.434702 -0.730726 0
M  V30 26 C -5.487167 -5.276758 -0.723163 0
M  V30 27 C -2.741966 -5.617473 -0.100228 0
M  V30 28 N -1.411607 -5.564631 -0.252540 0
M  V30 29 C -0.726469 -4.409668 -0.300533 0
M  V30 30 C -1.386675 -3.219348 -0.192221 0
M  V30 31 N -1.007584 -1.933772 -0.203350 0
M  V30 32 C -1.195045 1.404392 -0.096275 0
M  V30 33 C 0.171494 1.385742 -0.253637 0
M  V30 34 C 3.061874 1.350647 0.062574 0
M  V30 35 H 7.299093 -0.725186 2.505574 0
M  V30 36 H 6.069949 -1.827915 1.737495 0
M  V30 37 H 5.828470 -1.322761 3.428099 0
M  V30 38 H 3.574014 -0.240003 2.590193 0
M  V30 39 H 4.672435 0.315827 3.849604 0
M  V30 40 H 4.015737 1.493478 2.621938 0
M  V30 41 H 5.911073 -0.377062 -0.069463 0
M  V30 42 H 4.328049 -0.830547 0.632794 0
M  V30 43 H 6.206536 2.041838 -0.801302 0
M  V30 44 H 2.653083 4.217711 -1.575040 0
M  V30 45 H 0.921347 4.679008 -0.255495 0
M  V30 46 H -1.574323 4.742769 0.032921 0
M  V30 47 H -3.858119 3.050060 0.251354 0
M  V30 48 H -4.142603 -1.600567 0.164376 0
M  V30 49 H -5.115365 -3.103215 1.736189 0
M  V30 50 H -7.543479 -3.321847 1.787328 0
M  V30 51 H -7.415874 -6.077412 -1.399261 0
M  V30 52 H -4.984413 -5.874440 -1.474708 0
M  V30 53 H -3.255960 -6.575630 -0.066786 0
M  V30 54 H 0.340832 -4.399054 -0.423848 0
M  V30 55 H -0.010202 -1.684579 -0.312120 0
M  V30 56 H 0.697562 0.455838 -0.338449 0
M  V30 57 H 2.507817 0.577437 0.600745 0
M  V30 END ATOM
M  V30 BEGIN BOND
M  V30 1 1 1 2
M  V30 2 1 2 3
M  V30 3 1 2 4
M  V30 4 1 4 5
M  V30 5 2 5 6
M  V30 6 1 6 7
M  V30 7 2 7 8
M  V30 8 1 8 9
M  V30 9 1 9 10
M  V30 10 2 10 11
M  V30 11 1 11 12
M  V30 12 2 12 13
M  V30 13 1 13 14
M  V30 14 1 14 15
M  V30 15 2 15 16
M  V30 16 1 16 17
M  V30 17 2 17 18
M  V30 18 1 18 19
M  V30 19 2 19 20
M  V30 20 1 20 21
M  V30 21 2 21 22
M  V30 22 1 22 23
M  V30 23 2 23 24
M  V30 24 1 24 25
M  V30 25 2 25 26
M  V30 26 1 20 27
M  V30 27 2 27 28
M  V30 28 1 28 29
M  V30 29 2 29 30
M  V30 30 1 30 31
M  V30 31 1 16 32
M  V30 32 2 32 33
M  V30 33 2 9 34
M  V30 34 1 34 5
M  V30 35 1 33 10
M  V30 36 1 32 13
M  V30 37 1 31 17
M  V30 38 1 30 19
M  V30 39 1 26 21
M  V30 40 1 1 35
M  V30 41 1 1 36
M  V30 42 1 1 37
M  V30 43 1 3 38
M  V30 44 1 3 39
M  V30 45 1 3 40
M  V30 46 1 4 41
M  V30 47 1 4 42
M  V30 48 1 6 43
M  V30 49 1 8 44
M  V30 50 1 11 45
M  V30 51 1 12 46
M  V30 52 1 14 47
M  V30 53 1 18 48
M  V30 54 1 22 49
M  V30 55 1 23 50
M  V30 56 1 25 51
M  V30 57 1 26 52
M  V30 58 1 27 53
M  V30 59 1 29 54
M  V30 60 1 31 55
M  V30 61 1 33 56
M  V30 62 1 34 57
M  V30 END BOND
M  V30 END CTAB
M  END
>  <Dataset>  (377) 
ChEMBL_Kinases

>  <Ligand_Instance>  (377) 
nan

>  <PDB_ID>  (377) 
nan

>  <Standardized_SMILES>  (377) 
CN(C)Cc1cncc(-c2ccc3[nH]nc(-c4cc5c(-c6ccncc6)cncc5[nH]4)c3c2)c1

>  <Name>  (377) 
nan

>  <Pocket>  (377) 
nan

>  <ATP_Site>  (377) 
nan

>  <Peripheral>  (377) 
nan

>  <Num_H_Atoms_ProtBoundConf>  (377) 
nan

>  <Num_Resolved_Atoms>  (377) 
nan

>  <Num_Not_Resolved_Atoms>  (377) 
nan

$$$$
CHEMBL4782720
     RDKit          3D

  0  0  0  0  0  0  0  0  0  0999 V3000
M  V30 BEGIN CTAB
M  V30 COUNTS 57 62 0 0 0
M  V30 BEGIN ATOM
M  V30 1 C 5.118859 -1.096464 1.242235 0
M  V30 2 N 3.861681 -1.757096 1.011881 0
M  V30 3 C 3.930657 -3.111654 1.485822 0
M  V30 4 C 3.512345 -1.767162 -0.407633 0
M  V30 5 C 3.394173 -0.395251 -0.945679 0
M  V30 6 C 4.450439 0.299791 -1.497886 0
M  V30 7 N 4.193138 1.541525 -1.947131 0
M  V30 8 C 2.948908 2.098445 -1.865774 0
M  V30 9 C 1.871474 1.431836 -1.320029 0
M  V30 10 C 0.585647 2.118538 -1.281944 0
M  V30 11 C -0.556735 1.547544 -0.759503 0
M  V30 12 C -1.745475 2.247097 -0.751080 0
M  V30 13 C -3.014480 1.940566 -0.306317 0
M  V30 14 C -3.472049 0.701992 0.320720 0
M  V30 15 N -2.746939 -0.399037 0.594485 0
M  V30 16 C -3.518614 -1.333425 1.174356 0
M  V30 17 C -3.371655 -2.618243 1.669009 0
M  V30 18 C -2.039550 -3.224957 1.586209 0
M  V30 19 C -1.439159 -3.031450 0.349793 0
M  V30 20 C -0.165448 -3.530513 0.062486 0
M  V30 21 C 0.462824 -4.226533 1.075947 0
M  V30 22 C -0.116902 -4.425646 2.301303 0
M  V30 23 F 0.467978 -5.100393 3.313557 0
M  V30 24 C -1.379290 -3.927759 2.577680 0
M  V30 25 C -4.426098 -3.326625 2.226242 0
M  V30 26 C -5.692246 -2.744447 2.302671 0
M  V30 27 C -5.852608 -1.445459 1.805515 0
M  V30 28 C -4.791966 -0.761999 1.257038 0
M  V30 29 N -4.732782 0.483597 0.726957 0
M  V30 30 N -3.801140 3.000792 -0.547838 0
M  V30 31 N -3.072701 3.965662 -1.129519 0
M  V30 32 C -1.809194 3.526104 -1.264248 0
M  V30 33 C -0.635576 4.053397 -1.776437 0
M  V30 34 N 0.538769 3.355263 -1.781841 0
M  V30 35 C 2.116247 0.156610 -0.853788 0
M  V30 36 H 5.885000 -1.353805 0.481230 0
M  V30 37 H 5.549285 -1.378552 2.210580 0
M  V30 38 H 4.990174 0.008216 1.232057 0
M  V30 39 H 3.073755 -3.313806 2.164793 0
M  V30 40 H 3.992470 -3.861118 0.669713 0
M  V30 41 H 4.850431 -3.252219 2.089745 0
M  V30 42 H 2.582328 -2.347276 -0.534887 0
M  V30 43 H 4.323653 -2.309257 -0.928153 0
M  V30 44 H 5.425422 -0.162789 -1.550837 0
M  V30 45 H 2.886657 3.103625 -2.266022 0
M  V30 46 H -0.527499 0.549966 -0.354128 0
M  V30 47 H -1.897403 -2.486030 -0.486366 0
M  V30 48 H 0.295597 -3.373528 -0.908506 0
M  V30 49 H 1.459937 -4.633001 0.891569 0
M  V30 50 H -1.946438 -4.013418 3.496216 0
M  V30 51 H -4.293667 -4.333137 2.609412 0
M  V30 52 H -6.487318 -3.328120 2.743332 0
M  V30 53 H -6.848300 -1.000368 1.870883 0
M  V30 54 H -5.546826 1.128229 0.664277 0
M  V30 55 H -3.364742 4.919322 -1.450884 0
M  V30 56 H -0.696371 5.058109 -2.176867 0
M  V30 57 H 1.283339 -0.379443 -0.423327 0
M  V30 END ATOM
M  V30 BEGIN BOND
M  V30 1 1 1 2
M  V30 2 1 2 3
M  V30 3 1 2 4
M  V30 4 1 4 5
M  V30 5 2 5 6
M  V30 6 1 6 7
M  V30 7 2 7 8
M  V30 8 1 8 9
M  V30 9 1 9 10
M  V30 10 2 10 11
M  V30 11 1 11 12
M  V30 12 1 12 13
M  V30 13 1 13 14
M  V30 14 2 14 15
M  V30 15 1 15 16
M  V30 16 2 16 17
M  V30 17 1 17 18
M  V30 18 2 18 19
M  V30 19 1 19 20
M  V30 20 2 20 21
M  V30 21 1 21 22
M  V30 22 1 22 23
M  V30 23 2 22 24
M  V30 24 1 17 25
M  V30 25 2 25 26
M  V30 26 1 26 27
M  V30 27 2 27 28
M  V30 28 1 28 29
M  V30 29 2 13 30
M  V30 30 1 30 31
M  V30 31 1 31 32
M  V30 32 1 32 33
M  V30 33 2 33 34
M  V30 34 2 9 35
M  V30 35 1 35 5
M  V30 36 1 34 10
M  V30 37 2 32 12
M  V30 38 1 29 14
M  V30 39 1 28 16
M  V30 40 1 24 18
M  V30 41 1 1 36
M  V30 42 1 1 37
M  V30 43 1 1 38
M  V30 44 1 3 39
M  V30 45 1 3 40
M  V30 46 1 3 41
M  V30 47 1 4 42
M  V30 48 1 4 43
M  V30 49 1 6 44
M  V30 50 1 8 45
M  V30 51 1 11 46
M  V30 52 1 19 47
M  V30 53 1 20 48
M  V30 54 1 21 49
M  V30 55 1 24 50
M  V30 56 1 25 51
M  V30 57 1 26 52
M  V30 58 1 27 53
M  V30 59 1 29 54
M  V30 60 1 31 55
M  V30 61 1 33 56
M  V30 62 1 35 57
M  V30 END BOND
M  V30 END CTAB
M  END
>  <Dataset>  (378) 
ChEMBL_Kinases

>  <Ligand_Instance>  (378) 
nan

>  <PDB_ID>  (378) 
nan

>  <Standardized_SMILES>  (378) 
CN(C)Cc1cncc(-c2cc3c(-c4nc5c(-c6cccc(F)c6)cccc5[nH]4)n[nH]c3cn2)c1

>  <Name>  (378) 
nan

>  <Pocket>  (378) 
nan

>  <ATP_Site>  (378) 
nan

>  <Peripheral>  (378) 
nan

>  <Num_H_Atoms_ProtBoundConf>  (378) 
nan

>  <Num_Resolved_Atoms>  (378) 
nan

>  <Num_Not_Resolved_Atoms>  (378) 
nan

$$$$
CHEMBL4779789
     RDKit          3D

  0  0  0  0  0  0  0  0  0  0999 V3000
M  V30 BEGIN CTAB
M  V30 COUNTS 62 68 0 0 0
M  V30 BEGIN ATOM
M  V30 1 F 1.878332 -5.221007 3.696572 0
M  V30 2 C 2.390009 -3.979137 3.494318 0
M  V30 3 C 1.645977 -2.851366 3.767733 0
M  V30 4 C 2.140812 -1.585253 3.571700 0
M  V30 5 C 3.419634 -1.410049 3.086641 0
M  V30 6 C 4.158755 -0.189787 2.791464 0
M  V30 7 N 5.448317 -0.055574 3.218984 0
M  V30 8 C 6.158012 1.055459 2.961351 0
M  V30 9 C 5.584289 2.087270 2.252379 0
M  V30 10 C 4.284762 2.001987 1.797564 0
M  V30 11 N 3.447441 2.790371 1.100837 0
M  V30 12 C 2.225995 2.233241 0.897715 0
M  V30 13 C 1.219329 2.938783 0.175701 0
M  V30 14 N 1.345888 4.156989 -0.355671 0
M  V30 15 N 0.253430 4.558616 -0.966097 0
M  V30 16 C -0.694706 3.611769 -0.879241 0
M  V30 17 C -1.989297 3.541488 -1.342668 0
M  V30 18 C -2.702138 2.397530 -1.071723 0
M  V30 19 C -2.138979 1.357954 -0.360789 0
M  V30 20 C -2.981087 0.189801 -0.127892 0
M  V30 21 C -4.337653 0.396167 0.009363 0
M  V30 22 N -5.092427 -0.716729 0.225533 0
M  V30 23 C -4.520678 -1.945498 0.297554 0
M  V30 24 C -3.150313 -2.178067 0.161440 0
M  V30 25 C -2.708709 -3.589406 0.279006 0
M  V30 26 N -2.768933 -4.221566 -0.968831 0
M  V30 27 C -2.006159 -3.749924 -2.050362 0
M  V30 28 C -3.102631 -3.138798 -2.936104 0
M  V30 29 C -4.356236 -3.915222 -2.589892 0
M  V30 30 C -3.982752 -4.799580 -1.405680 0
M  V30 31 C -2.395333 -1.044726 -0.056739 0
M  V30 32 C -0.838493 1.495289 0.072990 0
M  V30 33 C -0.069843 2.612465 -0.163733 0
M  V30 34 C 2.360230 1.024096 1.525262 0
M  V30 35 C 3.608274 0.851813 2.086377 0
M  V30 36 C 4.171723 -2.532086 2.810249 0
M  V30 37 C 3.680913 -3.817460 3.005022 0
M  V30 38 H 0.633722 -2.926872 4.151119 0
M  V30 39 H 1.632477 -0.649925 3.761570 0
M  V30 40 H 7.186656 1.107182 3.328687 0
M  V30 41 H 6.137584 2.981795 2.038138 0
M  V30 42 H 3.824192 3.722842 0.801120 0
M  V30 43 H 0.219026 5.490451 -1.422856 0
M  V30 44 H -2.352635 4.400112 -1.890731 0
M  V30 45 H -3.723882 2.419782 -1.474542 0
M  V30 46 H -4.759228 1.384207 -0.053117 0
M  V30 47 H -5.294732 -2.669632 0.472842 0
M  V30 48 H -1.638973 -3.637363 0.642960 0
M  V30 49 H -3.271059 -4.123135 1.089555 0
M  V30 50 H -1.276490 -2.985359 -1.726287 0
M  V30 51 H -1.461266 -4.538430 -2.617081 0
M  V30 52 H -2.826881 -3.219132 -4.005012 0
M  V30 53 H -3.183459 -2.072845 -2.644002 0
M  V30 54 H -4.710852 -4.527933 -3.444416 0
M  V30 55 H -5.151605 -3.226152 -2.220683 0
M  V30 56 H -4.737192 -4.734124 -0.594445 0
M  V30 57 H -3.886489 -5.833777 -1.799896 0
M  V30 58 H -1.332888 -1.219286 -0.157074 0
M  V30 59 H -0.419188 0.675783 0.624005 0
M  V30 60 H 1.598826 0.290900 1.579490 0
M  V30 61 H 5.183003 -2.561180 2.428020 0
M  V30 62 H 4.224393 -4.730005 2.806010 0
M  V30 END ATOM
M  V30 BEGIN BOND
M  V30 1 1 1 2
M  V30 2 2 2 3
M  V30 3 1 3 4
M  V30 4 2 4 5
M  V30 5 1 5 6
M  V30 6 2 6 7
M  V30 7 1 7 8
M  V30 8 2 8 9
M  V30 9 1 9 10
M  V30 10 1 10 11
M  V30 11 1 11 12
M  V30 12 1 12 13
M  V30 13 2 13 14
M  V30 14 1 14 15
M  V30 15 1 15 16
M  V30 16 2 16 17
M  V30 17 1 17 18
M  V30 18 2 18 19
M  V30 19 1 19 20
M  V30 20 2 20 21
M  V30 21 1 21 22
M  V30 22 2 22 23
M  V30 23 1 23 24
M  V30 24 1 24 25
M  V30 25 1 25 26
M  V30 26 1 26 27
M  V30 27 1 27 28
M  V30 28 1 28 29
M  V30 29 1 29 30
M  V30 30 2 24 31
M  V30 31 1 19 32
M  V30 32 2 32 33
M  V30 33 2 12 34
M  V30 34 1 34 35
M  V30 35 1 5 36
M  V30 36 2 36 37
M  V30 37 1 37 2
M  V30 38 1 35 6
M  V30 39 2 35 10
M  V30 40 1 33 13
M  V30 41 1 33 16
M  V30 42 1 31 20
M  V30 43 1 30 26
M  V30 44 1 3 38
M  V30 45 1 4 39
M  V30 46 1 8 40
M  V30 47 1 9 41
M  V30 48 1 11 42
M  V30 49 1 15 43
M  V30 50 1 17 44
M  V30 51 1 18 45
M  V30 52 1 21 46
M  V30 53 1 23 47
M  V30 54 1 25 48
M  V30 55 1 25 49
M  V30 56 1 27 50
M  V30 57 1 27 51
M  V30 58 1 28 52
M  V30 59 1 28 53
M  V30 60 1 29 54
M  V30 61 1 29 55
M  V30 62 1 30 56
M  V30 63 1 30 57
M  V30 64 1 31 58
M  V30 65 1 32 59
M  V30 66 1 34 60
M  V30 67 1 36 61
M  V30 68 1 37 62
M  V30 END BOND
M  V30 END CTAB
M  END
>  <Dataset>  (379) 
ChEMBL_Kinases

>  <Ligand_Instance>  (379) 
nan

>  <PDB_ID>  (379) 
nan

>  <Standardized_SMILES>  (379) 
Fc1ccc(-c2nccc3[nH]c(-c4n[nH]c5ccc(-c6cncc(CN7CCCC7)c6)cc45)cc23)cc1

>  <Name>  (379) 
nan

>  <Pocket>  (379) 
nan

>  <ATP_Site>  (379) 
nan

>  <Peripheral>  (379) 
nan

>  <Num_H_Atoms_ProtBoundConf>  (379) 
nan

>  <Num_Resolved_Atoms>  (379) 
nan

>  <Num_Not_Resolved_Atoms>  (379) 
nan

$$$$
CHEMBL4213557
     RDKit          3D

  0  0  0  0  0  0  0  0  0  0999 V3000
M  V30 BEGIN CTAB
M  V30 COUNTS 72 77 0 0 0
M  V30 BEGIN ATOM
M  V30 1 C 5.474252 -2.864539 3.289034 0
M  V30 2 C 5.381881 -1.615849 2.488557 0
M  V30 3 N 6.361434 -0.827694 2.015632 0
M  V30 4 C 5.808423 0.189215 1.349264 0
M  V30 5 C 6.264776 1.293817 0.658500 0
M  V30 6 F 7.601613 1.490685 0.573659 0
M  V30 7 C 5.404748 2.205522 0.050152 0
M  V30 8 C 4.038844 2.022964 0.124405 0
M  V30 9 C 3.177948 3.000286 -0.524084 0
M  V30 10 C 1.804009 2.936476 -0.524805 0
M  V30 11 C 0.989229 3.860523 -1.136206 0
M  V30 12 N -0.424857 3.837235 -1.165636 0
M  V30 13 C -1.300291 2.883340 -0.592324 0
M  V30 14 C -2.664598 2.976906 -0.687680 0
M  V30 15 N -3.492946 2.072959 -0.145422 0
M  V30 16 C -3.054524 1.012486 0.528859 0
M  V30 17 C -3.848699 -0.055362 1.174449 0
M  V30 18 N -4.102070 -1.135199 0.274759 0
M  V30 19 C -4.888460 -0.682464 -0.849554 0
M  V30 20 C -5.012687 -1.812396 -1.834298 0
M  V30 21 N -4.269149 -2.998006 -1.326342 0
M  V30 22 C -4.563738 -4.066198 -2.235443 0
M  V30 23 C -3.721533 -5.283872 -1.997998 0
M  V30 24 C -2.229630 -5.099410 -2.160766 0
M  V30 25 C -2.876544 -5.503187 -0.826557 0
M  V30 26 C -5.045905 -3.306374 -0.094394 0
M  V30 27 C -4.808959 -2.217821 0.922392 0
M  V30 28 C -1.703859 0.884777 0.645295 0
M  V30 29 N -0.906965 1.804613 0.092270 0
M  V30 30 N 1.660873 4.850324 -1.744718 0
M  V30 31 C 2.985686 4.945574 -1.765513 0
M  V30 32 N 3.769276 4.045943 -1.170569 0
M  V30 33 C 3.613003 0.930134 0.808903 0
M  V30 34 C 4.423353 0.000075 1.427329 0
M  V30 35 N 4.152421 -1.131577 2.141379 0
M  V30 36 C 2.837277 -1.645852 2.429211 0
M  V30 37 C 2.059659 -0.789573 3.411450 0
M  V30 38 C 2.021812 -1.899320 1.191561 0
M  V30 39 H 5.096046 -3.685856 2.640726 0
M  V30 40 H 4.851815 -2.782619 4.224088 0
M  V30 41 H 6.490490 -3.079803 3.621230 0
M  V30 42 H 5.824099 3.034553 -0.465763 0
M  V30 43 H 1.380990 2.111855 -0.013416 0
M  V30 44 H -0.899703 4.619054 -1.673518 0
M  V30 45 H -3.127264 3.816285 -1.224746 0
M  V30 46 H -3.337873 -0.358918 2.105599 0
M  V30 47 H -4.813336 0.415855 1.527776 0
M  V30 48 H -4.475042 0.243143 -1.307731 0
M  V30 49 H -5.887060 -0.387542 -0.419233 0
M  V30 50 H -6.080229 -2.132120 -1.845598 0
M  V30 51 H -4.708072 -1.569742 -2.854339 0
M  V30 52 H -5.657034 -4.328584 -2.226978 0
M  V30 53 H -4.382212 -3.756266 -3.306151 0
M  V30 54 H -4.153196 -6.221775 -2.457828 0
M  V30 55 H -1.863950 -4.054705 -2.269226 0
M  V30 56 H -1.710478 -5.875409 -2.728184 0
M  V30 57 H -2.651152 -4.776963 -0.030765 0
M  V30 58 H -2.674106 -6.561211 -0.513788 0
M  V30 59 H -4.890097 -4.321331 0.252503 0
M  V30 60 H -6.124429 -3.283023 -0.449859 0
M  V30 61 H -5.805959 -1.835182 1.246693 0
M  V30 62 H -4.252491 -2.587717 1.808758 0
M  V30 63 H -1.204655 0.075230 1.164834 0
M  V30 64 H 3.499164 5.754294 -2.264028 0
M  V30 65 H 2.558581 0.741440 0.896635 0
M  V30 66 H 2.995807 -2.624991 2.927257 0
M  V30 67 H 0.972305 -0.888869 3.216848 0
M  V30 68 H 2.202935 -1.163306 4.461877 0
M  V30 69 H 2.413971 0.254975 3.438673 0
M  V30 70 H 1.607010 -2.937534 1.184821 0
M  V30 71 H 1.129891 -1.232114 1.137313 0
M  V30 72 H 2.642402 -1.848396 0.251402 0
M  V30 END ATOM
M  V30 BEGIN BOND
M  V30 1 1 1 2
M  V30 2 2 2 3
M  V30 3 1 3 4
M  V30 4 2 4 5
M  V30 5 1 5 6
M  V30 6 1 5 7
M  V30 7 2 7 8
M  V30 8 1 8 9
M  V30 9 2 9 10
M  V30 10 1 10 11
M  V30 11 1 11 12
M  V30 12 1 12 13
M  V30 13 2 13 14
M  V30 14 1 14 15
M  V30 15 2 15 16
M  V30 16 1 16 17
M  V30 17 1 17 18
M  V30 18 1 18 19
M  V30 19 1 19 20
M  V30 20 1 20 21
M  V30 21 1 21 22
M  V30 22 1 22 23
M  V30 23 1 23 24
M  V30 24 1 24 25
M  V30 25 1 21 26
M  V30 26 1 26 27
M  V30 27 1 16 28
M  V30 28 2 28 29
M  V30 29 2 11 30
M  V30 30 1 30 31
M  V30 31 2 31 32
M  V30 32 1 8 33
M  V30 33 2 33 34
M  V30 34 1 34 35
M  V30 35 1 35 36
M  V30 36 1 36 37
M  V30 37 1 36 38
M  V30 38 1 35 2
M  V30 39 1 34 4
M  V30 40 1 32 9
M  V30 41 1 29 13
M  V30 42 1 27 18
M  V30 43 1 25 23
M  V30 44 1 1 39
M  V30 45 1 1 40
M  V30 46 1 1 41
M  V30 47 1 7 42
M  V30 48 1 10 43
M  V30 49 1 12 44
M  V30 50 1 14 45
M  V30 51 1 17 46
M  V30 52 1 17 47
M  V30 53 1 19 48
M  V30 54 1 19 49
M  V30 55 1 20 50
M  V30 56 1 20 51
M  V30 57 1 22 52
M  V30 58 1 22 53
M  V30 59 1 23 54
M  V30 60 1 24 55
M  V30 61 1 24 56
M  V30 62 1 25 57
M  V30 63 1 25 58
M  V30 64 1 26 59
M  V30 65 1 26 60
M  V30 66 1 27 61
M  V30 67 1 27 62
M  V30 68 1 28 63
M  V30 69 1 31 64
M  V30 70 1 33 65
M  V30 71 1 36 66
M  V30 72 1 37 67
M  V30 73 1 37 68
M  V30 74 1 37 69
M  V30 75 1 38 70
M  V30 76 1 38 71
M  V30 77 1 38 72
M  V30 END BOND
M  V30 END CTAB
M  END
>  <Dataset>  (380) 
ChEMBL_Kinases

>  <Ligand_Instance>  (380) 
nan

>  <PDB_ID>  (380) 
nan

>  <Standardized_SMILES>  (380) 
Cc1nc2c(F)cc(-c3cc(Nc4cnc(CN5CCN(CC6CC6)CC5)cn4)ncn3)cc2n1C(C)C

>  <Name>  (380) 
nan

>  <Pocket>  (380) 
nan

>  <ATP_Site>  (380) 
nan

>  <Peripheral>  (380) 
nan

>  <Num_H_Atoms_ProtBoundConf>  (380) 
nan

>  <Num_Resolved_Atoms>  (380) 
nan

>  <Num_Not_Resolved_Atoms>  (380) 
nan

$$$$
CHEMBL4779592
     RDKit          3D

  0  0  0  0  0  0  0  0  0  0999 V3000
M  V30 BEGIN CTAB
M  V30 COUNTS 59 63 0 0 0
M  V30 BEGIN ATOM
M  V30 1 N 6.085426 -5.025479 -2.902195 0
M  V30 2 C 4.780584 -5.013294 -2.320833 0
M  V30 3 O 4.222999 -6.136989 -2.197733 0
M  V30 4 C 4.217713 -3.728050 -1.927738 0
M  V30 5 C 2.959726 -3.707698 -1.368154 0
M  V30 6 C 2.376350 -2.525410 -0.978488 0
M  V30 7 C 3.003413 -1.304928 -1.120843 0
M  V30 8 N 2.369854 -0.116943 -0.708494 0
M  V30 9 C 2.739962 1.214063 -0.726904 0
M  V30 10 O 3.908140 1.339650 -1.232778 0
M  V30 11 C 2.133291 2.449185 -0.321326 0
M  V30 12 N 2.858981 3.590669 -0.512746 0
M  V30 13 N 2.147055 4.632128 -0.082093 0
M  V30 14 C 0.950597 4.272628 0.404540 0
M  V30 15 C -0.138494 4.909135 0.956016 0
M  V30 16 C -1.243874 4.187115 1.361981 0
M  V30 17 C -1.184048 2.802353 1.180061 0
M  V30 18 C -2.372114 2.083713 1.628540 0
M  V30 19 C -3.644672 2.614149 1.589118 0
M  V30 20 N -4.691860 1.879213 2.024344 0
M  V30 21 C -4.542881 0.618839 2.507239 0
M  V30 22 C -3.296652 0.019345 2.577623 0
M  V30 23 C -3.118635 -1.351750 3.109185 0
M  V30 24 N -3.267662 -2.339614 2.096621 0
M  V30 25 C -3.083832 -3.694814 2.508906 0
M  V30 26 C -2.360514 -4.522375 1.471540 0
M  V30 27 C -1.126648 -3.879271 0.925380 0
M  V30 28 C -1.262604 -2.387272 0.705478 0
M  V30 29 C -2.735402 -2.035284 0.813289 0
M  V30 30 C -2.236415 0.804852 2.120548 0
M  V30 31 C -0.103737 2.149299 0.630519 0
M  V30 32 C 0.970455 2.908482 0.242433 0
M  V30 33 C 4.250914 -1.416467 -1.685897 0
M  V30 34 N 4.838057 -2.561478 -2.073113 0
M  V30 35 H 6.556016 -5.041857 -3.840069 0
M  V30 36 H 6.453133 -5.041623 -3.888196 0
M  V30 37 H 2.424623 -4.646566 -1.234993 0
M  V30 38 H 1.380694 -2.600667 -0.545680 0
M  V30 39 H 1.427077 -0.264702 -0.305761 0
M  V30 40 H 2.511644 5.622557 -0.131238 0
M  V30 41 H -0.082523 5.978291 1.051732 0
M  V30 42 H -2.103610 4.676751 1.795131 0
M  V30 43 H -3.759995 3.614872 1.205321 0
M  V30 44 H -5.399373 0.051227 2.850243 0
M  V30 45 H -3.842330 -1.561645 3.945268 0
M  V30 46 H -2.121498 -1.386656 3.619304 0
M  V30 47 H -4.065039 -4.167802 2.691931 0
M  V30 48 H -2.544942 -3.714412 3.483699 0
M  V30 49 H -2.064575 -5.502569 1.880512 0
M  V30 50 H -3.060039 -4.723231 0.629231 0
M  V30 51 H -0.280967 -4.077394 1.594275 0
M  V30 52 H -0.966895 -4.312198 -0.093623 0
M  V30 53 H -0.665409 -1.833630 1.451725 0
M  V30 54 H -0.938730 -2.059765 -0.293338 0
M  V30 55 H -3.251700 -2.688058 0.073230 0
M  V30 56 H -2.849432 -0.979271 0.570903 0
M  V30 57 H -1.242352 0.385750 2.153407 0
M  V30 58 H -0.117731 1.094655 0.517176 0
M  V30 59 H 4.869348 -0.564694 -1.864671 0
M  V30 END ATOM
M  V30 BEGIN BOND
M  V30 1 1 1 2
M  V30 2 2 2 3
M  V30 3 1 2 4
M  V30 4 2 4 5
M  V30 5 1 5 6
M  V30 6 2 6 7
M  V30 7 1 7 8
M  V30 8 1 8 9
M  V30 9 2 9 10
M  V30 10 1 9 11
M  V30 11 2 11 12
M  V30 12 1 12 13
M  V30 13 1 13 14
M  V30 14 2 14 15
M  V30 15 1 15 16
M  V30 16 2 16 17
M  V30 17 1 17 18
M  V30 18 2 18 19
M  V30 19 1 19 20
M  V30 20 2 20 21
M  V30 21 1 21 22
M  V30 22 1 22 23
M  V30 23 1 23 24
M  V30 24 1 24 25
M  V30 25 1 25 26
M  V30 26 1 26 27
M  V30 27 1 27 28
M  V30 28 1 28 29
M  V30 29 2 22 30
M  V30 30 1 17 31
M  V30 31 2 31 32
M  V30 32 1 7 33
M  V30 33 2 33 34
M  V30 34 1 34 4
M  V30 35 1 32 11
M  V30 36 1 32 14
M  V30 37 1 30 18
M  V30 38 1 29 24
M  V30 39 1 1 35
M  V30 40 1 1 36
M  V30 41 1 5 37
M  V30 42 1 6 38
M  V30 43 1 8 39
M  V30 44 1 13 40
M  V30 45 1 15 41
M  V30 46 1 16 42
M  V30 47 1 19 43
M  V30 48 1 21 44
M  V30 49 1 23 45
M  V30 50 1 23 46
M  V30 51 1 25 47
M  V30 52 1 25 48
M  V30 53 1 26 49
M  V30 54 1 26 50
M  V30 55 1 27 51
M  V30 56 1 27 52
M  V30 57 1 28 53
M  V30 58 1 28 54
M  V30 59 1 29 55
M  V30 60 1 29 56
M  V30 61 1 30 57
M  V30 62 1 31 58
M  V30 63 1 33 59
M  V30 END BOND
M  V30 END CTAB
M  END
>  <Dataset>  (381) 
ChEMBL_Kinases

>  <Ligand_Instance>  (381) 
nan

>  <PDB_ID>  (381) 
nan

>  <Standardized_SMILES>  (381) 
NC(=O)c1ccc(NC(=O)c2n[nH]c3ccc(-c4cncc(CN5CCCCC5)c4)cc23)cn1

>  <Name>  (381) 
nan

>  <Pocket>  (381) 
nan

>  <ATP_Site>  (381) 
nan

>  <Peripheral>  (381) 
nan

>  <Num_H_Atoms_ProtBoundConf>  (381) 
nan

>  <Num_Resolved_Atoms>  (381) 
nan

>  <Num_Not_Resolved_Atoms>  (381) 
nan

$$$$
CHEMBL4779515
     RDKit          3D

  0  0  0  0  0  0  0  0  0  0999 V3000
M  V30 BEGIN CTAB
M  V30 COUNTS 56 60 0 0 0
M  V30 BEGIN ATOM
M  V30 1 C 8.310062 -3.939641 -3.104154 0
M  V30 2 O 7.947366 -3.686623 -1.763354 0
M  V30 3 C 7.124148 -2.589564 -1.453292 0
M  V30 4 C 6.776537 -2.353402 -0.136318 0
M  V30 5 C 5.960541 -1.264787 0.162941 0
M  V30 6 C 5.531218 -0.459098 -0.896700 0
M  V30 7 N 4.694236 0.637358 -0.492012 0
M  V30 8 C 3.288340 0.578392 -0.397097 0
M  V30 9 O 2.688199 -0.498184 -0.680172 0
M  V30 10 C 2.572524 1.787499 0.032566 0
M  V30 11 N 3.035710 3.008952 0.372233 0
M  V30 12 N 2.016643 3.800055 0.697151 0
M  V30 13 C 0.840782 3.154296 0.591602 0
M  V30 14 C -0.486463 3.475645 0.796078 0
M  V30 15 C -1.496050 2.544918 0.589396 0
M  V30 16 C -1.155127 1.268323 0.168812 0
M  V30 17 C -2.174922 0.241834 -0.066723 0
M  V30 18 C -1.925331 -0.703422 -1.039635 0
M  V30 19 N -2.798881 -1.680958 -1.326060 0
M  V30 20 C -3.941912 -1.751552 -0.659941 0
M  V30 21 C -4.284370 -0.855962 0.329367 0
M  V30 22 C -5.492808 -0.772207 1.174423 0
M  V30 23 N -5.408119 -1.485918 2.412694 0
M  V30 24 C -6.641850 -1.307461 3.160464 0
M  V30 25 C -6.615736 -2.431377 4.153640 0
M  V30 26 C -6.025283 -3.572276 3.361789 0
M  V30 27 F -5.205396 -4.378157 4.149619 0
M  V30 28 F -7.057975 -4.312194 2.812396 0
M  V30 29 C -5.231925 -2.909315 2.270013 0
M  V30 30 C -3.382354 0.169408 0.638848 0
M  V30 31 C 0.175592 0.942566 -0.037306 0
M  V30 32 C 1.182623 1.884450 0.173026 0
M  V30 33 C 5.890709 -0.716899 -2.187785 0
M  V30 34 N 6.685927 -1.784671 -2.443597 0
M  V30 35 H 8.505070 -4.987710 -3.322678 0
M  V30 36 H 7.479306 -3.513262 -3.732818 0
M  V30 37 H 9.216444 -3.315409 -3.339303 0
M  V30 38 H 7.171994 -3.049316 0.599011 0
M  V30 39 H 5.718728 -1.125222 1.208420 0
M  V30 40 H 5.284776 1.486649 -0.278025 0
M  V30 41 H 2.121973 4.800707 0.997326 0
M  V30 42 H -0.716464 4.488293 1.126566 0
M  V30 43 H -2.538072 2.790269 0.747860 0
M  V30 44 H -1.012156 -0.745112 -1.656080 0
M  V30 45 H -4.693751 -2.493105 -0.823396 0
M  V30 46 H -6.343632 -1.257092 0.606897 0
M  V30 47 H -5.837556 0.272338 1.310937 0
M  V30 48 H -6.675535 -0.302815 3.631724 0
M  V30 49 H -7.535623 -1.426936 2.512937 0
M  V30 50 H -7.635244 -2.684289 4.530091 0
M  V30 51 H -5.944276 -2.137693 5.005835 0
M  V30 52 H -4.197475 -3.258358 2.320324 0
M  V30 53 H -5.607986 -3.230284 1.253482 0
M  V30 54 H -3.469720 0.958128 1.373713 0
M  V30 55 H 0.413180 -0.060613 -0.365284 0
M  V30 56 H 5.522868 -0.055060 -2.947606 0
M  V30 END ATOM
M  V30 BEGIN BOND
M  V30 1 1 1 2
M  V30 2 1 2 3
M  V30 3 2 3 4
M  V30 4 1 4 5
M  V30 5 2 5 6
M  V30 6 1 6 7
M  V30 7 1 7 8
M  V30 8 2 8 9
M  V30 9 1 8 10
M  V30 10 2 10 11
M  V30 11 1 11 12
M  V30 12 1 12 13
M  V30 13 2 13 14
M  V30 14 1 14 15
M  V30 15 2 15 16
M  V30 16 1 16 17
M  V30 17 2 17 18
M  V30 18 1 18 19
M  V30 19 2 19 20
M  V30 20 1 20 21
M  V30 21 1 21 22
M  V30 22 1 22 23
M  V30 23 1 23 24
M  V30 24 1 24 25
M  V30 25 1 25 26
M  V30 26 1 26 27
M  V30 27 1 26 28
M  V30 28 1 26 29
M  V30 29 2 21 30
M  V30 30 1 16 31
M  V30 31 2 31 32
M  V30 32 1 6 33
M  V30 33 2 33 34
M  V30 34 1 34 3
M  V30 35 1 32 10
M  V30 36 1 32 13
M  V30 37 1 30 17
M  V30 38 1 29 23
M  V30 39 1 1 35
M  V30 40 1 1 36
M  V30 41 1 1 37
M  V30 42 1 4 38
M  V30 43 1 5 39
M  V30 44 1 7 40
M  V30 45 1 12 41
M  V30 46 1 14 42
M  V30 47 1 15 43
M  V30 48 1 18 44
M  V30 49 1 20 45
M  V30 50 1 22 46
M  V30 51 1 22 47
M  V30 52 1 24 48
M  V30 53 1 24 49
M  V30 54 1 25 50
M  V30 55 1 25 51
M  V30 56 1 29 52
M  V30 57 1 29 53
M  V30 58 1 30 54
M  V30 59 1 31 55
M  V30 60 1 33 56
M  V30 END BOND
M  V30 END CTAB
M  END
>  <Dataset>  (382) 
ChEMBL_Kinases

>  <Ligand_Instance>  (382) 
nan

>  <PDB_ID>  (382) 
nan

>  <Standardized_SMILES>  (382) 
COc1ccc(NC(=O)c2n[nH]c3ccc(-c4cncc(CN5CCC(F)(F)C5)c4)cc23)cn1

>  <Name>  (382) 
nan

>  <Pocket>  (382) 
nan

>  <ATP_Site>  (382) 
nan

>  <Peripheral>  (382) 
nan

>  <Num_H_Atoms_ProtBoundConf>  (382) 
nan

>  <Num_Resolved_Atoms>  (382) 
nan

>  <Num_Not_Resolved_Atoms>  (382) 
nan

$$$$
CHEMBL4779458
     RDKit          3D

  0  0  0  0  0  0  0  0  0  0999 V3000
M  V30 BEGIN CTAB
M  V30 COUNTS 57 62 0 0 0
M  V30 BEGIN ATOM
M  V30 1 O 1.663993 -3.412242 -2.360340 0
M  V30 2 C 0.854808 -3.705511 -1.441555 0
M  V30 3 N 1.180147 -3.384005 -0.111017 0
M  V30 4 C 2.352102 -2.739326 0.391118 0
M  V30 5 C 3.544598 -3.298913 0.809726 0
M  V30 6 N 4.512124 -2.487310 1.247121 0
M  V30 7 C 4.381735 -1.149500 1.299979 0
M  V30 8 C 3.210562 -0.524574 0.894682 0
M  V30 9 C 3.057564 0.934781 0.948446 0
M  V30 10 C 4.149731 1.752224 0.758071 0
M  V30 11 C 3.953768 3.131957 0.819207 0
M  V30 12 C 2.697974 3.646475 1.063731 0
M  V30 13 N 2.198794 4.890647 1.179177 0
M  V30 14 N 0.906381 4.831609 1.420551 0
M  V30 15 C 0.457866 3.573277 1.482526 0
M  V30 16 C -0.912710 3.193925 1.733278 0
M  V30 17 C -1.622512 2.031147 1.846303 0
M  V30 18 C -2.960860 2.239882 2.101673 0
M  V30 19 C -4.011649 1.361617 2.283947 0
M  V30 20 N -5.226237 1.915769 2.522339 0
M  V30 21 C -5.421435 3.251280 2.582665 0
M  V30 22 C -4.353615 4.092272 2.396500 0
M  V30 23 C -3.080084 3.612169 2.148355 0
M  V30 24 N -1.860525 4.130283 1.928111 0
M  V30 25 C 1.588997 2.831699 1.257377 0
M  V30 26 C 1.824540 1.497948 1.189661 0
M  V30 27 C 2.197176 -1.358900 0.437783 0
M  V30 28 C -0.456879 -4.365707 -1.496300 0
M  V30 29 C -0.556195 -5.641106 -0.717928 0
M  V30 30 C -1.993470 -6.025330 -0.634876 0
M  V30 31 C -2.785518 -5.920520 -1.882379 0
M  V30 32 C -2.304801 -4.981907 -2.923496 0
M  V30 33 C -0.824076 -4.712881 -2.923907 0
M  V30 34 H 0.658349 -3.537700 0.780549 0
M  V30 35 H 3.556722 -4.366697 0.732139 0
M  V30 36 H 5.210045 -0.556215 1.666746 0
M  V30 37 H 5.143421 1.357604 0.564385 0
M  V30 38 H 4.761099 3.842324 0.681197 0
M  V30 39 H 2.715697 5.792613 1.097974 0
M  V30 40 H -1.199367 1.052782 1.750013 0
M  V30 41 H -3.838058 0.297224 2.232216 0
M  V30 42 H -6.379917 3.697225 2.770858 0
M  V30 43 H -4.482070 5.158869 2.439933 0
M  V30 44 H -1.801146 5.176317 1.935334 0
M  V30 45 H 1.011366 0.812879 1.330622 0
M  V30 46 H 1.295465 -0.812489 0.130725 0
M  V30 47 H -1.283068 -3.707204 -1.118150 0
M  V30 48 H 0.043520 -6.432677 -1.215653 0
M  V30 49 H -0.186470 -5.505427 0.323563 0
M  V30 50 H -2.028602 -7.105797 -0.307403 0
M  V30 51 H -2.445628 -5.482601 0.231095 0
M  V30 52 H -3.011780 -6.932814 -2.329385 0
M  V30 53 H -3.811096 -5.556631 -1.576963 0
M  V30 54 H -2.532108 -5.417008 -3.926254 0
M  V30 55 H -2.817780 -3.993361 -2.921649 0
M  V30 56 H -0.627261 -3.883622 -3.618200 0
M  V30 57 H -0.251610 -5.622571 -3.213132 0
M  V30 END ATOM
M  V30 BEGIN BOND
M  V30 1 2 1 2
M  V30 2 1 2 3
M  V30 3 1 3 4
M  V30 4 2 4 5
M  V30 5 1 5 6
M  V30 6 2 6 7
M  V30 7 1 7 8
M  V30 8 1 8 9
M  V30 9 2 9 10
M  V30 10 1 10 11
M  V30 11 2 11 12
M  V30 12 1 12 13
M  V30 13 1 13 14
M  V30 14 2 14 15
M  V30 15 1 15 16
M  V30 16 2 16 17
M  V30 17 1 17 18
M  V30 18 2 18 19
M  V30 19 1 19 20
M  V30 20 2 20 21
M  V30 21 1 21 22
M  V30 22 2 22 23
M  V30 23 1 23 24
M  V30 24 1 15 25
M  V30 25 2 25 26
M  V30 26 2 8 27
M  V30 27 1 2 28
M  V30 28 1 28 29
M  V30 29 1 29 30
M  V30 30 1 30 31
M  V30 31 1 31 32
M  V30 32 1 32 33
M  V30 33 1 27 4
M  V30 34 1 33 28
M  V30 35 1 26 9
M  V30 36 1 25 12
M  V30 37 1 24 16
M  V30 38 1 23 18
M  V30 39 1 3 34
M  V30 40 1 5 35
M  V30 41 1 7 36
M  V30 42 1 10 37
M  V30 43 1 11 38
M  V30 44 1 13 39
M  V30 45 1 17 40
M  V30 46 1 19 41
M  V30 47 1 21 42
M  V30 48 1 22 43
M  V30 49 1 24 44
M  V30 50 1 26 45
M  V30 51 1 27 46
M  V30 52 1 28 47
M  V30 53 1 29 48
M  V30 54 1 29 49
M  V30 55 1 30 50
M  V30 56 1 30 51
M  V30 57 1 31 52
M  V30 58 1 31 53
M  V30 59 1 32 54
M  V30 60 1 32 55
M  V30 61 1 33 56
M  V30 62 1 33 57
M  V30 END BOND
M  V30 END CTAB
M  END
>  <Dataset>  (383) 
ChEMBL_Kinases

>  <Ligand_Instance>  (383) 
nan

>  <PDB_ID>  (383) 
nan

>  <Standardized_SMILES>  (383) 
O=C(Nc1cncc(-c2ccc3[nH]nc(-c4cc5cnccc5[nH]4)c3c2)c1)C1CCCCC1

>  <Name>  (383) 
nan

>  <Pocket>  (383) 
nan

>  <ATP_Site>  (383) 
nan

>  <Peripheral>  (383) 
nan

>  <Num_H_Atoms_ProtBoundConf>  (383) 
nan

>  <Num_Resolved_Atoms>  (383) 
nan

>  <Num_Not_Resolved_Atoms>  (383) 
nan

$$$$
CHEMBL4779327
     RDKit          3D

  0  0  0  0  0  0  0  0  0  0999 V3000
M  V30 BEGIN CTAB
M  V30 COUNTS 56 61 0 0 0
M  V30 BEGIN ATOM
M  V30 1 C 2.746289 -3.820260 3.583368 0
M  V30 2 C 3.920959 -3.190393 2.864123 0
M  V30 3 C 3.500948 -1.952825 2.217809 0
M  V30 4 O 2.293714 -1.626180 2.323474 0
M  V30 5 N 4.341446 -1.093344 1.484839 0
M  V30 6 C 4.070343 0.125713 0.814095 0
M  V30 7 C 5.114123 0.774782 0.191408 0
M  V30 8 N 4.951647 1.934596 -0.460599 0
M  V30 9 C 3.747725 2.538863 -0.546163 0
M  V30 10 C 2.650185 1.934222 0.062027 0
M  V30 11 C 1.353943 2.594192 -0.018624 0
M  V30 12 C 1.447755 3.991147 -0.034824 0
M  V30 13 N 0.295927 4.710514 -0.109507 0
M  V30 14 C -0.900872 4.097324 -0.166626 0
M  V30 15 N -2.164369 4.538704 -0.240739 0
M  V30 16 N -2.996016 3.516019 -0.270762 0
M  V30 17 C -2.360768 2.344771 -0.220177 0
M  V30 18 C -3.001784 1.052194 -0.238346 0
M  V30 19 C -2.616305 -0.259201 -0.215903 0
M  V30 20 C -3.681766 -1.129022 -0.267998 0
M  V30 21 C -3.740651 -2.505441 -0.270380 0
M  V30 22 C -2.547843 -3.331041 -0.210549 0
M  V30 23 C -2.628010 -4.343773 -1.172832 0
M  V30 24 C -1.614725 -5.286440 -1.336177 0
M  V30 25 C -0.501802 -5.221875 -0.529150 0
M  V30 26 C -0.449095 -4.215238 0.409413 0
M  V30 27 F 0.623233 -4.117590 1.218121 0
M  V30 28 C -1.429889 -3.278020 0.589876 0
M  V30 29 C -5.016534 -3.077934 -0.335519 0
M  V30 30 N -6.102133 -2.292616 -0.391799 0
M  V30 31 C -6.006227 -0.954366 -0.387797 0
M  V30 32 C -4.786272 -0.310621 -0.325574 0
M  V30 33 N -4.341069 0.954052 -0.305848 0
M  V30 34 C -1.047432 2.725649 -0.154451 0
M  V30 35 C 0.116679 1.994963 -0.078503 0
M  V30 36 C 2.859075 0.748622 0.718677 0
M  V30 37 H 2.509876 -4.825263 3.212688 0
M  V30 38 H 1.828549 -3.177441 3.439262 0
M  V30 39 H 2.895180 -3.798236 4.695241 0
M  V30 40 H 4.328416 -3.927254 2.129651 0
M  V30 41 H 4.728238 -3.063140 3.611875 0
M  V30 42 H 5.331107 -1.466416 1.461638 0
M  V30 43 H 6.131162 0.405254 0.180102 0
M  V30 44 H 3.674501 3.490446 -1.094547 0
M  V30 45 H 2.335228 4.605705 0.005015 0
M  V30 46 H -2.507539 5.522247 -0.273198 0
M  V30 47 H -1.593976 -0.583284 -0.165601 0
M  V30 48 H -3.440669 -4.526479 -1.883853 0
M  V30 49 H -1.629549 -6.084152 -2.061809 0
M  V30 50 H 0.337553 -5.927108 -0.596835 0
M  V30 51 H -1.477759 -2.470658 1.286004 0
M  V30 52 H -5.045107 -4.166603 -0.336296 0
M  V30 53 H -6.893952 -0.340440 -0.433872 0
M  V30 54 H -5.081748 1.695984 -0.344607 0
M  V30 55 H 0.086521 0.943755 -0.064119 0
M  V30 56 H 2.007045 0.317068 1.167724 0
M  V30 END ATOM
M  V30 BEGIN BOND
M  V30 1 1 1 2
M  V30 2 1 2 3
M  V30 3 2 3 4
M  V30 4 1 3 5
M  V30 5 1 5 6
M  V30 6 2 6 7
M  V30 7 1 7 8
M  V30 8 2 8 9
M  V30 9 1 9 10
M  V30 10 1 10 11
M  V30 11 2 11 12
M  V30 12 1 12 13
M  V30 13 2 13 14
M  V30 14 1 14 15
M  V30 15 1 15 16
M  V30 16 2 16 17
M  V30 17 1 17 18
M  V30 18 2 18 19
M  V30 19 1 19 20
M  V30 20 2 20 21
M  V30 21 1 21 22
M  V30 22 2 22 23
M  V30 23 1 23 24
M  V30 24 2 24 25
M  V30 25 1 25 26
M  V30 26 1 26 27
M  V30 27 2 26 28
M  V30 28 1 21 29
M  V30 29 2 29 30
M  V30 30 1 30 31
M  V30 31 2 31 32
M  V30 32 1 32 33
M  V30 33 1 17 34
M  V30 34 2 34 35
M  V30 35 2 10 36
M  V30 36 1 36 6
M  V30 37 1 35 11
M  V30 38 1 34 14
M  V30 39 1 33 18
M  V30 40 1 32 20
M  V30 41 1 28 22
M  V30 42 1 1 37
M  V30 43 1 1 38
M  V30 44 1 1 39
M  V30 45 1 2 40
M  V30 46 1 2 41
M  V30 47 1 5 42
M  V30 48 1 7 43
M  V30 49 1 9 44
M  V30 50 1 12 45
M  V30 51 1 15 46
M  V30 52 1 19 47
M  V30 53 1 23 48
M  V30 54 1 24 49
M  V30 55 1 25 50
M  V30 56 1 28 51
M  V30 57 1 29 52
M  V30 58 1 31 53
M  V30 59 1 33 54
M  V30 60 1 35 55
M  V30 61 1 36 56
M  V30 END BOND
M  V30 END CTAB
M  END
>  <Dataset>  (384) 
ChEMBL_Kinases

>  <Ligand_Instance>  (384) 
nan

>  <PDB_ID>  (384) 
nan

>  <Standardized_SMILES>  (384) 
CCC(=O)Nc1cncc(-c2cnc3[nH]nc(-c4cc5c(-c6cccc(F)c6)cncc5[nH]4)c3c2)c1

>  <Name>  (384) 
nan

>  <Pocket>  (384) 
nan

>  <ATP_Site>  (384) 
nan

>  <Peripheral>  (384) 
nan

>  <Num_H_Atoms_ProtBoundConf>  (384) 
nan

>  <Num_Resolved_Atoms>  (384) 
nan

>  <Num_Not_Resolved_Atoms>  (384) 
nan

$$$$
CHEMBL4779228
     RDKit          3D

  0  0  0  0  0  0  0  0  0  0999 V3000
M  V30 BEGIN CTAB
M  V30 COUNTS 61 66 0 0 0
M  V30 BEGIN ATOM
M  V30 1 C 3.332115 0.254320 7.263467 0
M  V30 2 C 3.725320 -0.222395 5.913284 0
M  V30 3 C 3.188968 0.399674 4.809919 0
M  V30 4 N 3.640299 -0.158993 3.674934 0
M  V30 5 C 3.346390 0.171084 2.327162 0
M  V30 6 N 4.146720 0.052997 1.256488 0
M  V30 7 C 3.749754 0.377104 0.023688 0
M  V30 8 C 2.472944 0.867141 -0.273478 0
M  V30 9 C 1.636080 0.996183 0.816967 0
M  V30 10 N 0.369181 1.444099 0.817322 0
M  V30 11 C 0.009742 1.380787 2.113519 0
M  V30 12 C -1.353751 1.796169 2.575555 0
M  V30 13 N -2.319758 2.063702 3.087322 0
M  V30 14 N -3.281766 2.363598 3.668990 0
M  V30 15 C -3.684096 1.796523 2.444007 0
M  V30 16 C -4.933809 1.455872 1.791179 0
M  V30 17 C -4.978505 0.805096 0.541743 0
M  V30 18 C -3.796015 0.490463 -0.066146 0
M  V30 19 C -3.699949 -0.263020 -1.294575 0
M  V30 20 C -4.757964 -0.651886 -2.028615 0
M  V30 21 N -4.850936 -1.393404 -3.170874 0
M  V30 22 C -3.628581 -1.833051 -3.681214 0
M  V30 23 C -2.507960 -1.462365 -2.969479 0
M  V30 24 N -1.167941 -1.845569 -3.363998 0
M  V30 25 C -0.864570 -3.109340 -2.767027 0
M  V30 26 O -1.510751 -3.898874 -2.020687 0
M  V30 27 C 0.377867 -3.922684 -2.854825 0
M  V30 28 C 0.181057 -5.225661 -2.130079 0
M  V30 29 C 0.950257 -4.053265 -4.213987 0
M  V30 30 C 1.389799 -3.135263 -2.000047 0
M  V30 31 C -2.472654 -0.693110 -1.792715 0
M  V30 32 N -2.599893 0.793675 0.505647 0
M  V30 33 C -2.505657 1.433993 1.736168 0
M  V30 34 N 1.034483 0.905333 2.874374 0
M  V30 35 C 2.086057 0.651289 2.066473 0
M  V30 36 C 4.479478 -1.156294 4.075706 0
M  V30 37 N 4.534227 -1.198698 5.439879 0
M  V30 38 H 3.577945 -0.508029 8.031576 0
M  V30 39 H 3.787370 1.248827 7.471111 0
M  V30 40 H 2.242528 0.420893 7.317299 0
M  V30 41 H 2.487196 1.233296 4.731192 0
M  V30 42 H 4.465082 0.247301 -0.790739 0
M  V30 43 H 2.128679 1.137476 -1.276390 0
M  V30 44 H -0.210053 1.764168 0.033705 0
M  V30 45 H -3.986528 2.715555 4.326944 0
M  V30 46 H -5.877997 1.719927 2.304362 0
M  V30 47 H -5.929640 0.581441 0.113537 0
M  V30 48 H -5.753998 -0.345249 -1.671790 0
M  V30 49 H -3.404968 -2.424944 -4.554450 0
M  V30 50 H -0.356934 -1.520406 -3.934853 0
M  V30 51 H 1.156575 -5.732462 -1.938045 0
M  V30 52 H -0.474901 -5.920200 -2.710652 0
M  V30 53 H -0.270173 -5.044998 -1.144440 0
M  V30 54 H 1.698634 -4.901592 -4.174755 0
M  V30 55 H 1.515909 -3.156717 -4.529400 0
M  V30 56 H 0.247980 -4.330921 -5.020346 0
M  V30 57 H 2.316922 -3.732361 -1.860722 0
M  V30 58 H 1.590450 -2.201884 -2.554352 0
M  V30 59 H 0.854464 -2.938940 -1.059171 0
M  V30 60 H -1.590815 -0.429072 -1.265879 0
M  V30 61 H 5.022277 -1.816953 3.395640 0
M  V30 END ATOM
M  V30 BEGIN BOND
M  V30 1 1 1 2
M  V30 2 2 2 3
M  V30 3 1 3 4
M  V30 4 1 4 5
M  V30 5 2 5 6
M  V30 6 1 6 7
M  V30 7 2 7 8
M  V30 8 1 8 9
M  V30 9 1 9 10
M  V30 10 1 10 11
M  V30 11 1 11 12
M  V30 12 2 12 13
M  V30 13 1 13 14
M  V30 14 1 14 15
M  V30 15 2 15 16
M  V30 16 1 16 17
M  V30 17 2 17 18
M  V30 18 1 18 19
M  V30 19 2 19 20
M  V30 20 1 20 21
M  V30 21 2 21 22
M  V30 22 1 22 23
M  V30 23 1 23 24
M  V30 24 1 24 25
M  V30 25 2 25 26
M  V30 26 1 25 27
M  V30 27 1 27 28
M  V30 28 1 27 29
M  V30 29 1 27 30
M  V30 30 2 23 31
M  V30 31 1 18 32
M  V30 32 2 32 33
M  V30 33 2 11 34
M  V30 34 1 34 35
M  V30 35 1 4 36
M  V30 36 2 36 37
M  V30 37 1 37 2
M  V30 38 1 35 5
M  V30 39 2 35 9
M  V30 40 1 33 12
M  V30 41 1 33 15
M  V30 42 1 31 19
M  V30 43 1 1 38
M  V30 44 1 1 39
M  V30 45 1 1 40
M  V30 46 1 3 41
M  V30 47 1 7 42
M  V30 48 1 8 43
M  V30 49 1 10 44
M  V30 50 1 14 45
M  V30 51 1 16 46
M  V30 52 1 17 47
M  V30 53 1 20 48
M  V30 54 1 22 49
M  V30 55 1 24 50
M  V30 56 1 28 51
M  V30 57 1 28 52
M  V30 58 1 28 53
M  V30 59 1 29 54
M  V30 60 1 29 55
M  V30 61 1 29 56
M  V30 62 1 30 57
M  V30 63 1 30 58
M  V30 64 1 30 59
M  V30 65 1 31 60
M  V30 66 1 36 61
M  V30 END BOND
M  V30 END CTAB
M  END
>  <Dataset>  (385) 
ChEMBL_Kinases

>  <Ligand_Instance>  (385) 
nan

>  <PDB_ID>  (385) 
nan

>  <Standardized_SMILES>  (385) 
Cc1cn(-c2nccc3[nH]c(-c4n[nH]c5ccc(-c6cncc(NC(=O)C(C)(C)C)c6)nc45)nc23)cn1

>  <Name>  (385) 
nan

>  <Pocket>  (385) 
nan

>  <ATP_Site>  (385) 
nan

>  <Peripheral>  (385) 
nan

>  <Num_H_Atoms_ProtBoundConf>  (385) 
nan

>  <Num_Resolved_Atoms>  (385) 
nan

>  <Num_Not_Resolved_Atoms>  (385) 
nan

$$$$
CHEMBL4779082
     RDKit          3D

  0  0  0  0  0  0  0  0  0  0999 V3000
M  V30 BEGIN CTAB
M  V30 COUNTS 68 74 0 0 0
M  V30 BEGIN ATOM
M  V30 1 C 6.561977 -3.271861 5.577794 0
M  V30 2 N 5.891129 -2.125573 4.958148 0
M  V30 3 C 4.486945 -2.391363 4.976749 0
M  V30 4 C 3.786172 -1.303845 4.191838 0
M  V30 5 N 4.361338 -1.201369 2.841104 0
M  V30 6 C 3.601004 -1.479765 1.669875 0
M  V30 7 N 3.943638 -2.460333 0.783997 0
M  V30 8 C 3.227015 -2.713045 -0.307020 0
M  V30 9 C 2.089317 -1.965861 -0.571539 0
M  V30 10 C 1.714837 -0.968721 0.301345 0
M  V30 11 N 0.701783 -0.091150 0.337281 0
M  V30 12 C 0.702513 0.726992 1.383804 0
M  V30 13 C -0.130748 1.805693 1.869881 0
M  V30 14 N 0.087461 2.511746 3.006777 0
M  V30 15 N -0.834153 3.431449 3.194981 0
M  V30 16 C -1.731542 3.401586 2.194763 0
M  V30 17 C -2.863739 4.135291 1.918977 0
M  V30 18 C -3.578627 3.844030 0.779512 0
M  V30 19 C -3.153922 2.822020 -0.072453 0
M  V30 20 C -3.907567 2.500186 -1.294912 0
M  V30 21 C -4.597881 3.474027 -2.005815 0
M  V30 22 N -5.260040 3.094804 -3.112459 0
M  V30 23 C -5.284170 1.829242 -3.557651 0
M  V30 24 C -4.626542 0.809792 -2.910141 0
M  V30 25 N -4.691738 -0.502406 -3.431914 0
M  V30 26 C -4.119706 -1.703474 -2.966051 0
M  V30 27 O -3.427600 -1.665294 -1.919958 0
M  V30 28 C -4.266411 -3.003213 -3.605445 0
M  V30 29 C -3.645547 -4.086782 -3.022389 0
M  V30 30 C -3.721623 -5.376173 -3.552199 0
M  V30 31 C -4.439899 -5.610018 -4.706092 0
M  V30 32 C -5.063410 -4.531075 -5.294735 0
M  V30 33 C -4.979086 -3.256705 -4.757427 0
M  V30 34 C -3.954278 1.212405 -1.780836 0
M  V30 35 C -2.019978 2.135439 0.265591 0
M  V30 36 C -1.276760 2.383129 1.379706 0
M  V30 37 C 1.837473 0.309131 2.066060 0
M  V30 38 C 2.473224 -0.726161 1.424170 0
M  V30 39 C 5.728291 -0.798616 2.941615 0
M  V30 40 C 6.464189 -1.915913 3.664691 0
M  V30 41 H 5.909493 -3.719781 6.368614 0
M  V30 42 H 6.792696 -4.047268 4.810822 0
M  V30 43 H 7.460863 -2.867719 6.079412 0
M  V30 44 H 4.123645 -2.304862 6.014579 0
M  V30 45 H 4.218148 -3.402571 4.606510 0
M  V30 46 H 2.720262 -1.587925 4.092848 0
M  V30 47 H 3.835365 -0.354917 4.739010 0
M  V30 48 H 3.527788 -3.498428 -0.988149 0
M  V30 49 H 1.478880 -2.139329 -1.446934 0
M  V30 50 H -0.004911 -0.085949 -0.413319 0
M  V30 51 H -0.805678 4.059230 4.028238 0
M  V30 52 H -3.161256 4.914036 2.595950 0
M  V30 53 H -4.486496 4.410623 0.530569 0
M  V30 54 H -4.588437 4.500101 -1.659649 0
M  V30 55 H -5.863737 1.683727 -4.465966 0
M  V30 56 H -5.241252 -0.659440 -4.303474 0
M  V30 57 H -3.051967 -4.015092 -2.107839 0
M  V30 58 H -3.220107 -6.213987 -3.068965 0
M  V30 59 H -4.471188 -6.624186 -5.079407 0
M  V30 60 H -5.634674 -4.691235 -6.204359 0
M  V30 61 H -5.473160 -2.441355 -5.236956 0
M  V30 62 H -3.408664 0.489385 -1.203909 0
M  V30 63 H -1.733183 1.370396 -0.405537 0
M  V30 64 H 2.254854 0.689708 2.999957 0
M  V30 65 H 5.816927 0.109956 3.570480 0
M  V30 66 H 6.198446 -0.566314 1.966768 0
M  V30 67 H 7.536300 -1.645385 3.836138 0
M  V30 68 H 6.370482 -2.820532 3.019715 0
M  V30 END ATOM
M  V30 BEGIN BOND
M  V30 1 1 1 2
M  V30 2 1 2 3
M  V30 3 1 3 4
M  V30 4 1 4 5
M  V30 5 1 5 6
M  V30 6 2 6 7
M  V30 7 1 7 8
M  V30 8 2 8 9
M  V30 9 1 9 10
M  V30 10 1 10 11
M  V30 11 1 11 12
M  V30 12 1 12 13
M  V30 13 2 13 14
M  V30 14 1 14 15
M  V30 15 1 15 16
M  V30 16 2 16 17
M  V30 17 1 17 18
M  V30 18 2 18 19
M  V30 19 1 19 20
M  V30 20 2 20 21
M  V30 21 1 21 22
M  V30 22 2 22 23
M  V30 23 1 23 24
M  V30 24 1 24 25
M  V30 25 1 25 26
M  V30 26 2 26 27
M  V30 27 1 26 28
M  V30 28 2 28 29
M  V30 29 1 29 30
M  V30 30 2 30 31
M  V30 31 1 31 32
M  V30 32 2 32 33
M  V30 33 2 24 34
M  V30 34 1 19 35
M  V30 35 2 35 36
M  V30 36 2 12 37
M  V30 37 1 37 38
M  V30 38 1 5 39
M  V30 39 1 39 40
M  V30 40 1 40 2
M  V30 41 1 38 6
M  V30 42 2 38 10
M  V30 43 1 36 13
M  V30 44 1 36 16
M  V30 45 1 34 20
M  V30 46 1 33 28
M  V30 47 1 1 41
M  V30 48 1 1 42
M  V30 49 1 1 43
M  V30 50 1 3 44
M  V30 51 1 3 45
M  V30 52 1 4 46
M  V30 53 1 4 47
M  V30 54 1 8 48
M  V30 55 1 9 49
M  V30 56 1 11 50
M  V30 57 1 15 51
M  V30 58 1 17 52
M  V30 59 1 18 53
M  V30 60 1 21 54
M  V30 61 1 23 55
M  V30 62 1 25 56
M  V30 63 1 29 57
M  V30 64 1 30 58
M  V30 65 1 31 59
M  V30 66 1 32 60
M  V30 67 1 33 61
M  V30 68 1 34 62
M  V30 69 1 35 63
M  V30 70 1 37 64
M  V30 71 1 39 65
M  V30 72 1 39 66
M  V30 73 1 40 67
M  V30 74 1 40 68
M  V30 END BOND
M  V30 END CTAB
M  END
>  <Dataset>  (386) 
ChEMBL_Kinases

>  <Ligand_Instance>  (386) 
nan

>  <PDB_ID>  (386) 
nan

>  <Standardized_SMILES>  (386) 
CN1CCN(c2nccc3[nH]c(-c4n[nH]c5ccc(-c6cncc(NC(=O)c7ccccc7)c6)cc45)cc23)CC1

>  <Name>  (386) 
nan

>  <Pocket>  (386) 
nan

>  <ATP_Site>  (386) 
nan

>  <Peripheral>  (386) 
nan

>  <Num_H_Atoms_ProtBoundConf>  (386) 
nan

>  <Num_Resolved_Atoms>  (386) 
nan

>  <Num_Not_Resolved_Atoms>  (386) 
nan

$$$$
CHEMBL4779081
     RDKit          3D

  0  0  0  0  0  0  0  0  0  0999 V3000
M  V30 BEGIN CTAB
M  V30 COUNTS 41 44 0 0 0
M  V30 BEGIN ATOM
M  V30 1 C -1.051040 -4.452421 1.586239 0
M  V30 2 C 0.124142 -3.524015 1.371804 0
M  V30 3 C 1.122258 -3.607237 2.521301 0
M  V30 4 C 0.873119 -4.087789 0.150380 0
M  V30 5 N -0.279102 -2.153428 1.107977 0
M  V30 6 N 0.493136 -1.302032 0.436257 0
M  V30 7 C -0.150255 -0.099396 0.358030 0
M  V30 8 C 0.526774 0.989816 -0.330401 0
M  V30 9 C 0.225097 1.653606 -1.531878 0
M  V30 10 N 1.180081 2.559476 -1.796563 0
M  V30 11 C 2.122684 2.539894 -0.818023 0
M  V30 12 C 3.272371 3.275448 -0.621739 0
M  V30 13 C 4.041371 3.028031 0.522168 0
M  V30 14 C 3.653239 2.067263 1.432406 0
M  V30 15 C 2.497836 1.330641 1.231930 0
M  V30 16 C 1.725228 1.574459 0.087965 0
M  V30 17 C -1.328217 -0.311219 1.022469 0
M  V30 18 C -2.301220 0.641966 1.215913 0
M  V30 19 N -2.213942 1.983767 0.757030 0
M  V30 20 N -3.404115 0.250766 1.917204 0
M  V30 21 C -3.531918 -1.024827 2.401490 0
M  V30 22 N -2.533319 -1.931764 2.182594 0
M  V30 23 C -1.429160 -1.594694 1.499238 0
M  V30 24 H -1.997725 -4.021465 1.188144 0
M  V30 25 H -1.175329 -4.610487 2.683109 0
M  V30 26 H -0.920519 -5.423541 1.059434 0
M  V30 27 H 1.288298 -4.681007 2.695803 0
M  V30 28 H 2.069958 -3.134847 2.128904 0
M  V30 29 H 0.774559 -3.132616 3.444143 0
M  V30 30 H 1.786419 -3.480327 0.039793 0
M  V30 31 H 0.239686 -3.963973 -0.754971 0
M  V30 32 H 1.149325 -5.124920 0.383592 0
M  V30 33 H -0.671005 1.413314 -2.109383 0
M  V30 34 H 1.173923 3.185248 -2.654360 0
M  V30 35 H 3.610862 4.044902 -1.319702 0
M  V30 36 H 4.956228 3.550993 0.762473 0
M  V30 37 H 4.223461 1.838537 2.341871 0
M  V30 38 H 2.213799 0.585617 1.952631 0
M  V30 39 H -2.176069 2.905699 1.249041 0
M  V30 40 H -2.183799 2.433233 -0.207094 0
M  V30 41 H -4.444284 -1.286717 2.967864 0
M  V30 END ATOM
M  V30 BEGIN BOND
M  V30 1 1 1 2
M  V30 2 1 2 3
M  V30 3 1 2 4
M  V30 4 1 2 5
M  V30 5 1 5 6
M  V30 6 2 6 7
M  V30 7 1 7 8
M  V30 8 2 8 9
M  V30 9 1 9 10
M  V30 10 1 10 11
M  V30 11 2 11 12
M  V30 12 1 12 13
M  V30 13 2 13 14
M  V30 14 1 14 15
M  V30 15 2 15 16
M  V30 16 1 7 17
M  V30 17 2 17 18
M  V30 18 1 18 19
M  V30 19 1 18 20
M  V30 20 2 20 21
M  V30 21 1 21 22
M  V30 22 2 22 23
M  V30 23 1 23 5
M  V30 24 1 16 8
M  V30 25 1 23 17
M  V30 26 1 16 11
M  V30 27 1 1 24
M  V30 28 1 1 25
M  V30 29 1 1 26
M  V30 30 1 3 27
M  V30 31 1 3 28
M  V30 32 1 3 29
M  V30 33 1 4 30
M  V30 34 1 4 31
M  V30 35 1 4 32
M  V30 36 1 9 33
M  V30 37 1 10 34
M  V30 38 1 12 35
M  V30 39 1 13 36
M  V30 40 1 14 37
M  V30 41 1 15 38
M  V30 42 1 19 39
M  V30 43 1 19 40
M  V30 44 1 21 41
M  V30 END BOND
M  V30 END CTAB
M  END
>  <Dataset>  (387) 
ChEMBL_Kinases

>  <Ligand_Instance>  (387) 
nan

>  <PDB_ID>  (387) 
nan

>  <Standardized_SMILES>  (387) 
CC(C)(C)n1nc(-c2c[nH]c3ccccc23)c2c(N)ncnc21

>  <Name>  (387) 
nan

>  <Pocket>  (387) 
nan

>  <ATP_Site>  (387) 
nan

>  <Peripheral>  (387) 
nan

>  <Num_H_Atoms_ProtBoundConf>  (387) 
nan

>  <Num_Resolved_Atoms>  (387) 
nan

>  <Num_Not_Resolved_Atoms>  (387) 
nan

$$$$
CHEMBL4214123
     RDKit          3D

  0  0  0  0  0  0  0  0  0  0999 V3000
M  V30 BEGIN CTAB
M  V30 COUNTS 68 72 0 0 0
M  V30 BEGIN ATOM
M  V30 1 C 6.302658 -0.870318 3.864528 0
M  V30 2 C 5.733254 0.207770 3.010312 0
M  V30 3 N 6.376932 1.293633 2.570619 0
M  V30 4 C 5.475069 1.998217 1.829671 0
M  V30 5 C 5.565303 3.186502 1.137031 0
M  V30 6 F 6.721224 3.899735 1.101846 0
M  V30 7 C 4.474490 3.715096 0.439082 0
M  V30 8 C 3.273791 2.996587 0.462406 0
M  V30 9 C 2.153378 3.567011 -0.270199 0
M  V30 10 C 0.910268 3.010176 -0.362636 0
M  V30 11 C -0.131023 3.557916 -1.056484 0
M  V30 12 N -1.433953 3.015654 -1.181633 0
M  V30 13 C -1.942491 1.814779 -0.624552 0
M  V30 14 C -3.257439 1.416977 -0.863408 0
M  V30 15 N -3.773701 0.290210 -0.355105 0
M  V30 16 C -3.041025 -0.523402 0.420180 0
M  V30 17 C -3.621830 -1.769063 0.973867 0
M  V30 18 N -3.433344 -2.888222 0.141878 0
M  V30 19 C -3.968134 -4.099358 0.597486 0
M  V30 20 C -3.733388 -5.276869 -0.315403 0
M  V30 21 N -3.986198 -4.956788 -1.666383 0
M  V30 22 C -5.312276 -5.027669 -2.152864 0
M  V30 23 C -5.936392 -6.371036 -2.267043 0
M  V30 24 F -7.233680 -6.179460 -2.775622 0
M  V30 25 F -6.135168 -6.911371 -1.010366 0
M  V30 26 F -5.321946 -7.239298 -3.113914 0
M  V30 27 C -3.345316 -3.782898 -2.157792 0
M  V30 28 C -3.015271 -2.726274 -1.177887 0
M  V30 29 C -1.739148 -0.157212 0.674153 0
M  V30 30 N -1.259636 0.962518 0.156626 0
M  V30 31 N 0.144968 4.721222 -1.667398 0
M  V30 32 C 1.339405 5.320556 -1.617423 0
M  V30 33 N 2.353714 4.746109 -0.917074 0
M  V30 34 C 3.216041 1.812545 1.163451 0
M  V30 35 C 4.291911 1.291431 1.852070 0
M  V30 36 N 4.453937 0.168244 2.592661 0
M  V30 37 C 3.408341 -0.803810 2.824860 0
M  V30 38 C 2.233988 -0.207546 3.566607 0
M  V30 39 C 3.017643 -1.543630 1.581378 0
M  V30 40 H 7.407203 -0.887316 3.776680 0
M  V30 41 H 5.950513 -0.721433 4.917577 0
M  V30 42 H 5.884856 -1.857596 3.551727 0
M  V30 43 H 4.599357 4.653499 -0.088402 0
M  V30 44 H 0.775869 2.092828 0.147776 0
M  V30 45 H -2.129766 3.562923 -1.760455 0
M  V30 46 H -3.899389 2.026379 -1.479137 0
M  V30 47 H -4.672619 -1.552633 1.251880 0
M  V30 48 H -3.082829 -1.972739 1.937339 0
M  V30 49 H -5.082601 -4.031752 0.739031 0
M  V30 50 H -3.573212 -4.370156 1.597736 0
M  V30 51 H -2.645827 -5.536677 -0.222442 0
M  V30 52 H -4.283844 -6.149198 0.014895 0
M  V30 53 H -6.032000 -4.374908 -1.595414 0
M  V30 54 H -5.298371 -4.557923 -3.182775 0
M  V30 55 H -3.929279 -3.385818 -3.040375 0
M  V30 56 H -2.381084 -4.121114 -2.642589 0
M  V30 57 H -1.906986 -2.496284 -1.168938 0
M  V30 58 H -3.451000 -1.757117 -1.566887 0
M  V30 59 H -1.089289 -0.774426 1.297885 0
M  V30 60 H 1.536578 6.259848 -2.118265 0
M  V30 61 H 2.311232 1.259768 1.188589 0
M  V30 62 H 3.865153 -1.562563 3.518654 0
M  V30 63 H 1.338657 -0.293637 2.917862 0
M  V30 64 H 2.436153 0.832265 3.898588 0
M  V30 65 H 1.984948 -0.782915 4.482128 0
M  V30 66 H 1.922357 -1.426550 1.361409 0
M  V30 67 H 3.153654 -2.655926 1.680287 0
M  V30 68 H 3.649384 -1.258360 0.712873 0
M  V30 END ATOM
M  V30 BEGIN BOND
M  V30 1 1 1 2
M  V30 2 2 2 3
M  V30 3 1 3 4
M  V30 4 2 4 5
M  V30 5 1 5 6
M  V30 6 1 5 7
M  V30 7 2 7 8
M  V30 8 1 8 9
M  V30 9 2 9 10
M  V30 10 1 10 11
M  V30 11 1 11 12
M  V30 12 1 12 13
M  V30 13 2 13 14
M  V30 14 1 14 15
M  V30 15 2 15 16
M  V30 16 1 16 17
M  V30 17 1 17 18
M  V30 18 1 18 19
M  V30 19 1 19 20
M  V30 20 1 20 21
M  V30 21 1 21 22
M  V30 22 1 22 23
M  V30 23 1 23 24
M  V30 24 1 23 25
M  V30 25 1 23 26
M  V30 26 1 21 27
M  V30 27 1 27 28
M  V30 28 1 16 29
M  V30 29 2 29 30
M  V30 30 2 11 31
M  V30 31 1 31 32
M  V30 32 2 32 33
M  V30 33 1 8 34
M  V30 34 2 34 35
M  V30 35 1 35 36
M  V30 36 1 36 37
M  V30 37 1 37 38
M  V30 38 1 37 39
M  V30 39 1 36 2
M  V30 40 1 35 4
M  V30 41 1 33 9
M  V30 42 1 30 13
M  V30 43 1 28 18
M  V30 44 1 1 40
M  V30 45 1 1 41
M  V30 46 1 1 42
M  V30 47 1 7 43
M  V30 48 1 10 44
M  V30 49 1 12 45
M  V30 50 1 14 46
M  V30 51 1 17 47
M  V30 52 1 17 48
M  V30 53 1 19 49
M  V30 54 1 19 50
M  V30 55 1 20 51
M  V30 56 1 20 52
M  V30 57 1 22 53
M  V30 58 1 22 54
M  V30 59 1 27 55
M  V30 60 1 27 56
M  V30 61 1 28 57
M  V30 62 1 28 58
M  V30 63 1 29 59
M  V30 64 1 32 60
M  V30 65 1 34 61
M  V30 66 1 37 62
M  V30 67 1 38 63
M  V30 68 1 38 64
M  V30 69 1 38 65
M  V30 70 1 39 66
M  V30 71 1 39 67
M  V30 72 1 39 68
M  V30 END BOND
M  V30 END CTAB
M  END
>  <Dataset>  (388) 
ChEMBL_Kinases

>  <Ligand_Instance>  (388) 
nan

>  <PDB_ID>  (388) 
nan

>  <Standardized_SMILES>  (388) 
Cc1nc2c(F)cc(-c3cc(Nc4cnc(CN5CCN(CC(F)(F)F)CC5)cn4)ncn3)cc2n1C(C)C

>  <Name>  (388) 
nan

>  <Pocket>  (388) 
nan

>  <ATP_Site>  (388) 
nan

>  <Peripheral>  (388) 
nan

>  <Num_H_Atoms_ProtBoundConf>  (388) 
nan

>  <Num_Resolved_Atoms>  (388) 
nan

>  <Num_Not_Resolved_Atoms>  (388) 
nan

$$$$
CHEMBL4779032
     RDKit          3D

  0  0  0  0  0  0  0  0  0  0999 V3000
M  V30 BEGIN CTAB
M  V30 COUNTS 53 58 0 0 0
M  V30 BEGIN ATOM
M  V30 1 C 6.920504 -0.088845 4.896758 0
M  V30 2 C 7.111103 0.837590 3.705415 0
M  V30 3 C 6.064788 0.559130 2.668234 0
M  V30 4 O 5.245749 -0.366434 2.975024 0
M  V30 5 N 6.016258 1.287246 1.448762 0
M  V30 6 C 4.903281 0.780018 0.679408 0
M  V30 7 C 5.164690 -0.270129 -0.176192 0
M  V30 8 N 4.127053 -0.748973 -0.895797 0
M  V30 9 C 2.890751 -0.201646 -0.763163 0
M  V30 10 C 2.670410 0.860116 0.114328 0
M  V30 11 C 1.317060 1.432341 0.237428 0
M  V30 12 C 1.163459 2.773660 0.533394 0
M  V30 13 N -0.102525 3.222725 0.630474 0
M  V30 14 C -1.174501 2.428809 0.453425 0
M  V30 15 N -2.493461 2.617627 0.493392 0
M  V30 16 N -3.136074 1.497542 0.245311 0
M  V30 17 C -2.280489 0.468968 0.019379 0
M  V30 18 C -2.653312 -0.897865 -0.281547 0
M  V30 19 N -3.946530 -1.263658 -0.360906 0
M  V30 20 C -4.094297 -2.553784 -0.643765 0
M  V30 21 C -5.228403 -3.361058 -0.819512 0
M  V30 22 C -6.510947 -2.687253 -0.690386 0
M  V30 23 C -7.260916 -3.447144 0.130465 0
M  V30 24 C -8.623358 -2.985839 0.422111 0
M  V30 25 S -8.733375 -1.382503 -0.574322 0
M  V30 26 C -6.988284 -1.468510 -1.276558 0
M  V30 27 C -4.962454 -4.679539 -1.108235 0
M  V30 28 C -3.707989 -5.232539 -1.230498 0
M  V30 29 C -2.630036 -4.400893 -1.049503 0
M  V30 30 C -2.825658 -3.077607 -0.759594 0
M  V30 31 N -2.011261 -2.039877 -0.532549 0
M  V30 32 C -1.058947 1.086868 0.157289 0
M  V30 33 C 0.227261 0.605784 0.053134 0
M  V30 34 C 3.692559 1.397067 0.880957 0
M  V30 35 H 5.854956 -0.073270 5.166084 0
M  V30 36 H 7.613593 0.134913 5.708701 0
M  V30 37 H 7.126449 -1.119859 4.537693 0
M  V30 38 H 7.054355 1.870851 4.089835 0
M  V30 39 H 8.133011 0.688023 3.329963 0
M  V30 40 H 6.768178 2.022824 1.347326 0
M  V30 41 H 6.166405 -0.685907 -0.259187 0
M  V30 42 H 2.087744 -0.629748 -1.370784 0
M  V30 43 H 2.044403 3.385558 0.669952 0
M  V30 44 H -3.012244 3.502505 0.688049 0
M  V30 45 H -7.421894 -4.292000 0.750768 0
M  V30 46 H -9.726288 -2.803848 0.783462 0
M  V30 47 H -6.075897 -1.034196 -1.955774 0
M  V30 48 H -5.861164 -5.283133 -1.239108 0
M  V30 49 H -3.614948 -6.283621 -1.460665 0
M  V30 50 H -1.619225 -4.768911 -1.131168 0
M  V30 51 H -0.983391 -2.143269 -0.556048 0
M  V30 52 H 0.407889 -0.407715 -0.170437 0
M  V30 53 H 3.552024 2.205428 1.556779 0
M  V30 END ATOM
M  V30 BEGIN BOND
M  V30 1 1 1 2
M  V30 2 1 2 3
M  V30 3 2 3 4
M  V30 4 1 3 5
M  V30 5 1 5 6
M  V30 6 2 6 7
M  V30 7 1 7 8
M  V30 8 2 8 9
M  V30 9 1 9 10
M  V30 10 1 10 11
M  V30 11 2 11 12
M  V30 12 1 12 13
M  V30 13 2 13 14
M  V30 14 1 14 15
M  V30 15 1 15 16
M  V30 16 2 16 17
M  V30 17 1 17 18
M  V30 18 2 18 19
M  V30 19 1 19 20
M  V30 20 2 20 21
M  V30 21 1 21 22
M  V30 22 1 22 23
M  V30 23 2 23 24
M  V30 24 1 24 25
M  V30 25 1 25 26
M  V30 26 1 21 27
M  V30 27 2 27 28
M  V30 28 1 28 29
M  V30 29 2 29 30
M  V30 30 1 30 31
M  V30 31 1 17 32
M  V30 32 2 32 33
M  V30 33 2 10 34
M  V30 34 1 34 6
M  V30 35 1 33 11
M  V30 36 1 32 14
M  V30 37 1 31 18
M  V30 38 1 30 20
M  V30 39 2 26 22
M  V30 40 1 1 35
M  V30 41 1 1 36
M  V30 42 1 1 37
M  V30 43 1 2 38
M  V30 44 1 2 39
M  V30 45 1 5 40
M  V30 46 1 7 41
M  V30 47 1 9 42
M  V30 48 1 12 43
M  V30 49 1 15 44
M  V30 50 1 23 45
M  V30 51 1 24 46
M  V30 52 1 26 47
M  V30 53 1 27 48
M  V30 54 1 28 49
M  V30 55 1 29 50
M  V30 56 1 31 51
M  V30 57 1 33 52
M  V30 58 1 34 53
M  V30 END BOND
M  V30 END CTAB
M  END
>  <Dataset>  (389) 
ChEMBL_Kinases

>  <Ligand_Instance>  (389) 
nan

>  <PDB_ID>  (389) 
nan

>  <Standardized_SMILES>  (389) 
CCC(=O)Nc1cncc(-c2cnc3[nH]nc(-c4nc5c(-c6ccsc6)cccc5[nH]4)c3c2)c1

>  <Name>  (389) 
nan

>  <Pocket>  (389) 
nan

>  <ATP_Site>  (389) 
nan

>  <Peripheral>  (389) 
nan

>  <Num_H_Atoms_ProtBoundConf>  (389) 
nan

>  <Num_Resolved_Atoms>  (389) 
nan

>  <Num_Not_Resolved_Atoms>  (389) 
nan

$$$$
CHEMBL4214431
     RDKit          3D

  0  0  0  0  0  0  0  0  0  0999 V3000
M  V30 BEGIN CTAB
M  V30 COUNTS 47 52 0 0 0
M  V30 BEGIN ATOM
M  V30 1 C 0.189163 -3.018434 1.811459 0
M  V30 2 O 0.680139 -2.121266 0.845140 0
M  V30 3 C 1.907689 -1.490399 0.924487 0
M  V30 4 C 2.757482 -1.711949 1.998259 0
M  V30 5 C 3.991463 -1.054386 2.041816 0
M  V30 6 C 4.316820 -0.196456 0.993789 0
M  V30 7 C 3.457374 0.012670 -0.069056 0
M  V30 8 C 2.223077 -0.642349 -0.116824 0
M  V30 9 C 1.332767 -0.406435 -1.247675 0
M  V30 10 C 1.742394 -0.389268 -2.554917 0
M  V30 11 N 0.646931 -0.141629 -3.326419 0
M  V30 12 C -0.401756 -0.010756 -2.521153 0
M  V30 13 C -1.741150 0.240519 -2.709289 0
M  V30 14 C -2.543132 0.306487 -1.600139 0
M  V30 15 C -2.157401 0.147001 -0.303366 0
M  V30 16 C -2.846801 0.217266 0.956082 0
M  V30 17 C -2.059829 0.379170 2.101897 0
M  V30 18 C -2.609691 0.443077 3.353892 0
M  V30 19 N -3.935737 0.351037 3.526997 0
M  V30 20 C -4.751731 0.193716 2.479903 0
M  V30 21 N -6.084120 0.059466 2.390817 0
M  V30 22 C -6.396225 -0.092550 1.094703 0
M  V30 23 C -5.224532 -0.048726 0.383625 0
M  V30 24 C -4.173116 0.132885 1.235929 0
M  V30 25 N -0.829855 -0.091116 -0.259077 0
M  V30 26 N -0.012922 -0.166090 -1.267285 0
M  V30 27 C 5.667931 0.367113 1.283563 0
M  V30 28 N 5.899665 0.064095 2.677256 0
M  V30 29 C 5.105332 -1.070487 3.024720 0
M  V30 30 H 0.556017 -4.031062 1.536681 0
M  V30 31 H 0.481614 -2.759788 2.846504 0
M  V30 32 H -0.928833 -3.052109 1.768036 0
M  V30 33 H 2.489649 -2.386912 2.812572 0
M  V30 34 H 3.772562 0.701275 -0.863759 0
M  V30 35 H 2.724503 -0.533524 -2.993650 0
M  V30 36 H -2.165098 0.383743 -3.689843 0
M  V30 37 H -3.566013 0.529369 -1.762271 0
M  V30 38 H -0.982046 0.461875 2.054936 0
M  V30 39 H -1.981626 0.569334 4.220700 0
M  V30 40 H -6.749882 0.072106 3.189515 0
M  V30 41 H -7.406668 -0.221886 0.739011 0
M  V30 42 H -5.253495 -0.165760 -0.668522 0
M  V30 43 H 5.717724 1.462077 1.073099 0
M  V30 44 H 6.429790 -0.187055 0.693814 0
M  V30 45 H 6.901112 -0.099958 2.917295 0
M  V30 46 H 5.669953 -2.026227 3.029424 0
M  V30 47 H 4.730592 -0.921977 4.068920 0
M  V30 END ATOM
M  V30 BEGIN BOND
M  V30 1 1 1 2
M  V30 2 1 2 3
M  V30 3 2 3 4
M  V30 4 1 4 5
M  V30 5 2 5 6
M  V30 6 1 6 7
M  V30 7 2 7 8
M  V30 8 1 8 9
M  V30 9 2 9 10
M  V30 10 1 10 11
M  V30 11 2 11 12
M  V30 12 1 12 13
M  V30 13 2 13 14
M  V30 14 1 14 15
M  V30 15 1 15 16
M  V30 16 2 16 17
M  V30 17 1 17 18
M  V30 18 2 18 19
M  V30 19 1 19 20
M  V30 20 1 20 21
M  V30 21 1 21 22
M  V30 22 2 22 23
M  V30 23 1 23 24
M  V30 24 2 15 25
M  V30 25 1 25 26
M  V30 26 1 6 27
M  V30 27 1 27 28
M  V30 28 1 28 29
M  V30 29 1 8 3
M  V30 30 1 26 9
M  V30 31 1 29 5
M  V30 32 1 26 12
M  V30 33 1 24 16
M  V30 34 2 24 20
M  V30 35 1 1 30
M  V30 36 1 1 31
M  V30 37 1 1 32
M  V30 38 1 4 33
M  V30 39 1 7 34
M  V30 40 1 10 35
M  V30 41 1 13 36
M  V30 42 1 14 37
M  V30 43 1 17 38
M  V30 44 1 18 39
M  V30 45 1 21 40
M  V30 46 1 22 41
M  V30 47 1 23 42
M  V30 48 1 27 43
M  V30 49 1 27 44
M  V30 50 1 28 45
M  V30 51 1 29 46
M  V30 52 1 29 47
M  V30 END BOND
M  V30 END CTAB
M  END
>  <Dataset>  (390) 
ChEMBL_Kinases

>  <Ligand_Instance>  (390) 
nan

>  <PDB_ID>  (390) 
nan

>  <Standardized_SMILES>  (390) 
COc1cc2c(cc1-c1cnc3ccc(-c4ccnc5[nH]ccc45)nn13)CNC2

>  <Name>  (390) 
nan

>  <Pocket>  (390) 
nan

>  <ATP_Site>  (390) 
nan

>  <Peripheral>  (390) 
nan

>  <Num_H_Atoms_ProtBoundConf>  (390) 
nan

>  <Num_Resolved_Atoms>  (390) 
nan

>  <Num_Not_Resolved_Atoms>  (390) 
nan

$$$$
CHEMBL4214634
     RDKit          3D

  0  0  0  0  0  0  0  0  0  0999 V3000
M  V30 BEGIN CTAB
M  V30 COUNTS 72 76 0 0 0
M  V30 BEGIN ATOM
M  V30 1 C 3.688773 -1.217048 3.860685 0
M  V30 2 O 4.821440 -1.291352 3.105250 0
M  V30 3 C 4.796764 -0.534727 1.954558 0
M  V30 4 C 3.690113 -0.980801 1.061671 0
M  V30 5 N 3.631354 -0.218871 -0.178590 0
M  V30 6 C 4.762482 -0.497004 -1.030643 0
M  V30 7 C 4.620975 0.378445 -2.291451 0
M  V30 8 N 3.363732 1.005898 -2.343374 0
M  V30 9 C 3.220755 2.386665 -2.369998 0
M  V30 10 C 1.820730 2.864894 -2.206755 0
M  V30 11 C 0.846572 3.083117 -3.146074 0
M  V30 12 N -0.409095 3.500135 -2.910109 0
M  V30 13 C -0.771155 3.736671 -1.615724 0
M  V30 14 N -1.941437 4.146534 -0.923600 0
M  V30 15 C -2.621764 3.048896 -0.327198 0
M  V30 16 C -2.250910 1.733989 -0.490528 0
M  V30 17 C -2.923250 0.728523 0.151220 0
M  V30 18 C -2.581121 -0.671729 0.034659 0
M  V30 19 C -1.552697 -1.093978 -0.773302 0
M  V30 20 C -1.258679 -2.448465 -0.832910 0
M  V30 21 F -0.237220 -2.881730 -1.637300 0
M  V30 22 C -1.998486 -3.354815 -0.082460 0
M  V30 23 N -1.899090 -4.714145 0.028106 0
M  V30 24 C -2.851668 -5.113632 0.891806 0
M  V30 25 C -3.082117 -6.544291 1.297607 0
M  V30 26 N -3.566296 -4.053652 1.343758 0
M  V30 27 C -4.658507 -4.060705 2.280204 0
M  V30 28 C -5.934166 -3.861587 1.486086 0
M  V30 29 C -4.592927 -3.005553 3.319415 0
M  V30 30 C -3.043196 -2.979936 0.746399 0
M  V30 31 C -3.274898 -1.621137 0.751717 0
M  V30 32 N -3.939092 1.096792 0.928981 0
M  V30 33 C -4.336019 2.372389 1.115282 0
M  V30 34 N -3.672574 3.357737 0.481897 0
M  V30 35 C 0.197793 3.525426 -0.623806 0
M  V30 36 N 1.459585 3.101552 -0.903531 0
M  V30 37 C 2.290207 0.135666 -2.131351 0
M  V30 38 C 2.427707 -0.660253 -0.848408 0
M  V30 39 H 2.755438 -1.543419 3.380700 0
M  V30 40 H 3.464879 -0.214322 4.297471 0
M  V30 41 H 3.783272 -1.881874 4.763024 0
M  V30 42 H 5.786032 -0.579925 1.437065 0
M  V30 43 H 4.686628 0.550323 2.224060 0
M  V30 44 H 3.756727 -2.049120 0.784146 0
M  V30 45 H 2.703886 -0.832713 1.542511 0
M  V30 46 H 4.747520 -1.571520 -1.327224 0
M  V30 47 H 5.728616 -0.226264 -0.579138 0
M  V30 48 H 5.485538 1.079476 -2.366147 0
M  V30 49 H 4.668961 -0.339647 -3.165294 0
M  V30 50 H 3.884123 2.867958 -1.588280 0
M  V30 51 H 3.602147 2.813591 -3.330519 0
M  V30 52 H 1.152312 2.893205 -4.155436 0
M  V30 53 H -2.281946 5.126965 -0.846116 0
M  V30 54 H -1.411158 1.504982 -1.143030 0
M  V30 55 H -0.950306 -0.452486 -1.368887 0
M  V30 56 H -2.174832 -7.158272 1.045704 0
M  V30 57 H -3.943854 -6.993466 0.808650 0
M  V30 58 H -3.108534 -6.572668 2.418153 0
M  V30 59 H -4.751163 -5.066626 2.748909 0
M  V30 60 H -6.027357 -2.751076 1.372658 0
M  V30 61 H -6.840597 -4.213120 1.987100 0
M  V30 62 H -5.834059 -4.244129 0.447004 0
M  V30 63 H -3.544914 -2.583927 3.354191 0
M  V30 64 H -4.692650 -3.484914 4.339296 0
M  V30 65 H -5.371949 -2.247149 3.296038 0
M  V30 66 H -4.096568 -1.261462 1.392802 0
M  V30 67 H -5.161967 2.688150 1.742938 0
M  V30 68 H 0.112065 3.655674 0.456254 0
M  V30 69 H 2.255368 -0.623766 -2.969840 0
M  V30 70 H 1.284339 0.598571 -2.132553 0
M  V30 71 H 1.559791 -0.446924 -0.160850 0
M  V30 72 H 2.413864 -1.756159 -1.006915 0
M  V30 END ATOM
M  V30 BEGIN BOND
M  V30 1 1 1 2
M  V30 2 1 2 3
M  V30 3 1 3 4
M  V30 4 1 4 5
M  V30 5 1 5 6
M  V30 6 1 6 7
M  V30 7 1 7 8
M  V30 8 1 8 9
M  V30 9 1 9 10
M  V30 10 2 10 11
M  V30 11 1 11 12
M  V30 12 2 12 13
M  V30 13 1 13 14
M  V30 14 1 14 15
M  V30 15 2 15 16
M  V30 16 1 16 17
M  V30 17 1 17 18
M  V30 18 2 18 19
M  V30 19 1 19 20
M  V30 20 1 20 21
M  V30 21 2 20 22
M  V30 22 1 22 23
M  V30 23 2 23 24
M  V30 24 1 24 25
M  V30 25 1 24 26
M  V30 26 1 26 27
M  V30 27 1 27 28
M  V30 28 1 27 29
M  V30 29 1 26 30
M  V30 30 2 30 31
M  V30 31 2 17 32
M  V30 32 1 32 33
M  V30 33 2 33 34
M  V30 34 1 13 35
M  V30 35 2 35 36
M  V30 36 1 8 37
M  V30 37 1 37 38
M  V30 38 1 38 5
M  V30 39 1 36 10
M  V30 40 1 34 15
M  V30 41 1 31 18
M  V30 42 1 30 22
M  V30 43 1 1 39
M  V30 44 1 1 40
M  V30 45 1 1 41
M  V30 46 1 3 42
M  V30 47 1 3 43
M  V30 48 1 4 44
M  V30 49 1 4 45
M  V30 50 1 6 46
M  V30 51 1 6 47
M  V30 52 1 7 48
M  V30 53 1 7 49
M  V30 54 1 9 50
M  V30 55 1 9 51
M  V30 56 1 11 52
M  V30 57 1 14 53
M  V30 58 1 16 54
M  V30 59 1 19 55
M  V30 60 1 25 56
M  V30 61 1 25 57
M  V30 62 1 25 58
M  V30 63 1 27 59
M  V30 64 1 28 60
M  V30 65 1 28 61
M  V30 66 1 28 62
M  V30 67 1 29 63
M  V30 68 1 29 64
M  V30 69 1 29 65
M  V30 70 1 31 66
M  V30 71 1 33 67
M  V30 72 1 35 68
M  V30 73 1 37 69
M  V30 74 1 37 70
M  V30 75 1 38 71
M  V30 76 1 38 72
M  V30 END BOND
M  V30 END CTAB
M  END
>  <Dataset>  (391) 
ChEMBL_Kinases

>  <Ligand_Instance>  (391) 
nan

>  <PDB_ID>  (391) 
nan

>  <Standardized_SMILES>  (391) 
COCCN1CCN(Cc2cnc(Nc3cc(-c4cc(F)c5nc(C)n(C(C)C)c5c4)ncn3)cn2)CC1

>  <Name>  (391) 
nan

>  <Pocket>  (391) 
nan

>  <ATP_Site>  (391) 
nan

>  <Peripheral>  (391) 
nan

>  <Num_H_Atoms_ProtBoundConf>  (391) 
nan

>  <Num_Resolved_Atoms>  (391) 
nan

>  <Num_Not_Resolved_Atoms>  (391) 
nan

$$$$
CHEMBL4214898
     RDKit          3D

  0  0  0  0  0  0  0  0  0  0999 V3000
M  V30 BEGIN CTAB
M  V30 COUNTS 69 73 0 0 0
M  V30 BEGIN ATOM
M  V30 1 C 3.193496 -4.437570 3.038842 0
M  V30 2 C 4.165390 -3.925821 2.007145 0
M  V30 3 N 3.566794 -3.605418 0.759289 0
M  V30 4 C 2.678384 -2.462580 0.773924 0
M  V30 5 C 2.902043 -1.599249 -0.458350 0
M  V30 6 N 4.288016 -1.188303 -0.542788 0
M  V30 7 C 4.557959 -0.456861 -1.755230 0
M  V30 8 C 3.616022 0.703700 -1.857344 0
M  V30 9 C 3.844415 1.946407 -1.308957 0
M  V30 10 C 2.904261 2.948935 -1.465979 0
M  V30 11 C 1.734918 2.700882 -2.175081 0
M  V30 12 N 0.681525 3.649340 -2.404731 0
M  V30 13 C -0.090009 3.285591 -1.203310 0
M  V30 14 C -1.064357 2.279141 -1.040313 0
M  V30 15 C -1.814516 1.921605 0.156577 0
M  V30 16 C -2.611452 0.854987 -0.333608 0
M  V30 17 C -2.810985 0.199346 -1.491827 0
M  V30 18 C -3.677480 -0.822632 -1.692188 0
M  V30 19 F -3.782592 -1.387664 -2.902944 0
M  V30 20 C -4.415981 -1.202366 -0.564265 0
M  V30 21 N -5.353443 -2.189991 -0.463057 0
M  V30 22 C -5.817184 -2.225356 0.790879 0
M  V30 23 C -6.832359 -3.113732 1.387680 0
M  V30 24 N -5.179835 -1.259635 1.502505 0
M  V30 25 C -5.342368 -0.905059 2.900028 0
M  V30 26 C -4.043256 -1.002042 3.640107 0
M  V30 27 C -5.876571 0.514474 2.965012 0
M  V30 28 C -4.314161 -0.621437 0.681073 0
M  V30 29 C -3.381836 0.428823 0.765770 0
M  V30 30 N -1.127245 2.840830 0.577691 0
M  V30 31 C -0.472063 3.756234 1.079514 0
M  V30 32 N 0.190634 4.028647 -0.089960 0
M  V30 33 N 1.558662 1.469446 -2.691598 0
M  V30 34 C 2.453234 0.467022 -2.558897 0
M  V30 35 C 5.207196 -2.261485 -0.366072 0
M  V30 36 C 4.484497 -3.563710 -0.343013 0
M  V30 37 H 3.126623 -5.541688 2.915244 0
M  V30 38 H 2.165024 -4.063721 2.888550 0
M  V30 39 H 3.542605 -4.264127 4.081730 0
M  V30 40 H 4.924577 -4.736501 1.820247 0
M  V30 41 H 4.745012 -3.101763 2.452121 0
M  V30 42 H 2.890768 -1.900014 1.704438 0
M  V30 43 H 1.626111 -2.769232 0.792977 0
M  V30 44 H 2.297193 -0.683463 -0.323608 0
M  V30 45 H 2.556264 -2.115701 -1.357536 0
M  V30 46 H 5.616186 -0.110012 -1.809207 0
M  V30 47 H 4.437010 -1.152203 -2.607873 0
M  V30 48 H 4.746618 2.119158 -0.769239 0
M  V30 49 H 3.024361 3.938238 -1.060396 0
M  V30 50 H 0.414271 4.366307 -3.080892 0
M  V30 51 H -1.031337 1.905514 -2.103130 0
M  V30 52 H -2.231166 0.514860 -2.331103 0
M  V30 53 H -7.836513 -2.664834 1.162271 0
M  V30 54 H -6.660755 -3.306084 2.456584 0
M  V30 55 H -6.822008 -4.070423 0.799616 0
M  V30 56 H -6.115772 -1.558895 3.403109 0
M  V30 57 H -4.132006 -1.788479 4.439350 0
M  V30 58 H -3.193043 -1.297910 2.991870 0
M  V30 59 H -3.852178 -0.050432 4.202014 0
M  V30 60 H -5.938599 0.950981 1.935545 0
M  V30 61 H -5.140837 1.156925 3.503285 0
M  V30 62 H -6.890122 0.568710 3.398633 0
M  V30 63 H -3.388534 0.813767 1.805737 0
M  V30 64 H -0.408054 4.190133 2.043077 0
M  V30 65 H 2.163153 -0.460840 -3.032792 0
M  V30 66 H 5.882352 -2.283886 -1.276199 0
M  V30 67 H 5.907916 -2.111014 0.481637 0
M  V30 68 H 3.945954 -3.677937 -1.314440 0
M  V30 69 H 5.218011 -4.385710 -0.223817 0
M  V30 END ATOM
M  V30 BEGIN BOND
M  V30 1 1 1 2
M  V30 2 1 2 3
M  V30 3 1 3 4
M  V30 4 1 4 5
M  V30 5 1 5 6
M  V30 6 1 6 7
M  V30 7 1 7 8
M  V30 8 2 8 9
M  V30 9 1 9 10
M  V30 10 2 10 11
M  V30 11 1 11 12
M  V30 12 1 12 13
M  V30 13 2 13 14
M  V30 14 1 14 15
M  V30 15 1 15 16
M  V30 16 2 16 17
M  V30 17 1 17 18
M  V30 18 1 18 19
M  V30 19 2 18 20
M  V30 20 1 20 21
M  V30 21 2 21 22
M  V30 22 1 22 23
M  V30 23 1 22 24
M  V30 24 1 24 25
M  V30 25 1 25 26
M  V30 26 1 25 27
M  V30 27 1 24 28
M  V30 28 2 28 29
M  V30 29 2 15 30
M  V30 30 1 30 31
M  V30 31 2 31 32
M  V30 32 1 11 33
M  V30 33 2 33 34
M  V30 34 1 6 35
M  V30 35 1 35 36
M  V30 36 1 36 3
M  V30 37 1 34 8
M  V30 38 1 32 13
M  V30 39 1 29 16
M  V30 40 1 28 20
M  V30 41 1 1 37
M  V30 42 1 1 38
M  V30 43 1 1 39
M  V30 44 1 2 40
M  V30 45 1 2 41
M  V30 46 1 4 42
M  V30 47 1 4 43
M  V30 48 1 5 44
M  V30 49 1 5 45
M  V30 50 1 7 46
M  V30 51 1 7 47
M  V30 52 1 9 48
M  V30 53 1 10 49
M  V30 54 1 12 50
M  V30 55 1 14 51
M  V30 56 1 17 52
M  V30 57 1 23 53
M  V30 58 1 23 54
M  V30 59 1 23 55
M  V30 60 1 25 56
M  V30 61 1 26 57
M  V30 62 1 26 58
M  V30 63 1 26 59
M  V30 64 1 27 60
M  V30 65 1 27 61
M  V30 66 1 27 62
M  V30 67 1 29 63
M  V30 68 1 31 64
M  V30 69 1 34 65
M  V30 70 1 35 66
M  V30 71 1 35 67
M  V30 72 1 36 68
M  V30 73 1 36 69
M  V30 END BOND
M  V30 END CTAB
M  END
>  <Dataset>  (392) 
ChEMBL_Kinases

>  <Ligand_Instance>  (392) 
nan

>  <PDB_ID>  (392) 
nan

>  <Standardized_SMILES>  (392) 
CCN1CCN(Cc2ccc(Nc3cc(-c4cc(F)c5nc(C)n(C(C)C)c5c4)ncn3)nc2)CC1

>  <Name>  (392) 
nan

>  <Pocket>  (392) 
nan

>  <ATP_Site>  (392) 
nan

>  <Peripheral>  (392) 
nan

>  <Num_H_Atoms_ProtBoundConf>  (392) 
nan

>  <Num_Resolved_Atoms>  (392) 
nan

>  <Num_Not_Resolved_Atoms>  (392) 
nan

$$$$
CHEMBL4778916
     RDKit          3D

  0  0  0  0  0  0  0  0  0  0999 V3000
M  V30 BEGIN CTAB
M  V30 COUNTS 46 51 0 0 0
M  V30 BEGIN ATOM
M  V30 1 C 1.965844 0.717242 4.681432 0
M  V30 2 C 2.693414 0.124702 5.685894 0
M  V30 3 N 3.645124 -0.829693 5.483626 0
M  V30 4 C 3.933824 -1.258928 4.240859 0
M  V30 5 C 3.231383 -0.694515 3.205655 0
M  V30 6 C 3.481303 -1.103498 1.809526 0
M  V30 7 C 4.737798 -1.504070 1.392847 0
M  V30 8 C 4.915339 -1.876900 0.076969 0
M  V30 9 C 3.870063 -1.861891 -0.840929 0
M  V30 10 N 3.696547 -2.146444 -2.130765 0
M  V30 11 N 2.444430 -1.945067 -2.498834 0
M  V30 12 C 1.697334 -1.509436 -1.468613 0
M  V30 13 C 0.286641 -1.200204 -1.554635 0
M  V30 14 C -0.692137 -0.756435 -0.710535 0
M  V30 15 C -1.916838 -0.626419 -1.329437 0
M  V30 16 C -3.135553 -0.212681 -0.831173 0
M  V30 17 C -3.331547 0.177977 0.558320 0
M  V30 18 C -4.030073 1.360365 0.688267 0
M  V30 19 C -4.316188 1.889795 1.929678 0
M  V30 20 C -3.872602 1.183302 3.018522 0
M  V30 21 N -3.182696 0.016343 2.920225 0
M  V30 22 C -2.926684 -0.461423 1.708872 0
M  V30 23 C -4.194494 -0.188071 -1.721383 0
M  V30 24 C -3.958069 -0.575461 -3.030681 0
M  V30 25 N -2.741580 -0.969851 -3.453665 0
M  V30 26 C -1.674405 -1.013089 -2.629844 0
M  V30 27 N -0.375101 -1.340036 -2.717456 0
M  V30 28 C 2.595043 -1.459415 -0.433828 0
M  V30 29 C 2.470379 -1.099916 0.878261 0
M  V30 30 C 2.266928 0.270597 3.392842 0
M  V30 31 H 1.239703 1.457584 4.941065 0
M  V30 32 H 2.592738 0.349503 6.758532 0
M  V30 33 H 4.659032 -2.001649 3.956926 0
M  V30 34 H 5.544639 -1.511135 2.119003 0
M  V30 35 H 5.900860 -2.198527 -0.279140 0
M  V30 36 H 4.446487 -2.484594 -2.772765 0
M  V30 37 H -0.529802 -0.529686 0.323242 0
M  V30 38 H -4.404542 1.959249 -0.148818 0
M  V30 39 H -4.861484 2.814574 2.068129 0
M  V30 40 H -4.036809 1.499811 4.056588 0
M  V30 41 H -2.389169 -1.382505 1.533089 0
M  V30 42 H -5.203770 0.124439 -1.427896 0
M  V30 43 H -4.794561 -0.557764 -3.740061 0
M  V30 44 H -0.058781 -1.654486 -3.663859 0
M  V30 45 H 1.514416 -0.782778 1.247104 0
M  V30 46 H 1.685912 0.744614 2.596744 0
M  V30 END ATOM
M  V30 BEGIN BOND
M  V30 1 2 1 2
M  V30 2 1 2 3
M  V30 3 2 3 4
M  V30 4 1 4 5
M  V30 5 1 5 6
M  V30 6 2 6 7
M  V30 7 1 7 8
M  V30 8 2 8 9
M  V30 9 1 9 10
M  V30 10 1 10 11
M  V30 11 2 11 12
M  V30 12 1 12 13
M  V30 13 2 13 14
M  V30 14 1 14 15
M  V30 15 2 15 16
M  V30 16 1 16 17
M  V30 17 2 17 18
M  V30 18 1 18 19
M  V30 19 2 19 20
M  V30 20 1 20 21
M  V30 21 2 21 22
M  V30 22 1 16 23
M  V30 23 2 23 24
M  V30 24 1 24 25
M  V30 25 2 25 26
M  V30 26 1 26 27
M  V30 27 1 12 28
M  V30 28 2 28 29
M  V30 29 2 5 30
M  V30 30 1 30 1
M  V30 31 1 29 6
M  V30 32 1 28 9
M  V30 33 1 27 13
M  V30 34 1 26 15
M  V30 35 1 22 17
M  V30 36 1 1 31
M  V30 37 1 2 32
M  V30 38 1 4 33
M  V30 39 1 7 34
M  V30 40 1 8 35
M  V30 41 1 10 36
M  V30 42 1 14 37
M  V30 43 1 18 38
M  V30 44 1 19 39
M  V30 45 1 20 40
M  V30 46 1 22 41
M  V30 47 1 23 42
M  V30 48 1 24 43
M  V30 49 1 27 44
M  V30 50 1 29 45
M  V30 51 1 30 46
M  V30 END BOND
M  V30 END CTAB
M  END
>  <Dataset>  (393) 
ChEMBL_Kinases

>  <Ligand_Instance>  (393) 
nan

>  <PDB_ID>  (393) 
nan

>  <Standardized_SMILES>  (393) 
c1cncc(-c2ccc3[nH]nc(-c4cc5c(-c6cccnc6)ccnc5[nH]4)c3c2)c1

>  <Name>  (393) 
nan

>  <Pocket>  (393) 
nan

>  <ATP_Site>  (393) 
nan

>  <Peripheral>  (393) 
nan

>  <Num_H_Atoms_ProtBoundConf>  (393) 
nan

>  <Num_Resolved_Atoms>  (393) 
nan

>  <Num_Not_Resolved_Atoms>  (393) 
nan

$$$$
CHEMBL4779822
     RDKit          3D

  0  0  0  0  0  0  0  0  0  0999 V3000
M  V30 BEGIN CTAB
M  V30 COUNTS 81 87 0 0 0
M  V30 BEGIN ATOM
M  V30 1 C 4.254248 -5.514867 1.030624 0
M  V30 2 N 4.897360 -4.472551 0.251764 0
M  V30 3 C 6.050707 -4.022991 1.046375 0
M  V30 4 C 6.932301 -3.134364 0.208931 0
M  V30 5 C 6.185161 -2.768781 -1.046161 0
M  V30 6 C 5.896302 -3.974520 -1.908288 0
M  V30 7 C 5.380076 -5.071608 -1.001971 0
M  V30 8 C 4.935635 -1.980105 -0.828581 0
M  V30 9 N 5.672582 -0.738408 -1.119814 0
M  V30 10 C 5.401054 0.643419 -0.811569 0
M  V30 11 C 4.224591 0.901967 -0.151869 0
M  V30 12 C 4.014171 2.235734 0.128044 0
M  V30 13 C 2.850601 2.789094 0.817334 0
M  V30 14 O 2.618844 3.978171 1.156025 0
M  V30 15 N 1.772598 1.952556 1.202496 0
M  V30 16 C 0.520942 1.930031 1.831715 0
M  V30 17 C -0.638784 2.092372 1.060648 0
M  V30 18 C -1.922814 2.082446 1.616325 0
M  V30 19 C -3.042711 2.236241 0.844367 0
M  V30 20 C -4.278219 2.208826 1.448584 0
M  V30 21 C -5.554549 2.337288 0.756239 0
M  V30 22 C -6.490018 3.257799 1.219051 0
M  V30 23 N -7.524202 3.155693 0.364760 0
M  V30 24 N -7.235446 2.228488 -0.560550 0
M  V30 25 C -8.206887 1.933316 -1.607545 0
M  V30 26 C -6.002267 1.669658 -0.369924 0
M  V30 27 C -5.395480 0.623844 -1.170984 0
M  V30 28 N -5.510135 -0.727291 -0.693595 0
M  V30 29 C -5.076688 -0.947191 0.644368 0
M  V30 30 C -5.415016 -2.355049 1.107262 0
M  V30 31 C -5.197594 -3.353861 0.025192 0
M  V30 32 C -4.180781 -2.803110 -0.949734 0
M  V30 33 C -4.704638 -1.559883 -1.593307 0
M  V30 34 C -4.296020 2.023070 2.839361 0
M  V30 35 N -3.157987 1.877560 3.546472 0
M  V30 36 C -1.937156 1.899387 2.982263 0
M  V30 37 C -0.829740 1.735760 3.785745 0
M  V30 38 N 0.384845 1.758346 3.161008 0
M  V30 39 C 4.907953 3.222206 -0.224712 0
M  V30 40 C 6.075662 2.868435 -0.892175 0
M  V30 41 N 6.306509 1.558993 -1.180120 0
M  V30 42 C 6.656472 -1.546485 -1.778674 0
M  V30 43 H 4.123264 -5.131035 2.065918 0
M  V30 44 H 4.908922 -6.415537 1.010596 0
M  V30 45 H 3.250127 -5.793482 0.651408 0
M  V30 46 H 5.693042 -3.457065 1.922280 0
M  V30 47 H 6.599952 -4.913697 1.435812 0
M  V30 48 H 7.234689 -2.203219 0.709791 0
M  V30 49 H 7.821865 -3.740184 -0.062496 0
M  V30 50 H 5.068643 -3.759253 -2.623342 0
M  V30 51 H 6.777672 -4.289565 -2.498408 0
M  V30 52 H 4.535992 -5.616973 -1.439609 0
M  V30 53 H 6.237710 -5.723933 -0.726671 0
M  V30 54 H 4.117789 -2.168173 -1.554528 0
M  V30 55 H 4.500040 -1.989959 0.195236 0
M  V30 56 H 3.476193 0.200083 0.159890 0
M  V30 57 H 1.777186 0.911472 1.000641 0
M  V30 58 H -0.576416 2.232699 -0.024969 0
M  V30 59 H -2.973630 2.384163 -0.222016 0
M  V30 60 H -6.443997 3.924993 2.066670 0
M  V30 61 H -8.443886 2.841476 -2.213160 0
M  V30 62 H -9.183614 1.648552 -1.125506 0
M  V30 63 H -7.865516 1.149050 -2.292949 0
M  V30 64 H -4.325246 0.845221 -1.401030 0
M  V30 65 H -5.895974 0.650440 -2.178819 0
M  V30 66 H -5.651802 -0.216282 1.308927 0
M  V30 67 H -4.003449 -0.759345 0.746109 0
M  V30 68 H -6.489498 -2.390009 1.455041 0
M  V30 69 H -4.805689 -2.645160 1.993073 0
M  V30 70 H -6.152447 -3.467683 -0.566599 0
M  V30 71 H -4.870013 -4.354243 0.363970 0
M  V30 72 H -4.040340 -3.622973 -1.713221 0
M  V30 73 H -3.182169 -2.645620 -0.495395 0
M  V30 74 H -5.255894 -1.815067 -2.512972 0
M  V30 75 H -3.804954 -0.929059 -1.836318 0
M  V30 76 H -5.267993 1.998781 3.340727 0
M  V30 77 H -0.943173 1.600021 4.844571 0
M  V30 78 H 4.804316 4.282743 -0.034637 0
M  V30 79 H 6.803720 3.624127 -1.188429 0
M  V30 80 H 7.702264 -1.315299 -1.428330 0
M  V30 81 H 6.561314 -1.587579 -2.885462 0
M  V30 END ATOM
M  V30 BEGIN BOND
M  V30 1 1 1 2
M  V30 2 1 2 3
M  V30 3 1 3 4
M  V30 4 1 4 5
M  V30 5 1 5 6
M  V30 6 1 6 7
M  V30 7 1 5 8
M  V30 8 1 8 9
M  V30 9 1 9 10
M  V30 10 2 10 11
M  V30 11 1 11 12
M  V30 12 1 12 13
M  V30 13 2 13 14
M  V30 14 1 13 15
M  V30 15 1 15 16
M  V30 16 2 16 17
M  V30 17 1 17 18
M  V30 18 2 18 19
M  V30 19 1 19 20
M  V30 20 1 20 21
M  V30 21 1 21 22
M  V30 22 2 22 23
M  V30 23 1 23 24
M  V30 24 1 24 25
M  V30 25 1 24 26
M  V30 26 1 26 27
M  V30 27 1 27 28
M  V30 28 1 28 29
M  V30 29 1 29 30
M  V30 30 1 30 31
M  V30 31 1 31 32
M  V30 32 1 32 33
M  V30 33 2 20 34
M  V30 34 1 34 35
M  V30 35 2 35 36
M  V30 36 1 36 37
M  V30 37 2 37 38
M  V30 38 2 12 39
M  V30 39 1 39 40
M  V30 40 2 40 41
M  V30 41 1 9 42
M  V30 42 1 7 2
M  V30 43 1 41 10
M  V30 44 1 42 5
M  V30 45 1 38 16
M  V30 46 1 36 18
M  V30 47 2 26 21
M  V30 48 1 33 28
M  V30 49 1 1 43
M  V30 50 1 1 44
M  V30 51 1 1 45
M  V30 52 1 3 46
M  V30 53 1 3 47
M  V30 54 1 4 48
M  V30 55 1 4 49
M  V30 56 1 6 50
M  V30 57 1 6 51
M  V30 58 1 7 52
M  V30 59 1 7 53
M  V30 60 1 8 54
M  V30 61 1 8 55
M  V30 62 1 11 56
M  V30 63 1 15 57
M  V30 64 1 17 58
M  V30 65 1 19 59
M  V30 66 1 22 60
M  V30 67 1 25 61
M  V30 68 1 25 62
M  V30 69 1 25 63
M  V30 70 1 27 64
M  V30 71 1 27 65
M  V30 72 1 29 66
M  V30 73 1 29 67
M  V30 74 1 30 68
M  V30 75 1 30 69
M  V30 76 1 31 70
M  V30 77 1 31 71
M  V30 78 1 32 72
M  V30 79 1 32 73
M  V30 80 1 33 74
M  V30 81 1 33 75
M  V30 82 1 34 76
M  V30 83 1 37 77
M  V30 84 1 39 78
M  V30 85 1 40 79
M  V30 86 1 42 80
M  V30 87 1 42 81
M  V30 END BOND
M  V30 END CTAB
M  END
>  <Dataset>  (394) 
ChEMBL_Kinases

>  <Ligand_Instance>  (394) 
nan

>  <PDB_ID>  (394) 
nan

>  <Standardized_SMILES>  (394) 
CN1CCC2(CC1)CN(c1cc(C(=O)Nc3cc4cc(-c5cnn(C)c5CN5CCCCC5)cnc4cn3)ccn1)C2

>  <Name>  (394) 
nan

>  <Pocket>  (394) 
nan

>  <ATP_Site>  (394) 
nan

>  <Peripheral>  (394) 
nan

>  <Num_H_Atoms_ProtBoundConf>  (394) 
nan

>  <Num_Resolved_Atoms>  (394) 
nan

>  <Num_Not_Resolved_Atoms>  (394) 
nan

$$$$
CHEMBL3298194
     RDKit          3D

  0  0  0  0  0  0  0  0  0  0999 V3000
M  V30 BEGIN CTAB
M  V30 COUNTS 51 55 0 0 0
M  V30 BEGIN ATOM
M  V30 1 C -2.731837 -0.084472 1.029006 0
M  V30 2 O -3.076364 -1.432662 0.762218 0
M  V30 3 C -2.107964 -2.401588 0.486443 0
M  V30 4 C -0.749866 -2.166801 0.434131 0
M  V30 5 C 0.205669 -3.119763 0.164538 0
M  V30 6 N 1.595517 -2.822416 0.118429 0
M  V30 7 C 1.930101 -1.443267 0.030442 0
M  V30 8 N 2.306117 -1.058177 -1.224484 0
M  V30 9 C 2.585002 0.255511 -1.133036 0
M  V30 10 C 3.010114 1.194821 -2.052051 0
M  V30 11 C 3.255372 2.528987 -1.797938 0
M  V30 12 C 3.034069 2.897545 -0.472456 0
M  V30 13 C 2.610110 1.985694 0.470016 0
M  V30 14 C 2.360691 2.379934 1.880140 0
M  V30 15 C 3.321668 2.351607 2.866636 0
M  V30 16 C 2.925982 2.756104 4.139656 0
M  V30 17 C 1.622174 3.151872 4.329502 0
M  V30 18 C 0.668274 3.177456 3.341182 0
M  V30 19 N -0.633596 3.509976 3.275905 0
M  V30 20 C -1.088540 3.338847 2.024269 0
M  V30 21 N -0.061443 2.893646 1.296960 0
M  V30 22 C 1.027598 2.779389 2.053578 0
M  V30 23 C 2.377428 0.657723 0.168531 0
M  V30 24 O 1.985030 -0.387415 0.840643 0
M  V30 25 C -0.248714 -4.427740 -0.073966 0
M  V30 26 C -1.600949 -4.678304 -0.026248 0
M  V30 27 O -2.165612 -5.924887 -0.247526 0
M  V30 28 C -1.321729 -7.024258 -0.546462 0
M  V30 29 C -2.556432 -3.707803 0.247133 0
M  V30 30 O -3.925786 -3.931033 0.301326 0
M  V30 31 C -4.704419 -3.774405 -0.879757 0
M  V30 32 H -1.998757 -0.018060 1.875628 0
M  V30 33 H -2.215192 0.333353 0.146801 0
M  V30 34 H -3.621169 0.491222 1.341120 0
M  V30 35 H -0.436840 -1.141450 0.623557 0
M  V30 36 H 2.254032 -3.646813 0.150982 0
M  V30 37 H 3.171072 0.869586 -3.075027 0
M  V30 38 H 3.587505 3.217235 -2.556368 0
M  V30 39 H 3.198896 3.922560 -0.170594 0
M  V30 40 H 4.316455 2.023583 2.602607 0
M  V30 41 H 3.673217 2.742567 4.935719 0
M  V30 42 H 1.291737 3.474617 5.323867 0
M  V30 43 H -1.232534 3.858394 4.076448 0
M  V30 44 H -2.106719 3.525560 1.660214 0
M  V30 45 H 0.442919 -5.224760 -0.290174 0
M  V30 46 H -0.955321 -6.836243 -1.594700 0
M  V30 47 H -1.893558 -7.968598 -0.576567 0
M  V30 48 H -0.446237 -7.073652 0.143688 0
M  V30 49 H -5.724837 -3.403076 -0.689102 0
M  V30 50 H -4.708799 -4.731827 -1.477981 0
M  V30 51 H -4.195834 -3.015027 -1.532218 0
M  V30 END ATOM
M  V30 BEGIN BOND
M  V30 1 1 1 2
M  V30 2 1 2 3
M  V30 3 2 3 4
M  V30 4 1 4 5
M  V30 5 1 5 6
M  V30 6 1 6 7
M  V30 7 2 7 8
M  V30 8 1 8 9
M  V30 9 2 9 10
M  V30 10 1 10 11
M  V30 11 2 11 12
M  V30 12 1 12 13
M  V30 13 1 13 14
M  V30 14 2 14 15
M  V30 15 1 15 16
M  V30 16 2 16 17
M  V30 17 1 17 18
M  V30 18 1 18 19
M  V30 19 1 19 20
M  V30 20 2 20 21
M  V30 21 1 21 22
M  V30 22 2 13 23
M  V30 23 1 23 24
M  V30 24 2 5 25
M  V30 25 1 25 26
M  V30 26 1 26 27
M  V30 27 1 27 28
M  V30 28 2 26 29
M  V30 29 1 29 30
M  V30 30 1 30 31
M  V30 31 1 29 3
M  V30 32 1 24 7
M  V30 33 1 23 9
M  V30 34 1 22 14
M  V30 35 2 22 18
M  V30 36 1 1 32
M  V30 37 1 1 33
M  V30 38 1 1 34
M  V30 39 1 4 35
M  V30 40 1 6 36
M  V30 41 1 10 37
M  V30 42 1 11 38
M  V30 43 1 12 39
M  V30 44 1 15 40
M  V30 45 1 16 41
M  V30 46 1 17 42
M  V30 47 1 19 43
M  V30 48 1 20 44
M  V30 49 1 25 45
M  V30 50 1 28 46
M  V30 51 1 28 47
M  V30 52 1 28 48
M  V30 53 1 31 49
M  V30 54 1 31 50
M  V30 55 1 31 51
M  V30 END BOND
M  V30 END CTAB
M  END
>  <Dataset>  (395) 
ChEMBL_Kinases

>  <Ligand_Instance>  (395) 
nan

>  <PDB_ID>  (395) 
nan

>  <Standardized_SMILES>  (395) 
COc1cc(Nc2nc3cccc(-c4cccc5[nH]cnc45)c3o2)cc(OC)c1OC

>  <Name>  (395) 
nan

>  <Pocket>  (395) 
nan

>  <ATP_Site>  (395) 
nan

>  <Peripheral>  (395) 
nan

>  <Num_H_Atoms_ProtBoundConf>  (395) 
nan

>  <Num_Resolved_Atoms>  (395) 
nan

>  <Num_Not_Resolved_Atoms>  (395) 
nan

$$$$
CHEMBL4208504
     RDKit          3D

  0  0  0  0  0  0  0  0  0  0999 V3000
M  V30 BEGIN CTAB
M  V30 COUNTS 68 72 0 0 0
M  V30 BEGIN ATOM
M  V30 1 C 4.699533 -2.057601 4.891307 0
M  V30 2 C 5.384126 -2.885949 3.837667 0
M  V30 3 N 4.972449 -2.420359 2.528508 0
M  V30 4 C 3.571067 -2.709879 2.276017 0
M  V30 5 C 3.162771 -1.880545 1.080516 0
M  V30 6 N 4.233497 -1.537149 0.209360 0
M  V30 7 C 3.757520 -1.183934 -1.114069 0
M  V30 8 C 2.845643 -0.014340 -1.092098 0
M  V30 9 C 1.477942 -0.063784 -0.949337 0
M  V30 10 N 0.761402 1.068581 -0.949325 0
M  V30 11 C 1.286889 2.294983 -1.082207 0
M  V30 12 N 0.551236 3.507370 -1.085934 0
M  V30 13 C -0.836060 3.684231 -0.948363 0
M  V30 14 C -1.782629 2.704179 -0.762858 0
M  V30 15 C -3.127002 2.905220 -0.633940 0
M  V30 16 C -4.115847 1.867534 -0.436505 0
M  V30 17 C -5.439926 2.237733 -0.322236 0
M  V30 18 C -6.429004 1.293425 -0.130747 0
M  V30 19 F -7.723163 1.665556 -0.019274 0
M  V30 20 C -6.122456 -0.037091 -0.048878 0
M  V30 21 N -6.812199 -1.197337 0.128762 0
M  V30 22 C -5.969239 -2.226549 0.125271 0
M  V30 23 C -6.207213 -3.703129 0.280624 0
M  V30 24 N -4.680087 -1.812617 -0.053420 0
M  V30 25 C -3.453022 -2.560122 -0.123198 0
M  V30 26 C -2.621550 -2.282430 -1.340097 0
M  V30 27 C -2.642397 -2.365730 1.161513 0
M  V30 28 C -4.811935 -0.456626 -0.157273 0
M  V30 29 C -3.829119 0.521641 -0.351106 0
M  V30 30 N -3.553936 4.184526 -0.695773 0
M  V30 31 C -2.667811 5.185149 -0.876502 0
M  V30 32 N -1.363843 4.917768 -0.995173 0
M  V30 33 C 2.660166 2.326304 -1.224135 0
M  V30 34 N 3.400913 1.204412 -1.227447 0
M  V30 35 C 5.357017 -2.410626 0.181871 0
M  V30 36 C 5.708832 -3.075888 1.466251 0
M  V30 37 H 3.640337 -2.356869 5.054367 0
M  V30 38 H 5.199213 -2.270899 5.874203 0
M  V30 39 H 4.820010 -0.976251 4.735756 0
M  V30 40 H 5.127480 -3.953180 3.985339 0
M  V30 41 H 6.477762 -2.730572 3.924925 0
M  V30 42 H 2.916495 -2.463710 3.120096 0
M  V30 43 H 3.444718 -3.790312 1.964812 0
M  V30 44 H 2.624523 -0.981429 1.468035 0
M  V30 45 H 2.431069 -2.473529 0.453029 0
M  V30 46 H 3.309612 -2.093972 -1.551131 0
M  V30 47 H 4.668954 -0.987061 -1.720652 0
M  V30 48 H 1.022849 -1.035384 -0.841060 0
M  V30 49 H 1.121597 4.387984 -1.206962 0
M  V30 50 H -1.461952 1.678372 -0.710709 0
M  V30 51 H -5.745407 3.271858 -0.377680 0
M  V30 52 H -5.912937 -4.045881 1.293784 0
M  V30 53 H -7.298065 -3.849959 0.119404 0
M  V30 54 H -5.678954 -4.276566 -0.485153 0
M  V30 55 H -3.710458 -3.645148 -0.153009 0
M  V30 56 H -3.138818 -1.705750 -2.123217 0
M  V30 57 H -1.654951 -1.824507 -1.005578 0
M  V30 58 H -2.296831 -3.234553 -1.853057 0
M  V30 59 H -1.583865 -2.572793 0.951752 0
M  V30 60 H -3.080563 -3.032541 1.921146 0
M  V30 61 H -2.792671 -1.316555 1.545497 0
M  V30 62 H -2.823512 0.193567 -0.435067 0
M  V30 63 H -2.980154 6.209502 -0.930419 0
M  V30 64 H 3.193764 3.270362 -1.340313 0
M  V30 65 H 6.261939 -1.925723 -0.268323 0
M  V30 66 H 5.122166 -3.238192 -0.552655 0
M  V30 67 H 5.528369 -4.173375 1.456049 0
M  V30 68 H 6.788494 -2.924724 1.673787 0
M  V30 END ATOM
M  V30 BEGIN BOND
M  V30 1 1 1 2
M  V30 2 1 2 3
M  V30 3 1 3 4
M  V30 4 1 4 5
M  V30 5 1 5 6
M  V30 6 1 6 7
M  V30 7 1 7 8
M  V30 8 2 8 9
M  V30 9 1 9 10
M  V30 10 2 10 11
M  V30 11 1 11 12
M  V30 12 1 12 13
M  V30 13 2 13 14
M  V30 14 1 14 15
M  V30 15 1 15 16
M  V30 16 2 16 17
M  V30 17 1 17 18
M  V30 18 1 18 19
M  V30 19 2 18 20
M  V30 20 1 20 21
M  V30 21 2 21 22
M  V30 22 1 22 23
M  V30 23 1 22 24
M  V30 24 1 24 25
M  V30 25 1 25 26
M  V30 26 1 25 27
M  V30 27 1 24 28
M  V30 28 2 28 29
M  V30 29 2 15 30
M  V30 30 1 30 31
M  V30 31 2 31 32
M  V30 32 1 11 33
M  V30 33 2 33 34
M  V30 34 1 6 35
M  V30 35 1 35 36
M  V30 36 1 36 3
M  V30 37 1 34 8
M  V30 38 1 32 13
M  V30 39 1 29 16
M  V30 40 1 28 20
M  V30 41 1 1 37
M  V30 42 1 1 38
M  V30 43 1 1 39
M  V30 44 1 2 40
M  V30 45 1 2 41
M  V30 46 1 4 42
M  V30 47 1 4 43
M  V30 48 1 5 44
M  V30 49 1 5 45
M  V30 50 1 7 46
M  V30 51 1 7 47
M  V30 52 1 9 48
M  V30 53 1 12 49
M  V30 54 1 14 50
M  V30 55 1 17 51
M  V30 56 1 23 52
M  V30 57 1 23 53
M  V30 58 1 23 54
M  V30 59 1 25 55
M  V30 60 1 26 56
M  V30 61 1 26 57
M  V30 62 1 26 58
M  V30 63 1 27 59
M  V30 64 1 27 60
M  V30 65 1 27 61
M  V30 66 1 29 62
M  V30 67 1 31 63
M  V30 68 1 33 64
M  V30 69 1 35 65
M  V30 70 1 35 66
M  V30 71 1 36 67
M  V30 72 1 36 68
M  V30 END BOND
M  V30 END CTAB
M  END
>  <Dataset>  (396) 
ChEMBL_Kinases

>  <Ligand_Instance>  (396) 
nan

>  <PDB_ID>  (396) 
nan

>  <Standardized_SMILES>  (396) 
CCN1CCN(Cc2cnc(Nc3cc(-c4cc(F)c5nc(C)n(C(C)C)c5c4)ncn3)cn2)CC1

>  <Name>  (396) 
nan

>  <Pocket>  (396) 
nan

>  <ATP_Site>  (396) 
nan

>  <Peripheral>  (396) 
nan

>  <Num_H_Atoms_ProtBoundConf>  (396) 
nan

>  <Num_Resolved_Atoms>  (396) 
nan

>  <Num_Not_Resolved_Atoms>  (396) 
nan

$$$$
CHEMBL4208685
     RDKit          3D

  0  0  0  0  0  0  0  0  0  0999 V3000
M  V30 BEGIN CTAB
M  V30 COUNTS 54 59 0 0 0
M  V30 BEGIN ATOM
M  V30 1 C 2.365029 -1.952986 3.762336 0
M  V30 2 O 2.127476 -1.057854 2.706508 0
M  V30 3 C 1.961914 -1.440255 1.388155 0
M  V30 4 C 2.003708 -2.736268 0.914802 0
M  V30 5 C 1.825393 -3.013250 -0.427075 0
M  V30 6 C 1.595908 -2.006110 -1.364652 0
M  V30 7 C 1.553252 -0.708370 -0.895982 0
M  V30 8 C 1.733139 -0.433413 0.455151 0
M  V30 9 C 1.679795 0.970779 0.914817 0
M  V30 10 C 2.656104 1.956685 1.056162 0
M  V30 11 N 2.074770 3.068590 1.516623 0
M  V30 12 N 0.777561 2.882540 1.689107 0
M  V30 13 C -0.229494 3.691981 2.128803 0
M  V30 14 C -1.525749 3.220602 2.209658 0
M  V30 15 C -1.823326 1.903116 1.840559 0
M  V30 16 C -3.222605 1.502338 1.962791 0
M  V30 17 C -3.931311 1.840765 3.120803 0
M  V30 18 C -5.271337 1.491289 3.308432 0
M  V30 19 N -5.908688 0.796638 2.328410 0
M  V30 20 C -5.261751 0.455182 1.205491 0
M  V30 21 N -5.639934 -0.214549 0.102477 0
M  V30 22 C -4.623616 -0.319764 -0.789349 0
M  V30 23 C -3.548644 0.327138 -0.197963 0
M  V30 24 C -3.959538 0.798942 1.031538 0
M  V30 25 C -0.772440 1.130616 1.404869 0
M  V30 26 C 0.507175 1.613740 1.330755 0
M  V30 27 C 1.408296 -2.325457 -2.792796 0
M  V30 28 N 1.215643 -3.732542 -2.981736 0
M  V30 29 C 2.122257 -4.561296 -2.249545 0
M  V30 30 C 3.543535 -4.251660 -2.593428 0
M  V30 31 C 1.904890 -4.464671 -0.740370 0
M  V30 32 H 1.362837 -2.254536 4.144454 0
M  V30 33 H 2.967940 -2.812018 3.459495 0
M  V30 34 H 2.887064 -1.435840 4.603865 0
M  V30 35 H 2.183444 -3.475235 1.677858 0
M  V30 36 H 1.374265 0.097080 -1.615642 0
M  V30 37 H 3.685671 1.736702 0.801413 0
M  V30 38 H 0.013008 4.722954 2.415936 0
M  V30 39 H -2.253405 3.926230 2.566071 0
M  V30 40 H -3.494391 2.389749 3.939879 0
M  V30 41 H -5.802553 1.759086 4.205091 0
M  V30 42 H -6.581869 -0.638061 -0.125529 0
M  V30 43 H -4.652000 -0.808285 -1.759240 0
M  V30 44 H -2.588160 0.417622 -0.656736 0
M  V30 45 H -1.011694 0.135511 1.128951 0
M  V30 46 H 0.453093 -1.829409 -3.128650 0
M  V30 47 H 2.196895 -1.896952 -3.439874 0
M  V30 48 H 0.227389 -4.042211 -2.848274 0
M  V30 49 H 1.933013 -5.614899 -2.575255 0
M  V30 50 H 3.645523 -3.384461 -3.290643 0
M  V30 51 H 4.114868 -3.987737 -1.666411 0
M  V30 52 H 4.087285 -5.092405 -3.080548 0
M  V30 53 H 2.816905 -4.862854 -0.258844 0
M  V30 54 H 0.988416 -5.005981 -0.434019 0
M  V30 END ATOM
M  V30 BEGIN BOND
M  V30 1 1 1 2
M  V30 2 1 2 3
M  V30 3 2 3 4
M  V30 4 1 4 5
M  V30 5 2 5 6
M  V30 6 1 6 7
M  V30 7 2 7 8
M  V30 8 1 8 9
M  V30 9 1 9 10
M  V30 10 2 10 11
M  V30 11 1 11 12
M  V30 12 1 12 13
M  V30 13 2 13 14
M  V30 14 1 14 15
M  V30 15 1 15 16
M  V30 16 2 16 17
M  V30 17 1 17 18
M  V30 18 2 18 19
M  V30 19 1 19 20
M  V30 20 1 20 21
M  V30 21 1 21 22
M  V30 22 2 22 23
M  V30 23 1 23 24
M  V30 24 2 15 25
M  V30 25 1 25 26
M  V30 26 1 6 27
M  V30 27 1 27 28
M  V30 28 1 28 29
M  V30 29 1 29 30
M  V30 30 1 29 31
M  V30 31 1 8 3
M  V30 32 2 26 9
M  V30 33 1 31 5
M  V30 34 1 26 12
M  V30 35 1 24 16
M  V30 36 2 24 20
M  V30 37 1 1 32
M  V30 38 1 1 33
M  V30 39 1 1 34
M  V30 40 1 4 35
M  V30 41 1 7 36
M  V30 42 1 10 37
M  V30 43 1 13 38
M  V30 44 1 14 39
M  V30 45 1 17 40
M  V30 46 1 18 41
M  V30 47 1 21 42
M  V30 48 1 22 43
M  V30 49 1 23 44
M  V30 50 1 25 45
M  V30 51 1 27 46
M  V30 52 1 27 47
M  V30 53 1 28 48
M  V30 54 1 29 49
M  V30 55 1 30 50
M  V30 56 1 30 51
M  V30 57 1 30 52
M  V30 58 1 31 53
M  V30 59 1 31 54
M  V30 END BOND
M  V30 END CTAB
M  END
>  <Dataset>  (397) 
ChEMBL_Kinases

>  <Ligand_Instance>  (397) 
nan

>  <PDB_ID>  (397) 
nan

>  <Standardized_SMILES>  (397) 
COc1cc2c(cc1-c1cnn3ccc(-c4ccnc5[nH]ccc45)cc13)CNC(C)C2

>  <Name>  (397) 
nan

>  <Pocket>  (397) 
nan

>  <ATP_Site>  (397) 
nan

>  <Peripheral>  (397) 
nan

>  <Num_H_Atoms_ProtBoundConf>  (397) 
nan

>  <Num_Resolved_Atoms>  (397) 
nan

>  <Num_Not_Resolved_Atoms>  (397) 
nan

$$$$
CHEMBL4208875
     RDKit          3D

  0  0  0  0  0  0  0  0  0  0999 V3000
M  V30 BEGIN CTAB
M  V30 COUNTS 67 71 0 0 0
M  V30 BEGIN ATOM
M  V30 1 C 2.916125 -1.916721 4.243376 0
M  V30 2 C 3.901815 -2.409723 3.189286 0
M  V30 3 N 3.955135 -1.512038 2.065311 0
M  V30 4 C 4.550229 -0.242707 2.366629 0
M  V30 5 C 4.511681 0.603450 1.096622 0
M  V30 6 C 3.651870 -0.105381 0.044171 0
M  V30 7 O 3.517257 0.657806 -1.108822 0
M  V30 8 C 2.429242 1.380598 -1.523629 0
M  V30 9 C 1.328737 1.392958 -0.669648 0
M  V30 10 N 0.210907 2.089321 -1.012433 0
M  V30 11 C 0.121738 2.777999 -2.159937 0
M  V30 12 N -1.084925 3.510136 -2.467904 0
M  V30 13 C -2.116408 3.364187 -1.475558 0
M  V30 14 C -2.409662 2.084481 -0.981884 0
M  V30 15 C -3.372602 1.930559 -0.012520 0
M  V30 16 C -3.748810 0.642304 0.571104 0
M  V30 17 C -4.727832 0.627681 1.541993 0
M  V30 18 C -5.120814 -0.584586 2.127204 0
M  V30 19 F -6.074916 -0.669316 3.082419 0
M  V30 20 C -4.518603 -1.766198 1.723537 0
M  V30 21 N -4.703099 -3.044572 2.111986 0
M  V30 22 C -3.852947 -3.838816 1.399095 0
M  V30 23 C -3.782698 -5.308727 1.559309 0
M  V30 24 N -3.120831 -3.057057 0.549294 0
M  V30 25 C -2.108868 -3.483801 -0.378901 0
M  V30 26 C -2.323687 -3.061035 -1.791822 0
M  V30 27 C -0.696313 -3.163947 0.102532 0
M  V30 28 C -3.535346 -1.779272 0.753100 0
M  V30 29 C -3.186619 -0.561699 0.210418 0
M  V30 30 N -4.013155 3.027357 0.438919 0
M  V30 31 C -3.734830 4.259727 -0.033243 0
M  V30 32 N -2.788416 4.432393 -0.989239 0
M  V30 33 C 1.221878 2.747492 -2.982708 0
M  V30 34 N 2.341686 2.064722 -2.665475 0
M  V30 35 C 4.376296 -1.402917 -0.319522 0
M  V30 36 C 4.684661 -2.135793 0.986867 0
M  V30 37 H 2.195207 -2.724455 4.496489 0
M  V30 38 H 3.435725 -1.547847 5.132259 0
M  V30 39 H 2.270831 -1.123413 3.764921 0
M  V30 40 H 3.568848 -3.403054 2.835259 0
M  V30 41 H 4.949885 -2.450642 3.605623 0
M  V30 42 H 3.987258 0.319140 3.153938 0
M  V30 43 H 5.588428 -0.350835 2.755915 0
M  V30 44 H 5.523704 0.662938 0.690949 0
M  V30 45 H 4.129917 1.600958 1.308993 0
M  V30 46 H 2.688821 -0.305832 0.582357 0
M  V30 47 H 1.173172 0.925410 0.285821 0
M  V30 48 H -1.082026 4.055980 -3.362318 0
M  V30 49 H -1.924857 1.200691 -1.324815 0
M  V30 50 H -5.221566 1.548290 1.884230 0
M  V30 51 H -4.081367 -5.607064 2.588718 0
M  V30 52 H -2.763863 -5.688880 1.356583 0
M  V30 53 H -4.541082 -5.753379 0.883046 0
M  V30 54 H -2.130146 -4.615045 -0.388578 0
M  V30 55 H -3.298579 -2.559602 -1.986193 0
M  V30 56 H -1.470981 -2.402733 -2.103831 0
M  V30 57 H -2.306867 -3.909710 -2.520318 0
M  V30 58 H 0.019948 -3.949391 -0.274466 0
M  V30 59 H -0.363243 -2.163782 -0.162490 0
M  V30 60 H -0.663650 -3.286552 1.217902 0
M  V30 61 H -2.428767 -0.588166 -0.532546 0
M  V30 62 H -4.304985 5.075854 0.396435 0
M  V30 63 H 1.153854 3.298040 -3.901027 0
M  V30 64 H 3.722650 -1.992756 -0.989653 0
M  V30 65 H 5.292523 -1.109721 -0.859223 0
M  V30 66 H 5.786025 -2.003214 1.161501 0
M  V30 67 H 4.408070 -3.200312 0.819367 0
M  V30 END ATOM
M  V30 BEGIN BOND
M  V30 1 1 1 2
M  V30 2 1 2 3
M  V30 3 1 3 4
M  V30 4 1 4 5
M  V30 5 1 5 6
M  V30 6 1 6 7
M  V30 7 1 7 8
M  V30 8 2 8 9
M  V30 9 1 9 10
M  V30 10 2 10 11
M  V30 11 1 11 12
M  V30 12 1 12 13
M  V30 13 2 13 14
M  V30 14 1 14 15
M  V30 15 1 15 16
M  V30 16 2 16 17
M  V30 17 1 17 18
M  V30 18 1 18 19
M  V30 19 2 18 20
M  V30 20 1 20 21
M  V30 21 2 21 22
M  V30 22 1 22 23
M  V30 23 1 22 24
M  V30 24 1 24 25
M  V30 25 1 25 26
M  V30 26 1 25 27
M  V30 27 1 24 28
M  V30 28 2 28 29
M  V30 29 2 15 30
M  V30 30 1 30 31
M  V30 31 2 31 32
M  V30 32 1 11 33
M  V30 33 2 33 34
M  V30 34 1 6 35
M  V30 35 1 35 36
M  V30 36 1 36 3
M  V30 37 1 34 8
M  V30 38 1 32 13
M  V30 39 1 29 16
M  V30 40 1 28 20
M  V30 41 1 1 37
M  V30 42 1 1 38
M  V30 43 1 1 39
M  V30 44 1 2 40
M  V30 45 1 2 41
M  V30 46 1 4 42
M  V30 47 1 4 43
M  V30 48 1 5 44
M  V30 49 1 5 45
M  V30 50 1 6 46
M  V30 51 1 9 47
M  V30 52 1 12 48
M  V30 53 1 14 49
M  V30 54 1 17 50
M  V30 55 1 23 51
M  V30 56 1 23 52
M  V30 57 1 23 53
M  V30 58 1 25 54
M  V30 59 1 26 55
M  V30 60 1 26 56
M  V30 61 1 26 57
M  V30 62 1 27 58
M  V30 63 1 27 59
M  V30 64 1 27 60
M  V30 65 1 29 61
M  V30 66 1 31 62
M  V30 67 1 33 63
M  V30 68 1 35 64
M  V30 69 1 35 65
M  V30 70 1 36 66
M  V30 71 1 36 67
M  V30 END BOND
M  V30 END CTAB
M  END
>  <Dataset>  (398) 
ChEMBL_Kinases

>  <Ligand_Instance>  (398) 
nan

>  <PDB_ID>  (398) 
nan

>  <Standardized_SMILES>  (398) 
CCN1CCC(Oc2cnc(Nc3cc(-c4cc(F)c5nc(C)n(C(C)C)c5c4)ncn3)cn2)CC1

>  <Name>  (398) 
nan

>  <Pocket>  (398) 
nan

>  <ATP_Site>  (398) 
nan

>  <Peripheral>  (398) 
nan

>  <Num_H_Atoms_ProtBoundConf>  (398) 
nan

>  <Num_Resolved_Atoms>  (398) 
nan

>  <Num_Not_Resolved_Atoms>  (398) 
nan

$$$$
CHEMBL4782319
     RDKit          3D

  0  0  0  0  0  0  0  0  0  0999 V3000
M  V30 BEGIN CTAB
M  V30 COUNTS 72 77 0 0 0
M  V30 BEGIN ATOM
M  V30 1 O -1.436418 -1.650441 5.056368 0
M  V30 2 C -1.210436 -1.942908 3.849667 0
M  V30 3 N -0.591561 -0.824855 3.279612 0
M  V30 4 C -0.201157 0.455606 3.721961 0
M  V30 5 C -1.142528 1.450309 3.555233 0
M  V30 6 C -0.910293 2.755506 3.935161 0
M  V30 7 C 0.332977 3.039985 4.504288 0
M  V30 8 N 0.809415 4.312272 4.968589 0
M  V30 9 C 1.936186 4.972947 5.616150 0
M  V30 10 C 1.290671 6.307951 5.359637 0
M  V30 11 C 0.984771 7.122571 6.584233 0
M  V30 12 O 0.111553 6.443067 7.431768 0
M  V30 13 C 1.925690 7.117646 4.250635 0
M  V30 14 O 3.262539 7.385482 4.542847 0
M  V30 15 C 0.078930 5.584839 4.865238 0
M  V30 16 N 1.279299 2.069187 4.678485 0
M  V30 17 C 1.025922 0.792701 4.296219 0
M  V30 18 C -1.576852 -3.218681 3.315295 0
M  V30 19 N -2.069004 -4.090115 4.207566 0
M  V30 20 N -2.374420 -5.234692 3.582172 0
M  V30 21 C -2.107674 -5.185120 2.268593 0
M  V30 22 C -2.162500 -5.913306 1.108208 0
M  V30 23 C -1.766061 -5.460258 -0.128867 0
M  V30 24 C -1.270131 -4.173974 -0.237778 0
M  V30 25 C -0.835123 -3.629695 -1.520978 0
M  V30 26 C 0.192954 -2.708655 -1.462946 0
M  V30 27 N 0.650779 -2.157564 -2.595562 0
M  V30 28 C 0.124338 -2.488080 -3.789736 0
M  V30 29 C -0.914796 -3.419741 -3.843927 0
M  V30 30 C -1.460385 -3.747064 -5.208351 0
M  V30 31 N -0.817668 -4.837447 -5.841659 0
M  V30 32 C -1.285037 -5.155491 -7.161872 0
M  V30 33 C -0.740834 -4.242713 -8.215661 0
M  V30 34 C 0.499927 -3.522857 -7.805349 0
M  V30 35 C 1.364001 -4.352759 -6.913183 0
M  V30 36 C 0.592461 -4.926356 -5.769079 0
M  V30 37 C -1.410410 -4.003823 -2.718602 0
M  V30 38 C -1.201223 -3.416235 0.907166 0
M  V30 39 C -1.601353 -3.888665 2.126984 0
M  V30 40 H -0.316636 -0.873418 2.285893 0
M  V30 41 H -2.130740 1.320112 3.126384 0
M  V30 42 H -1.560871 3.613166 3.857371 0
M  V30 43 H 1.966954 4.732342 6.711356 0
M  V30 44 H 2.893498 4.922148 5.075946 0
M  V30 45 H 0.400257 8.017403 6.212459 0
M  V30 46 H 1.881050 7.509129 7.111996 0
M  V30 47 H -0.851504 6.671962 7.231162 0
M  V30 48 H 1.332081 8.047495 4.146234 0
M  V30 49 H 1.805018 6.565411 3.288139 0
M  V30 50 H 3.516619 8.215180 4.057358 0
M  V30 51 H -0.799970 5.536111 5.531565 0
M  V30 52 H -0.212990 5.804581 3.797573 0
M  V30 53 H 1.738379 -0.024055 4.409225 0
M  V30 54 H -2.775573 -6.109026 3.987157 0
M  V30 55 H -2.557593 -6.915192 1.239001 0
M  V30 56 H -1.842213 -6.100583 -0.993661 0
M  V30 57 H 0.697432 -2.364105 -0.569000 0
M  V30 58 H 0.497470 -2.041467 -4.695239 0
M  V30 59 H -2.530946 -4.036684 -4.999691 0
M  V30 60 H -1.412393 -2.815393 -5.796429 0
M  V30 61 H -2.416948 -5.152019 -7.173751 0
M  V30 62 H -1.022126 -6.205965 -7.446028 0
M  V30 63 H -1.527254 -3.488016 -8.457028 0
M  V30 64 H -0.542438 -4.823161 -9.139800 0
M  V30 65 H 1.072522 -3.323599 -8.754793 0
M  V30 66 H 0.324682 -2.509462 -7.386236 0
M  V30 67 H 2.273487 -3.796286 -6.585855 0
M  V30 68 H 1.782629 -5.199543 -7.526982 0
M  V30 69 H 1.011428 -4.532938 -4.802421 0
M  V30 70 H 0.845638 -6.031749 -5.710655 0
M  V30 71 H -2.216019 -4.724471 -2.747697 0
M  V30 72 H -0.817209 -2.424612 0.788558 0
M  V30 END ATOM
M  V30 BEGIN BOND
M  V30 1 2 1 2
M  V30 2 1 2 3
M  V30 3 1 3 4
M  V30 4 2 4 5
M  V30 5 1 5 6
M  V30 6 2 6 7
M  V30 7 1 7 8
M  V30 8 1 8 9
M  V30 9 1 9 10
M  V30 10 1 10 11
M  V30 11 1 11 12
M  V30 12 1 10 13
M  V30 13 1 13 14
M  V30 14 1 10 15
M  V30 15 1 7 16
M  V30 16 2 16 17
M  V30 17 1 2 18
M  V30 18 2 18 19
M  V30 19 1 19 20
M  V30 20 1 20 21
M  V30 21 2 21 22
M  V30 22 1 22 23
M  V30 23 2 23 24
M  V30 24 1 24 25
M  V30 25 2 25 26
M  V30 26 1 26 27
M  V30 27 2 27 28
M  V30 28 1 28 29
M  V30 29 1 29 30
M  V30 30 1 30 31
M  V30 31 1 31 32
M  V30 32 1 32 33
M  V30 33 1 33 34
M  V30 34 1 34 35
M  V30 35 1 35 36
M  V30 36 2 29 37
M  V30 37 1 24 38
M  V30 38 2 38 39
M  V30 39 1 17 4
M  V30 40 1 39 18
M  V30 41 1 15 8
M  V30 42 1 39 21
M  V30 43 1 37 25
M  V30 44 1 36 31
M  V30 45 1 3 40
M  V30 46 1 5 41
M  V30 47 1 6 42
M  V30 48 1 9 43
M  V30 49 1 9 44
M  V30 50 1 11 45
M  V30 51 1 11 46
M  V30 52 1 12 47
M  V30 53 1 13 48
M  V30 54 1 13 49
M  V30 55 1 14 50
M  V30 56 1 15 51
M  V30 57 1 15 52
M  V30 58 1 17 53
M  V30 59 1 20 54
M  V30 60 1 22 55
M  V30 61 1 23 56
M  V30 62 1 26 57
M  V30 63 1 28 58
M  V30 64 1 30 59
M  V30 65 1 30 60
M  V30 66 1 32 61
M  V30 67 1 32 62
M  V30 68 1 33 63
M  V30 69 1 33 64
M  V30 70 1 34 65
M  V30 71 1 34 66
M  V30 72 1 35 67
M  V30 73 1 35 68
M  V30 74 1 36 69
M  V30 75 1 36 70
M  V30 76 1 37 71
M  V30 77 1 38 72
M  V30 END BOND
M  V30 END CTAB
M  END
>  <Dataset>  (399) 
ChEMBL_Kinases

>  <Ligand_Instance>  (399) 
nan

>  <PDB_ID>  (399) 
nan

>  <Standardized_SMILES>  (399) 
O=C(Nc1ccc(N2CC(CO)(CO)C2)nc1)c1n[nH]c2ccc(-c3cncc(CN4CCCCC4)c3)cc12

>  <Name>  (399) 
nan

>  <Pocket>  (399) 
nan

>  <ATP_Site>  (399) 
nan

>  <Peripheral>  (399) 
nan

>  <Num_H_Atoms_ProtBoundConf>  (399) 
nan

>  <Num_Resolved_Atoms>  (399) 
nan

>  <Num_Not_Resolved_Atoms>  (399) 
nan

$$$$
CHEMBL4782289
     RDKit          3D

  0  0  0  0  0  0  0  0  0  0999 V3000
M  V30 BEGIN CTAB
M  V30 COUNTS 75 81 0 0 0
M  V30 BEGIN ATOM
M  V30 1 C 6.575250 -2.801905 5.217972 0
M  V30 2 S 7.857617 -1.554568 5.054476 0
M  V30 3 O 8.013843 -0.924625 6.408807 0
M  V30 4 O 9.135431 -2.168894 4.610265 0
M  V30 5 N 7.268241 -0.346329 3.952882 0
M  V30 6 C 7.012902 -0.924380 2.645862 0
M  V30 7 C 6.501490 0.100694 1.673443 0
M  V30 8 C 7.374725 0.840299 0.878334 0
M  V30 9 C 6.855005 1.767201 0.002947 0
M  V30 10 F 7.737961 2.464359 -0.751553 0
M  V30 11 C 5.478130 1.964924 -0.088865 0
M  V30 12 C 4.586735 1.230809 0.702131 0
M  V30 13 C 3.158932 1.486590 0.559192 0
M  V30 14 N 2.741884 2.773794 0.517107 0
M  V30 15 C 1.439405 3.082805 0.386367 0
M  V30 16 C 0.437883 2.137650 0.286058 0
M  V30 17 C 0.843496 0.806340 0.326910 0
M  V30 18 N 0.180798 -0.384259 0.259828 0
M  V30 19 C 1.045932 -1.407419 0.346261 0
M  V30 20 C 0.765898 -2.844536 0.317982 0
M  V30 21 N 1.674994 -3.850064 0.408807 0
M  V30 22 N 1.069765 -5.025688 0.348824 0
M  V30 23 C -0.249930 -4.801788 0.217288 0
M  V30 24 C -1.287338 -5.691261 0.114514 0
M  V30 25 C -2.575048 -5.157505 -0.013528 0
M  V30 26 C -2.792227 -3.796459 -0.035512 0
M  V30 27 C -4.140464 -3.257938 -0.169421 0
M  V30 28 C -5.289103 -3.977043 -0.282879 0
M  V30 29 N -6.505732 -3.408202 -0.403714 0
M  V30 30 C -6.635067 -2.067338 -0.417213 0
M  V30 31 C -5.536683 -1.240139 -0.308803 0
M  V30 32 C -5.573050 0.245477 -0.313143 0
M  V30 33 N -5.439623 0.697834 -1.684904 0
M  V30 34 C -5.476858 2.169619 -1.653751 0
M  V30 35 C -5.115514 2.605979 -3.061570 0
M  V30 36 C -6.130337 2.159454 -4.063765 0
M  V30 37 C -6.727390 0.829034 -3.797980 0
M  V30 38 C -6.569462 0.265335 -2.438422 0
M  V30 39 C -4.304849 -1.874900 -0.186391 0
M  V30 40 N -1.727351 -2.980177 0.069940 0
M  V30 41 C -0.470721 -3.442096 0.194939 0
M  V30 42 C 2.305074 -0.857913 0.472902 0
M  V30 43 C 2.184166 0.515743 0.461474 0
M  V30 44 C 5.164796 0.326954 1.550506 0
M  V30 45 H 6.871784 -3.620454 5.876572 0
M  V30 46 H 6.389985 -3.193178 4.187005 0
M  V30 47 H 5.635681 -2.274633 5.518709 0
M  V30 48 H 7.921404 0.457751 3.885326 0
M  V30 49 H 6.208511 -1.683222 2.720839 0
M  V30 50 H 7.903469 -1.395212 2.220206 0
M  V30 51 H 8.436814 0.633298 1.003095 0
M  V30 52 H 5.126154 2.707502 -0.794716 0
M  V30 53 H 1.143400 4.111043 0.356574 0
M  V30 54 H -0.603921 2.307487 0.181527 0
M  V30 55 H -0.864403 -0.501245 0.154735 0
M  V30 56 H 1.511418 -5.974205 0.393039 0
M  V30 57 H -1.138820 -6.763873 0.129505 0
M  V30 58 H -3.360870 -5.877912 -0.091377 0
M  V30 59 H -5.210960 -5.054101 -0.274575 0
M  V30 60 H -7.590009 -1.606261 -0.512150 0
M  V30 61 H -4.772260 0.679866 0.316026 0
M  V30 62 H -6.564072 0.553604 0.081387 0
M  V30 63 H -6.502449 2.498286 -1.397494 0
M  V30 64 H -4.725522 2.558898 -0.966072 0
M  V30 65 H -4.105791 2.183652 -3.285446 0
M  V30 66 H -5.012433 3.697680 -3.049305 0
M  V30 67 H -5.618773 2.127844 -5.048514 0
M  V30 68 H -6.879756 2.986483 -4.160673 0
M  V30 69 H -6.438399 0.076777 -4.588188 0
M  V30 70 H -7.839675 0.944527 -3.963746 0
M  V30 71 H -6.472649 -0.853251 -2.545711 0
M  V30 72 H -7.469937 0.434625 -1.796423 0
M  V30 73 H -3.414420 -1.235406 -0.098166 0
M  V30 74 H 3.209060 -1.441318 0.562670 0
M  V30 75 H 4.519948 -0.251633 2.171581 0
M  V30 END ATOM
M  V30 BEGIN BOND
M  V30 1 1 1 2
M  V30 2 2 2 3
M  V30 3 2 2 4
M  V30 4 1 2 5
M  V30 5 1 5 6
M  V30 6 1 6 7
M  V30 7 2 7 8
M  V30 8 1 8 9
M  V30 9 1 9 10
M  V30 10 2 9 11
M  V30 11 1 11 12
M  V30 12 1 12 13
M  V30 13 2 13 14
M  V30 14 1 14 15
M  V30 15 2 15 16
M  V30 16 1 16 17
M  V30 17 1 17 18
M  V30 18 1 18 19
M  V30 19 1 19 20
M  V30 20 2 20 21
M  V30 21 1 21 22
M  V30 22 1 22 23
M  V30 23 2 23 24
M  V30 24 1 24 25
M  V30 25 2 25 26
M  V30 26 1 26 27
M  V30 27 2 27 28
M  V30 28 1 28 29
M  V30 29 2 29 30
M  V30 30 1 30 31
M  V30 31 1 31 32
M  V30 32 1 32 33
M  V30 33 1 33 34
M  V30 34 1 34 35
M  V30 35 1 35 36
M  V30 36 1 36 37
M  V30 37 1 37 38
M  V30 38 2 31 39
M  V30 39 1 26 40
M  V30 40 2 40 41
M  V30 41 2 19 42
M  V30 42 1 42 43
M  V30 43 2 12 44
M  V30 44 1 44 7
M  V30 45 1 43 13
M  V30 46 2 43 17
M  V30 47 1 41 20
M  V30 48 1 41 23
M  V30 49 1 39 27
M  V30 50 1 38 33
M  V30 51 1 1 45
M  V30 52 1 1 46
M  V30 53 1 1 47
M  V30 54 1 5 48
M  V30 55 1 6 49
M  V30 56 1 6 50
M  V30 57 1 8 51
M  V30 58 1 11 52
M  V30 59 1 15 53
M  V30 60 1 16 54
M  V30 61 1 18 55
M  V30 62 1 22 56
M  V30 63 1 24 57
M  V30 64 1 25 58
M  V30 65 1 28 59
M  V30 66 1 30 60
M  V30 67 1 32 61
M  V30 68 1 32 62
M  V30 69 1 34 63
M  V30 70 1 34 64
M  V30 71 1 35 65
M  V30 72 1 35 66
M  V30 73 1 36 67
M  V30 74 1 36 68
M  V30 75 1 37 69
M  V30 76 1 37 70
M  V30 77 1 38 71
M  V30 78 1 38 72
M  V30 79 1 39 73
M  V30 80 1 42 74
M  V30 81 1 44 75
M  V30 END BOND
M  V30 END CTAB
M  END
>  <Dataset>  (400) 
ChEMBL_Kinases

>  <Ligand_Instance>  (400) 
nan

>  <PDB_ID>  (400) 
nan

>  <Standardized_SMILES>  (400) 
CS(=O)(=O)NCc1cc(F)cc(-c2nccc3[nH]c(-c4n[nH]c5ccc(-c6cncc(CN7CCCCC7)c6)nc45)cc23)c1

>  <Name>  (400) 
nan

>  <Pocket>  (400) 
nan

>  <ATP_Site>  (400) 
nan

>  <Peripheral>  (400) 
nan

>  <Num_H_Atoms_ProtBoundConf>  (400) 
nan

>  <Num_Resolved_Atoms>  (400) 
nan

>  <Num_Not_Resolved_Atoms>  (400) 
nan

$$$$
CHEMBL4782218
     RDKit          3D

  0  0  0  0  0  0  0  0  0  0999 V3000
M  V30 BEGIN CTAB
M  V30 COUNTS 57 63 0 0 0
M  V30 BEGIN ATOM
M  V30 1 O 4.311522 -4.625145 0.287547 0
M  V30 2 C 3.507689 -5.090467 1.165163 0
M  V30 3 N 3.055765 -4.647923 2.438996 0
M  V30 4 C 3.686227 -3.383924 2.747214 0
M  V30 5 C 4.901856 -3.317487 3.421129 0
M  V30 6 N 5.407505 -2.090260 3.660490 0
M  V30 7 C 4.764872 -0.954644 3.264287 0
M  V30 8 C 3.556318 -0.974526 2.592758 0
M  V30 9 C 2.958825 0.292193 2.216894 0
M  V30 10 C 1.767463 0.404579 1.550707 0
M  V30 11 C 1.196862 1.603549 1.192248 0
M  V30 12 C 0.029346 1.900814 0.532948 0
M  V30 13 C -1.010617 1.059789 -0.016325 0
M  V30 14 C -2.125359 1.605110 -0.655339 0
M  V30 15 C -2.989065 0.647906 -1.103016 0
M  V30 16 C -4.186108 0.659038 -1.767515 0
M  V30 17 C -4.799943 1.920481 -2.162010 0
M  V30 18 C -4.263390 3.027078 -2.789546 0
M  V30 19 C -5.085060 4.106159 -3.042347 0
M  V30 20 C -6.421469 4.121068 -2.692194 0
M  V30 21 N -6.935735 3.030349 -2.077745 0
M  V30 22 C -6.157655 1.963890 -1.818730 0
M  V30 23 C -4.825825 -0.522367 -2.080114 0
M  V30 24 C -4.247648 -1.720342 -1.716737 0
M  V30 25 C -3.041956 -1.724709 -1.047956 0
M  V30 26 C -2.406278 -0.542688 -0.737459 0
M  V30 27 N -1.266558 -0.237292 -0.113917 0
M  V30 28 N 0.067177 3.253660 0.507437 0
M  V30 29 N 1.144941 3.725291 1.090378 0
M  V30 30 C 1.905752 2.730657 1.547575 0
M  V30 31 C 3.104882 2.614776 2.218194 0
M  V30 32 N 3.620606 1.410002 2.546352 0
M  V30 33 C 3.056848 -2.217922 2.357354 0
M  V30 34 C 3.037064 -6.372807 0.559648 0
M  V30 35 C 1.545204 -6.688957 0.698091 0
M  V30 36 C 2.586814 -7.506634 1.382540 0
M  V30 37 H 2.377260 -5.298069 2.894527 0
M  V30 38 H 5.397823 -4.223115 3.727938 0
M  V30 39 H 5.304895 -0.046037 3.533639 0
M  V30 40 H 1.279989 -0.520064 1.311530 0
M  V30 41 H -2.354473 2.668237 -0.816900 0
M  V30 42 H -3.231601 2.907592 -3.016325 0
M  V30 43 H -4.611380 4.951686 -3.538706 0
M  V30 44 H -7.010142 4.997969 -2.918781 0
M  V30 45 H -6.711485 1.171530 -1.324296 0
M  V30 46 H -5.771586 -0.535860 -2.604121 0
M  V30 47 H -4.744401 -2.664742 -1.958497 0
M  V30 48 H -2.570358 -2.656215 -0.753291 0
M  V30 49 H -0.659299 -0.972826 0.249349 0
M  V30 50 H 1.348761 4.745078 1.168572 0
M  V30 51 H 3.619136 3.510713 2.473288 0
M  V30 52 H 2.113306 -2.292632 1.835101 0
M  V30 53 H 3.452922 -6.611499 -0.426339 0
M  V30 54 H 0.906799 -6.022851 1.306181 0
M  V30 55 H 1.030755 -7.165701 -0.139980 0
M  V30 56 H 2.609745 -7.391816 2.494009 0
M  V30 57 H 2.834474 -8.523426 1.037192 0
M  V30 END ATOM
M  V30 BEGIN BOND
M  V30 1 2 1 2
M  V30 2 1 2 3
M  V30 3 1 3 4
M  V30 4 2 4 5
M  V30 5 1 5 6
M  V30 6 2 6 7
M  V30 7 1 7 8
M  V30 8 1 8 9
M  V30 9 2 9 10
M  V30 10 1 10 11
M  V30 11 1 11 12
M  V30 12 1 12 13
M  V30 13 2 13 14
M  V30 14 1 14 15
M  V30 15 2 15 16
M  V30 16 1 16 17
M  V30 17 2 17 18
M  V30 18 1 18 19
M  V30 19 2 19 20
M  V30 20 1 20 21
M  V30 21 2 21 22
M  V30 22 1 16 23
M  V30 23 2 23 24
M  V30 24 1 24 25
M  V30 25 2 25 26
M  V30 26 1 26 27
M  V30 27 2 12 28
M  V30 28 1 28 29
M  V30 29 1 29 30
M  V30 30 1 30 31
M  V30 31 2 31 32
M  V30 32 2 8 33
M  V30 33 1 2 34
M  V30 34 1 34 35
M  V30 35 1 35 36
M  V30 36 1 33 4
M  V30 37 1 36 34
M  V30 38 1 32 9
M  V30 39 2 30 11
M  V30 40 1 27 13
M  V30 41 1 26 15
M  V30 42 1 22 17
M  V30 43 1 3 37
M  V30 44 1 5 38
M  V30 45 1 7 39
M  V30 46 1 10 40
M  V30 47 1 14 41
M  V30 48 1 18 42
M  V30 49 1 19 43
M  V30 50 1 20 44
M  V30 51 1 22 45
M  V30 52 1 23 46
M  V30 53 1 24 47
M  V30 54 1 25 48
M  V30 55 1 27 49
M  V30 56 1 29 50
M  V30 57 1 31 51
M  V30 58 1 33 52
M  V30 59 1 34 53
M  V30 60 1 35 54
M  V30 61 1 35 55
M  V30 62 1 36 56
M  V30 63 1 36 57
M  V30 END BOND
M  V30 END CTAB
M  END
>  <Dataset>  (401) 
ChEMBL_Kinases

>  <Ligand_Instance>  (401) 
nan

>  <PDB_ID>  (401) 
nan

>  <Standardized_SMILES>  (401) 
O=C(Nc1cncc(-c2cc3c(-c4cc5c(-c6cccnc6)cccc5[nH]4)n[nH]c3cn2)c1)C1CC1

>  <Name>  (401) 
nan

>  <Pocket>  (401) 
nan

>  <ATP_Site>  (401) 
nan

>  <Peripheral>  (401) 
nan

>  <Num_H_Atoms_ProtBoundConf>  (401) 
nan

>  <Num_Resolved_Atoms>  (401) 
nan

>  <Num_Not_Resolved_Atoms>  (401) 
nan

$$$$
CHEMBL4782145
     RDKit          3D

  0  0  0  0  0  0  0  0  0  0999 V3000
M  V30 BEGIN CTAB
M  V30 COUNTS 67 73 0 0 0
M  V30 BEGIN ATOM
M  V30 1 O 2.727524 -2.172173 -3.597700 0
M  V30 2 C 3.989669 -1.944422 -3.692749 0
M  V30 3 C 4.256786 -3.137448 -4.516991 0
M  V30 4 C 3.061705 -4.061789 -4.586413 0
M  V30 5 C 3.496170 -5.198801 -5.497475 0
M  V30 6 C 2.629953 -6.424660 -5.355987 0
M  V30 7 N 2.704383 -6.973597 -4.018090 0
M  V30 8 C 3.347929 -6.037697 -3.113867 0
M  V30 9 C 2.726060 -4.658499 -3.249638 0
M  V30 10 N 4.591120 -0.836490 -3.088143 0
M  V30 11 C 3.469849 -0.186603 -2.450057 0
M  V30 12 C 2.817896 0.720736 -3.261440 0
M  V30 13 N 1.740188 1.345888 -2.706995 0
M  V30 14 C 1.397832 1.043151 -1.443089 0
M  V30 15 C 2.025688 0.150936 -0.620347 0
M  V30 16 C 1.612085 -0.163043 0.739373 0
M  V30 17 C 0.508131 0.395364 1.345847 0
M  V30 18 C 0.111419 0.087466 2.618846 0
M  V30 19 C -0.944269 0.533291 3.370275 0
M  V30 20 C -2.016124 1.455623 3.114604 0
M  V30 21 N -2.980170 1.691083 4.042093 0
M  V30 22 C -3.868629 2.568175 3.564546 0
M  V30 23 C -5.010055 3.074797 4.192448 0
M  V30 24 C -5.352712 2.651983 5.564044 0
M  V30 25 C -5.759372 3.680631 6.418215 0
M  V30 26 C -6.073951 3.303931 7.703457 0
M  V30 27 C -5.988183 1.983838 8.109883 0
M  V30 28 C -5.582460 1.003343 7.232166 0
M  V30 29 F -5.482508 -0.315290 7.595616 0
M  V30 30 C -5.249089 1.321251 5.914853 0
M  V30 31 C -5.814733 3.979194 3.526599 0
M  V30 32 C -5.400928 4.317769 2.241902 0
M  V30 33 N -4.293478 3.804539 1.676909 0
M  V30 34 C -3.490769 2.928362 2.288539 0
M  V30 35 N -2.375835 2.217320 2.101831 0
M  V30 36 N -0.761625 -0.166136 4.529399 0
M  V30 37 N 0.284148 -0.940909 4.474879 0
M  V30 38 C 0.891128 -0.831937 3.285758 0
M  V30 39 C 2.003795 -1.416343 2.721906 0
M  V30 40 N 2.311239 -1.050471 1.467998 0
M  V30 41 C 3.116155 -0.494609 -1.153692 0
M  V30 42 H 5.173815 -3.602723 -4.157484 0
M  V30 43 H 4.459348 -2.785490 -5.559420 0
M  V30 44 H 2.194986 -3.537611 -4.980651 0
M  V30 45 H 3.414257 -4.896353 -6.583728 0
M  V30 46 H 4.547497 -5.437897 -5.307141 0
M  V30 47 H 3.009777 -7.193845 -6.052079 0
M  V30 48 H 1.572131 -6.234875 -5.606083 0
M  V30 49 H 1.822070 -7.377874 -3.662761 0
M  V30 50 H 4.437141 -5.990718 -3.311377 0
M  V30 51 H 3.212133 -6.442330 -2.091070 0
M  V30 52 H 3.022098 -4.060204 -2.375374 0
M  V30 53 H 1.630702 -4.830462 -3.216893 0
M  V30 54 H 5.600020 -0.943181 -3.351463 0
M  V30 55 H 3.131575 0.933884 -4.280077 0
M  V30 56 H 0.535770 1.587731 -1.096406 0
M  V30 57 H -0.047797 1.102362 0.768235 0
M  V30 58 H -5.815030 4.698152 6.060026 0
M  V30 59 H -6.388111 4.108790 8.359924 0
M  V30 60 H -6.240740 1.719688 9.121603 0
M  V30 61 H -4.923375 0.595734 5.179568 0
M  V30 62 H -6.701502 4.401191 3.953258 0
M  V30 63 H -5.999138 5.031291 1.667592 0
M  V30 64 H -1.895466 2.317170 1.207253 0
M  V30 65 H 0.588393 -1.554452 5.265003 0
M  V30 66 H 2.594598 -2.134605 3.276066 0
M  V30 67 H 3.699646 -1.221341 -0.611059 0
M  V30 END ATOM
M  V30 BEGIN BOND
M  V30 1 2 1 2
M  V30 2 1 2 3
M  V30 3 1 3 4
M  V30 4 1 4 5
M  V30 5 1 5 6
M  V30 6 1 6 7
M  V30 7 1 7 8
M  V30 8 1 8 9
M  V30 9 1 2 10
M  V30 10 1 10 11
M  V30 11 2 11 12
M  V30 12 1 12 13
M  V30 13 2 13 14
M  V30 14 1 14 15
M  V30 15 1 15 16
M  V30 16 2 16 17
M  V30 17 1 17 18
M  V30 18 1 18 19
M  V30 19 1 19 20
M  V30 20 2 20 21
M  V30 21 1 21 22
M  V30 22 2 22 23
M  V30 23 1 23 24
M  V30 24 2 24 25
M  V30 25 1 25 26
M  V30 26 2 26 27
M  V30 27 1 27 28
M  V30 28 1 28 29
M  V30 29 2 28 30
M  V30 30 1 23 31
M  V30 31 2 31 32
M  V30 32 1 32 33
M  V30 33 2 33 34
M  V30 34 1 34 35
M  V30 35 2 19 36
M  V30 36 1 36 37
M  V30 37 1 37 38
M  V30 38 1 38 39
M  V30 39 2 39 40
M  V30 40 2 15 41
M  V30 41 1 9 4
M  V30 42 1 41 11
M  V30 43 1 40 16
M  V30 44 2 38 18
M  V30 45 1 35 20
M  V30 46 1 34 22
M  V30 47 1 30 24
M  V30 48 1 3 42
M  V30 49 1 3 43
M  V30 50 1 4 44
M  V30 51 1 5 45
M  V30 52 1 5 46
M  V30 53 1 6 47
M  V30 54 1 6 48
M  V30 55 1 7 49
M  V30 56 1 8 50
M  V30 57 1 8 51
M  V30 58 1 9 52
M  V30 59 1 9 53
M  V30 60 1 10 54
M  V30 61 1 12 55
M  V30 62 1 14 56
M  V30 63 1 17 57
M  V30 64 1 25 58
M  V30 65 1 26 59
M  V30 66 1 27 60
M  V30 67 1 30 61
M  V30 68 1 31 62
M  V30 69 1 32 63
M  V30 70 1 35 64
M  V30 71 1 37 65
M  V30 72 1 39 66
M  V30 73 1 41 67
M  V30 END BOND
M  V30 END CTAB
M  END
>  <Dataset>  (402) 
ChEMBL_Kinases

>  <Ligand_Instance>  (402) 
nan

>  <PDB_ID>  (402) 
nan

>  <Standardized_SMILES>  (402) 
O=C(CC1CCNCC1)Nc1cncc(-c2cc3c(-c4nc5c(-c6cccc(F)c6)ccnc5[nH]4)n[nH]c3cn2)c1

>  <Name>  (402) 
nan

>  <Pocket>  (402) 
nan

>  <ATP_Site>  (402) 
nan

>  <Peripheral>  (402) 
nan

>  <Num_H_Atoms_ProtBoundConf>  (402) 
nan

>  <Num_Resolved_Atoms>  (402) 
nan

>  <Num_Not_Resolved_Atoms>  (402) 
nan

$$$$
CHEMBL4782101
     RDKit          3D

  0  0  0  0  0  0  0  0  0  0999 V3000
M  V30 BEGIN CTAB
M  V30 COUNTS 70 76 0 0 0
M  V30 BEGIN ATOM
M  V30 1 C 6.129159 2.268249 6.418323 0
M  V30 2 N 5.625712 0.976095 6.079745 0
M  V30 3 C 6.168802 0.458754 4.839929 0
M  V30 4 C 5.174894 0.584603 3.701061 0
M  V30 5 N 4.044875 -0.276445 3.972756 0
M  V30 6 C 3.205805 -1.122527 3.195061 0
M  V30 7 N 3.093234 -2.444369 3.418488 0
M  V30 8 C 2.302249 -3.246977 2.686153 0
M  V30 9 C 1.567218 -2.694814 1.653489 0
M  V30 10 C 1.656665 -1.344627 1.394581 0
M  V30 11 N 1.087467 -0.534250 0.490809 0
M  V30 12 C 1.453471 0.743109 0.583684 0
M  V30 13 C 1.158167 1.980594 -0.107501 0
M  V30 14 N 1.672951 3.198099 0.180622 0
M  V30 15 N 1.209790 4.126172 -0.627670 0
M  V30 16 C 0.350626 3.597937 -1.516557 0
M  V30 17 N -0.379562 4.098390 -2.529675 0
M  V30 18 C -1.173093 3.299902 -3.266486 0
M  V30 19 C -1.241667 1.951286 -2.983044 0
M  V30 20 C -2.087925 1.049961 -3.754876 0
M  V30 21 C -2.366741 1.219275 -5.092538 0
M  V30 22 N -3.161982 0.356267 -5.783792 0
M  V30 23 C -3.709714 -0.716061 -5.150572 0
M  V30 24 C -3.481327 -0.963042 -3.803478 0
M  V30 25 N -4.037027 -2.073581 -3.110879 0
M  V30 26 C -5.238111 -2.278063 -2.389906 0
M  V30 27 O -5.986796 -1.267431 -2.342857 0
M  V30 28 C -5.272666 -3.654849 -1.884647 0
M  V30 29 C -5.215471 -4.716210 -2.948572 0
M  V30 30 C -6.195171 -5.791102 -2.540215 0
M  V30 31 C -6.966888 -5.293924 -1.354878 0
M  V30 32 C -6.543382 -3.858435 -1.122867 0
M  V30 33 C -2.658548 -0.046069 -3.144008 0
M  V30 34 C -0.482230 1.467699 -1.939396 0
M  V30 35 C 0.336273 2.263325 -1.171755 0
M  V30 36 C 2.341086 0.712307 1.658416 0
M  V30 37 C 2.479247 -0.556603 2.168815 0
M  V30 38 C 3.661643 -0.296611 5.357395 0
M  V30 39 C 4.180926 0.911031 6.109819 0
M  V30 40 H 6.457902 2.832048 5.522904 0
M  V30 41 H 5.449772 2.921388 6.970650 0
M  V30 42 H 7.010401 2.119423 7.100188 0
M  V30 43 H 6.478199 -0.573279 4.989014 0
M  V30 44 H 7.058500 1.070765 4.594908 0
M  V30 45 H 5.672786 0.223516 2.782558 0
M  V30 46 H 4.810707 1.609764 3.577896 0
M  V30 47 H 2.237216 -4.322381 2.899743 0
M  V30 48 H 0.915840 -3.295393 1.034145 0
M  V30 49 H 0.433188 -0.898958 -0.196523 0
M  V30 50 H 1.504922 5.122999 -0.543616 0
M  V30 51 H -1.760111 3.733941 -4.089627 0
M  V30 52 H -1.935417 2.074110 -5.615090 0
M  V30 53 H -4.336842 -1.389085 -5.713358 0
M  V30 54 H -3.223116 -2.703756 -3.327917 0
M  V30 55 H -4.420777 -3.874938 -1.180321 0
M  V30 56 H -5.471796 -4.279373 -3.951794 0
M  V30 57 H -4.217843 -5.189797 -3.055554 0
M  V30 58 H -6.924974 -6.018175 -3.349005 0
M  V30 59 H -5.674275 -6.751008 -2.256183 0
M  V30 60 H -8.054562 -5.429222 -1.456767 0
M  V30 61 H -6.666762 -5.852933 -0.424666 0
M  V30 62 H -7.379814 -3.220321 -1.496387 0
M  V30 63 H -6.435390 -3.622248 -0.030871 0
M  V30 64 H -2.459151 -0.206195 -2.096180 0
M  V30 65 H -0.552225 0.423623 -1.740705 0
M  V30 66 H 2.899620 1.527875 2.108130 0
M  V30 67 H 3.988644 -1.214297 5.884872 0
M  V30 68 H 2.546473 -0.264077 5.499950 0
M  V30 69 H 3.835467 0.870560 7.161800 0
M  V30 70 H 3.793230 1.854035 5.673329 0
M  V30 END ATOM
M  V30 BEGIN BOND
M  V30 1 1 1 2
M  V30 2 1 2 3
M  V30 3 1 3 4
M  V30 4 1 4 5
M  V30 5 1 5 6
M  V30 6 2 6 7
M  V30 7 1 7 8
M  V30 8 2 8 9
M  V30 9 1 9 10
M  V30 10 1 10 11
M  V30 11 1 11 12
M  V30 12 1 12 13
M  V30 13 2 13 14
M  V30 14 1 14 15
M  V30 15 1 15 16
M  V30 16 2 16 17
M  V30 17 1 17 18
M  V30 18 2 18 19
M  V30 19 1 19 20
M  V30 20 2 20 21
M  V30 21 1 21 22
M  V30 22 2 22 23
M  V30 23 1 23 24
M  V30 24 1 24 25
M  V30 25 1 25 26
M  V30 26 2 26 27
M  V30 27 1 26 28
M  V30 28 1 28 29
M  V30 29 1 29 30
M  V30 30 1 30 31
M  V30 31 1 31 32
M  V30 32 2 24 33
M  V30 33 1 19 34
M  V30 34 2 34 35
M  V30 35 2 12 36
M  V30 36 1 36 37
M  V30 37 1 5 38
M  V30 38 1 38 39
M  V30 39 1 39 2
M  V30 40 1 37 6
M  V30 41 2 37 10
M  V30 42 1 35 13
M  V30 43 1 35 16
M  V30 44 1 33 20
M  V30 45 1 32 28
M  V30 46 1 1 40
M  V30 47 1 1 41
M  V30 48 1 1 42
M  V30 49 1 3 43
M  V30 50 1 3 44
M  V30 51 1 4 45
M  V30 52 1 4 46
M  V30 53 1 8 47
M  V30 54 1 9 48
M  V30 55 1 11 49
M  V30 56 1 15 50
M  V30 57 1 18 51
M  V30 58 1 21 52
M  V30 59 1 23 53
M  V30 60 1 25 54
M  V30 61 1 28 55
M  V30 62 1 29 56
M  V30 63 1 29 57
M  V30 64 1 30 58
M  V30 65 1 30 59
M  V30 66 1 31 60
M  V30 67 1 31 61
M  V30 68 1 32 62
M  V30 69 1 32 63
M  V30 70 1 33 64
M  V30 71 1 34 65
M  V30 72 1 36 66
M  V30 73 1 38 67
M  V30 74 1 38 68
M  V30 75 1 39 69
M  V30 76 1 39 70
M  V30 END BOND
M  V30 END CTAB
M  END
>  <Dataset>  (403) 
ChEMBL_Kinases

>  <Ligand_Instance>  (403) 
nan

>  <PDB_ID>  (403) 
nan

>  <Standardized_SMILES>  (403) 
CN1CCN(c2nccc3[nH]c(-c4n[nH]c5ncc(-c6cncc(NC(=O)C7CCCC7)c6)cc45)cc23)CC1

>  <Name>  (403) 
nan

>  <Pocket>  (403) 
nan

>  <ATP_Site>  (403) 
nan

>  <Peripheral>  (403) 
nan

>  <Num_H_Atoms_ProtBoundConf>  (403) 
nan

>  <Num_Resolved_Atoms>  (403) 
nan

>  <Num_Not_Resolved_Atoms>  (403) 
nan

$$$$
CHEMBL4782086
     RDKit          3D

  0  0  0  0  0  0  0  0  0  0999 V3000
M  V30 BEGIN CTAB
M  V30 COUNTS 57 62 0 0 0
M  V30 BEGIN ATOM
M  V30 1 C 2.203894 0.013819 2.964124 0
M  V30 2 N 3.509164 -0.168710 2.408106 0
M  V30 3 C 4.300424 -1.139802 3.099860 0
M  V30 4 C 3.571037 -0.379537 0.994723 0
M  V30 5 C 3.041782 0.714456 0.171405 0
M  V30 6 C 4.014289 1.688349 -0.085312 0
M  V30 7 N 3.686394 2.772284 -0.846398 0
M  V30 8 C 2.434091 2.884768 -1.336061 0
M  V30 9 C 1.442370 1.973485 -1.123655 0
M  V30 10 C 0.083450 2.067769 -1.637177 0
M  V30 11 C -0.298302 3.141503 -2.405285 0
M  V30 12 C -1.595135 3.269399 -2.916396 0
M  V30 13 C -2.510039 2.275127 -2.630627 0
M  V30 14 N -3.795429 2.151963 -2.989142 0
M  V30 15 N -4.231643 1.013919 -2.457841 0
M  V30 16 C -3.235740 0.431266 -1.776229 0
M  V30 17 C -3.347427 -0.835222 -1.063303 0
M  V30 18 C -2.415209 -1.532758 -0.338499 0
M  V30 19 C -2.994968 -2.686060 0.147831 0
M  V30 20 C -2.535048 -3.733716 0.920474 0
M  V30 21 C -1.168079 -3.773147 1.402168 0
M  V30 22 C -0.078798 -4.332186 0.765498 0
M  V30 23 C 1.171950 -4.293607 1.348806 0
M  V30 24 C 1.313074 -3.685126 2.581483 0
M  V30 25 C 0.246430 -3.111389 3.255768 0
M  V30 26 C -1.010721 -3.162038 2.646497 0
M  V30 27 F -2.018317 -2.585119 3.350705 0
M  V30 28 C -3.432222 -4.741857 1.214354 0
M  V30 29 N -4.709829 -4.747974 0.789245 0
M  V30 30 C -5.189467 -3.730419 0.027682 0
M  V30 31 C -4.307831 -2.711279 -0.277926 0
M  V30 32 N -4.473172 -1.591828 -0.994439 0
M  V30 33 C -2.106465 1.219885 -1.866355 0
M  V30 34 N -0.838310 1.109220 -1.374973 0
M  V30 35 C 1.787300 0.880746 -0.351529 0
M  V30 36 H 1.396286 0.050280 2.212539 0
M  V30 37 H 2.012799 -0.850885 3.661709 0
M  V30 38 H 2.196950 0.961280 3.558767 0
M  V30 39 H 4.171061 -1.114778 4.198378 0
M  V30 40 H 4.165270 -2.187057 2.757676 0
M  V30 41 H 5.375007 -0.845328 2.928564 0
M  V30 42 H 4.627683 -0.631236 0.755651 0
M  V30 43 H 2.985835 -1.308669 0.720699 0
M  V30 44 H 5.031413 1.674326 0.266092 0
M  V30 45 H 2.222207 3.755117 -1.929853 0
M  V30 46 H 0.343202 3.944960 -2.669767 0
M  V30 47 H -1.909439 4.111490 -3.524252 0
M  V30 48 H -4.377529 2.802065 -3.571830 0
M  V30 49 H -1.400998 -1.229323 -0.177241 0
M  V30 50 H -0.276437 -4.784913 -0.189585 0
M  V30 51 H 2.020490 -4.731687 0.848006 0
M  V30 52 H 2.268416 -3.624996 3.086221 0
M  V30 53 H 0.367849 -2.628902 4.237496 0
M  V30 54 H -3.138817 -5.588124 1.812553 0
M  V30 55 H -6.228418 -3.720956 -0.326821 0
M  V30 56 H -5.389597 -1.336811 -1.452346 0
M  V30 57 H 1.085284 0.104213 -0.129142 0
M  V30 END ATOM
M  V30 BEGIN BOND
M  V30 1 1 1 2
M  V30 2 1 2 3
M  V30 3 1 2 4
M  V30 4 1 4 5
M  V30 5 2 5 6
M  V30 6 1 6 7
M  V30 7 2 7 8
M  V30 8 1 8 9
M  V30 9 1 9 10
M  V30 10 2 10 11
M  V30 11 1 11 12
M  V30 12 2 12 13
M  V30 13 1 13 14
M  V30 14 1 14 15
M  V30 15 2 15 16
M  V30 16 1 16 17
M  V30 17 2 17 18
M  V30 18 1 18 19
M  V30 19 2 19 20
M  V30 20 1 20 21
M  V30 21 2 21 22
M  V30 22 1 22 23
M  V30 23 2 23 24
M  V30 24 1 24 25
M  V30 25 2 25 26
M  V30 26 1 26 27
M  V30 27 1 20 28
M  V30 28 2 28 29
M  V30 29 1 29 30
M  V30 30 2 30 31
M  V30 31 1 31 32
M  V30 32 1 16 33
M  V30 33 2 33 34
M  V30 34 2 9 35
M  V30 35 1 35 5
M  V30 36 1 34 10
M  V30 37 1 33 13
M  V30 38 1 32 17
M  V30 39 1 31 19
M  V30 40 1 26 21
M  V30 41 1 1 36
M  V30 42 1 1 37
M  V30 43 1 1 38
M  V30 44 1 3 39
M  V30 45 1 3 40
M  V30 46 1 3 41
M  V30 47 1 4 42
M  V30 48 1 4 43
M  V30 49 1 6 44
M  V30 50 1 8 45
M  V30 51 1 11 46
M  V30 52 1 12 47
M  V30 53 1 14 48
M  V30 54 1 18 49
M  V30 55 1 22 50
M  V30 56 1 23 51
M  V30 57 1 24 52
M  V30 58 1 25 53
M  V30 59 1 28 54
M  V30 60 1 30 55
M  V30 61 1 32 56
M  V30 62 1 35 57
M  V30 END BOND
M  V30 END CTAB
M  END
>  <Dataset>  (404) 
ChEMBL_Kinases

>  <Ligand_Instance>  (404) 
nan

>  <PDB_ID>  (404) 
nan

>  <Standardized_SMILES>  (404) 
CN(C)Cc1cncc(-c2ccc3[nH]nc(-c4cc5c(-c6ccccc6F)cncc5[nH]4)c3n2)c1

>  <Name>  (404) 
nan

>  <Pocket>  (404) 
nan

>  <ATP_Site>  (404) 
nan

>  <Peripheral>  (404) 
nan

>  <Num_H_Atoms_ProtBoundConf>  (404) 
nan

>  <Num_Resolved_Atoms>  (404) 
nan

>  <Num_Not_Resolved_Atoms>  (404) 
nan

$$$$
CHEMBL3297762
     RDKit          3D

  0  0  0  0  0  0  0  0  0  0999 V3000
M  V30 BEGIN CTAB
M  V30 COUNTS 74 78 0 0 0
M  V30 BEGIN ATOM
M  V30 1 C -4.010007 0.295608 5.661168 0
M  V30 2 N -3.238075 -0.058178 4.504895 0
M  V30 3 C -1.841045 0.108084 4.748177 0
M  V30 4 C -1.087294 -0.448624 3.589774 0
M  V30 5 N -1.496372 0.071882 2.296597 0
M  V30 6 C -0.336512 0.516609 1.628205 0
M  V30 7 C -0.445968 1.077494 0.265630 0 CFG=1
M  V30 8 N -1.032942 0.070164 -0.616965 0
M  V30 9 C -0.260569 -0.592572 -1.611352 0
M  V30 10 O 0.978333 -0.325836 -1.762903 0
M  V30 11 C -0.919039 -1.615510 -2.487305 0
M  V30 12 C 0.066888 -2.217508 -3.460414 0 CFG=1
M  V30 13 C 0.686088 -1.218537 -4.368541 0
M  V30 14 N 2.077596 -1.398298 -4.652695 0
M  V30 15 C 2.990022 -2.231491 -3.948826 0
M  V30 16 O 4.224789 -2.222690 -4.170550 0
M  V30 17 C 2.412177 -3.113449 -2.938119 0
M  V30 18 C 2.904390 -4.037061 -2.070793 0
M  V30 19 C 1.823511 -4.546763 -1.359570 0
M  V30 20 C 2.007551 -5.569017 -0.338483 0
M  V30 21 C 3.167584 -5.616255 0.418382 0
M  V30 22 C 3.343739 -6.575663 1.377746 0
M  V30 23 C 2.386244 -7.534375 1.637896 0
M  V30 24 C 1.218464 -7.519110 0.904562 0
M  V30 25 Cl -0.100911 -8.673977 1.115421 0
M  V30 26 C 1.053634 -6.542752 -0.062786 0
M  V30 27 C 0.703216 -3.900162 -1.833384 0
M  V30 28 N 1.077554 -3.018059 -2.806924 0
M  V30 29 C -0.959110 2.446670 0.090005 0
M  V30 30 C -0.066855 3.435379 0.820225 0
M  V30 31 C -0.234674 4.847965 0.311735 0
M  V30 32 C 0.282267 5.002943 -1.084633 0
M  V30 33 C 0.402407 3.608406 -1.671321 0
M  V30 34 C -0.838248 2.790837 -1.405067 0
M  V30 35 C -2.637872 0.907125 2.319194 0
M  V30 36 C -3.709819 0.475289 3.281665 0
M  V30 37 H -5.060354 -0.092096 5.608595 0
M  V30 38 H -4.149832 1.415960 5.675503 0
M  V30 39 H -3.526407 0.032985 6.599761 0
M  V30 40 H -1.592923 -0.551696 5.624719 0
M  V30 41 H -1.559865 1.122059 5.066633 0
M  V30 42 H -1.253874 -1.545618 3.560416 0
M  V30 43 H -0.002715 -0.304631 3.776673 0
M  V30 44 H 0.398009 -0.348447 1.656432 0
M  V30 45 H 0.179625 1.267335 2.308983 0
M  V30 46 H 0.639029 1.123980 -0.133187 0
M  V30 47 H -2.024417 -0.191604 -0.546805 0
M  V30 48 H -1.391533 -2.421139 -1.929704 0
M  V30 49 H -1.686738 -1.082911 -3.069941 0
M  V30 50 H -0.536869 -2.930895 -4.076165 0
M  V30 51 H 0.469164 -0.172305 -4.035459 0
M  V30 52 H 0.166105 -1.280503 -5.366418 0
M  V30 53 H 2.472004 -0.865580 -5.458523 0
M  V30 54 H 3.953920 -4.293239 -1.987957 0
M  V30 55 H 3.966195 -4.892794 0.268267 0
M  V30 56 H 4.229630 -6.649747 1.989271 0
M  V30 57 H 2.466994 -8.327177 2.391584 0
M  V30 58 H 0.129065 -6.513289 -0.658394 0
M  V30 59 H -0.248454 -4.195394 -1.365373 0
M  V30 60 H -1.983168 2.667355 0.370214 0
M  V30 61 H 1.005278 3.171706 0.696844 0
M  V30 62 H -0.252072 3.455417 1.912927 0
M  V30 63 H -1.296479 5.193479 0.407808 0
M  V30 64 H 0.336818 5.513080 0.986107 0
M  V30 65 H -0.446176 5.615496 -1.637429 0
M  V30 66 H 1.234803 5.533719 -1.069543 0
M  V30 67 H 0.467850 3.704635 -2.781581 0
M  V30 68 H 1.309152 3.096334 -1.321207 0
M  V30 69 H -0.810314 1.881525 -2.028536 0
M  V30 70 H -1.726456 3.388123 -1.749594 0
M  V30 71 H -2.368199 1.945698 2.587993 0
M  V30 72 H -3.113705 0.848135 1.311119 0
M  V30 73 H -4.324113 1.387699 3.518776 0
M  V30 74 H -4.423910 -0.199430 2.768008 0
M  V30 END ATOM
M  V30 BEGIN BOND
M  V30 1 1 1 2
M  V30 2 1 2 3
M  V30 3 1 3 4
M  V30 4 1 4 5
M  V30 5 1 5 6
M  V30 6 1 6 7
M  V30 7 1 7 8
M  V30 8 1 8 9
M  V30 9 2 9 10
M  V30 10 1 9 11
M  V30 11 1 11 12
M  V30 12 1 12 13
M  V30 13 1 13 14
M  V30 14 1 14 15
M  V30 15 2 15 16
M  V30 16 1 15 17
M  V30 17 2 17 18
M  V30 18 1 18 19
M  V30 19 1 19 20
M  V30 20 2 20 21
M  V30 21 1 21 22
M  V30 22 2 22 23
M  V30 23 1 23 24
M  V30 24 1 24 25
M  V30 25 2 24 26
M  V30 26 2 19 27
M  V30 27 1 27 28
M  V30 28 1 7 29
M  V30 29 1 29 30
M  V30 30 1 30 31
M  V30 31 1 31 32
M  V30 32 1 32 33
M  V30 33 1 33 34
M  V30 34 1 5 35
M  V30 35 1 35 36
M  V30 36 1 36 2
M  V30 37 1 28 12
M  V30 38 1 34 29
M  V30 39 1 28 17
M  V30 40 1 26 20
M  V30 41 1 1 37
M  V30 42 1 1 38
M  V30 43 1 1 39
M  V30 44 1 3 40
M  V30 45 1 3 41
M  V30 46 1 4 42
M  V30 47 1 4 43
M  V30 48 1 6 44
M  V30 49 1 6 45
M  V30 50 1 7 46 CFG=3
M  V30 51 1 8 47
M  V30 52 1 11 48
M  V30 53 1 11 49
M  V30 54 1 12 50 CFG=3
M  V30 55 1 13 51
M  V30 56 1 13 52
M  V30 57 1 14 53
M  V30 58 1 18 54
M  V30 59 1 21 55
M  V30 60 1 22 56
M  V30 61 1 23 57
M  V30 62 1 26 58
M  V30 63 1 27 59
M  V30 64 1 29 60
M  V30 65 1 30 61
M  V30 66 1 30 62
M  V30 67 1 31 63
M  V30 68 1 31 64
M  V30 69 1 32 65
M  V30 70 1 32 66
M  V30 71 1 33 67
M  V30 72 1 33 68
M  V30 73 1 34 69
M  V30 74 1 34 70
M  V30 75 1 35 71
M  V30 76 1 35 72
M  V30 77 1 36 73
M  V30 78 1 36 74
M  V30 END BOND
M  V30 END CTAB
M  END
>  <Dataset>  (405) 
ChEMBL_Kinases

>  <Ligand_Instance>  (405) 
nan

>  <PDB_ID>  (405) 
nan

>  <Standardized_SMILES>  (405) 
CN1CCN(C[C@@H](NC(=O)C[C@H]2CNC(=O)c3cc(-c4cccc(Cl)c4)cn32)C2CCCCC2)CC1

>  <Name>  (405) 
nan

>  <Pocket>  (405) 
nan

>  <ATP_Site>  (405) 
nan

>  <Peripheral>  (405) 
nan

>  <Num_H_Atoms_ProtBoundConf>  (405) 
nan

>  <Num_Resolved_Atoms>  (405) 
nan

>  <Num_Not_Resolved_Atoms>  (405) 
nan

$$$$
CHEMBL4781998
     RDKit          3D

  0  0  0  0  0  0  0  0  0  0999 V3000
M  V30 BEGIN CTAB
M  V30 COUNTS 44 49 0 0 0
M  V30 BEGIN ATOM
M  V30 1 C -0.916569 -0.094933 -3.287559 0
M  V30 2 C -0.382547 -0.756704 -4.373959 0
M  V30 3 N 0.951284 -0.727109 -4.577233 0
M  V30 4 C 1.755287 -0.055949 -3.724894 0
M  V30 5 C 1.248238 0.626645 -2.612280 0
M  V30 6 C 2.323465 1.266828 -1.863549 0
M  V30 7 C 3.289466 2.014662 -2.544994 0
M  V30 8 C 4.269279 2.594175 -1.767204 0
M  V30 9 N 4.320852 2.466689 -0.430360 0
M  V30 10 C 3.410042 1.755037 0.264205 0
M  V30 11 N 3.177669 1.436138 1.548558 0
M  V30 12 C 2.086398 0.663099 1.713093 0
M  V30 13 C 1.684743 0.223224 3.030889 0
M  V30 14 N 2.334953 0.531289 4.166908 0
M  V30 15 N 1.756143 0.001899 5.220797 0
M  V30 16 C 0.674827 -0.698405 4.853092 0
M  V30 17 C -0.275745 -1.437008 5.525282 0
M  V30 18 N -1.253271 -2.021545 4.800083 0
M  V30 19 C -1.325072 -1.906347 3.466964 0
M  V30 20 C -2.425368 -2.582008 2.793993 0
M  V30 21 C -3.324113 -3.296124 3.557198 0
M  V30 22 N -4.387881 -3.964753 3.031115 0
M  V30 23 C -4.578087 -3.933335 1.715124 0
M  V30 24 N -3.727874 -3.249642 0.927260 0
M  V30 25 C -2.665956 -2.580296 1.437219 0
M  V30 26 C -0.379669 -1.174272 2.818747 0
M  V30 27 C 0.638547 -0.551454 3.461201 0
M  V30 28 C 1.632988 0.508501 0.432912 0
M  V30 29 C 2.418481 1.164621 -0.490569 0
M  V30 30 C -0.114651 0.596659 -2.404486 0
M  V30 31 H -1.967370 -0.047979 -3.022580 0
M  V30 32 H -1.101775 -1.273557 -5.011666 0
M  V30 33 H 2.791955 -0.129987 -4.027682 0
M  V30 34 H 3.282377 2.140599 -3.618486 0
M  V30 35 H 5.066092 3.193648 -2.186224 0
M  V30 36 H 3.862696 1.823884 2.234919 0
M  V30 37 H 2.119291 0.132890 6.187625 0
M  V30 38 H -0.207742 -1.523613 6.605801 0
M  V30 39 H -3.249142 -3.379219 4.648228 0
M  V30 40 H -5.365029 -4.406928 1.155666 0
M  V30 41 H -1.978183 -2.028806 0.812639 0
M  V30 42 H -0.449102 -1.092543 1.770007 0
M  V30 43 H 0.771258 -0.055223 0.164861 0
M  V30 44 H -0.393300 1.156431 -1.523077 0
M  V30 END ATOM
M  V30 BEGIN BOND
M  V30 1 2 1 2
M  V30 2 1 2 3
M  V30 3 2 3 4
M  V30 4 1 4 5
M  V30 5 1 5 6
M  V30 6 2 6 7
M  V30 7 1 7 8
M  V30 8 2 8 9
M  V30 9 1 9 10
M  V30 10 1 10 11
M  V30 11 1 11 12
M  V30 12 1 12 13
M  V30 13 2 13 14
M  V30 14 1 14 15
M  V30 15 1 15 16
M  V30 16 2 16 17
M  V30 17 1 17 18
M  V30 18 2 18 19
M  V30 19 1 19 20
M  V30 20 2 20 21
M  V30 21 1 21 22
M  V30 22 2 22 23
M  V30 23 1 23 24
M  V30 24 2 24 25
M  V30 25 1 19 26
M  V30 26 2 26 27
M  V30 27 2 12 28
M  V30 28 1 28 29
M  V30 29 2 5 30
M  V30 30 1 30 1
M  V30 31 1 29 6
M  V30 32 2 29 10
M  V30 33 1 27 13
M  V30 34 1 27 16
M  V30 35 1 25 20
M  V30 36 1 1 31
M  V30 37 1 2 32
M  V30 38 1 4 33
M  V30 39 1 7 34
M  V30 40 1 8 35
M  V30 41 1 11 36
M  V30 42 1 15 37
M  V30 43 1 17 38
M  V30 44 1 21 39
M  V30 45 1 23 40
M  V30 46 1 25 41
M  V30 47 1 26 42
M  V30 48 1 28 43
M  V30 49 1 30 44
M  V30 END BOND
M  V30 END CTAB
M  END
>  <Dataset>  (406) 
ChEMBL_Kinases

>  <Ligand_Instance>  (406) 
nan

>  <PDB_ID>  (406) 
nan

>  <Standardized_SMILES>  (406) 
c1cncc(-c2ccnc3[nH]c(-c4n[nH]c5cnc(-c6cncnc6)cc45)cc23)c1

>  <Name>  (406) 
nan

>  <Pocket>  (406) 
nan

>  <ATP_Site>  (406) 
nan

>  <Peripheral>  (406) 
nan

>  <Num_H_Atoms_ProtBoundConf>  (406) 
nan

>  <Num_Resolved_Atoms>  (406) 
nan

>  <Num_Not_Resolved_Atoms>  (406) 
nan

$$$$
CHEMBL4781707
     RDKit          3D

  0  0  0  0  0  0  0  0  0  0999 V3000
M  V30 BEGIN CTAB
M  V30 COUNTS 59 63 0 0 0
M  V30 BEGIN ATOM
M  V30 1 O 0.129496 -4.928166 -0.433398 0
M  V30 2 C 0.605240 -5.615494 0.519282 0
M  V30 3 N 1.982544 -5.269367 0.764569 0
M  V30 4 C 2.369694 -4.252104 -0.156210 0
M  V30 5 C 2.159993 -2.959567 0.284030 0
M  V30 6 C 2.523417 -1.923073 -0.582533 0
M  V30 7 C 2.334996 -0.616633 -0.192029 0
M  V30 8 C 2.657792 0.484354 -0.968128 0
M  V30 9 C 2.422517 1.838998 -0.474051 0
M  V30 10 C 3.170261 2.958404 -0.781978 0
M  V30 11 N 2.855166 4.160279 -0.263790 0
M  V30 12 C 1.809076 4.316910 0.566825 0
M  V30 13 C 0.989080 3.249862 0.941820 0
M  V30 14 C -0.171457 3.381721 1.854978 0
M  V30 15 N -1.410931 3.678586 1.172636 0
M  V30 16 C -2.454243 3.779128 2.148646 0
M  V30 17 C -3.841827 3.818152 1.598904 0
M  V30 18 C -4.076217 2.785376 0.519577 0
M  V30 19 O -5.270126 3.093283 -0.129543 0
M  V30 20 C -2.959443 2.930145 -0.507083 0
M  V30 21 C -1.675862 2.604776 0.240824 0
M  V30 22 C 1.358727 2.046490 0.381869 0
M  V30 23 C 3.200439 0.198519 -2.204099 0
M  V30 24 C 3.410372 -1.090114 -2.644390 0
M  V30 25 C 3.075823 -2.167262 -1.842199 0
M  V30 26 C 3.252215 -3.485540 -2.205385 0
M  V30 27 N 2.901789 -4.496129 -1.369435 0
M  V30 28 C -0.114680 -6.635790 1.293990 0
M  V30 29 C 0.394686 -7.389868 2.330704 0
M  V30 30 C -0.422793 -8.312338 2.957413 0
M  V30 31 C -1.747456 -8.479578 2.547146 0
M  V30 32 F -2.505994 -9.408449 3.207599 0
M  V30 33 C -2.260854 -7.714414 1.496714 0
M  V30 34 C -1.436176 -6.805614 0.887871 0
M  V30 35 H 2.494219 -5.778930 1.541922 0
M  V30 36 H 1.739293 -2.711943 1.241383 0
M  V30 37 H 1.911826 -0.457377 0.774194 0
M  V30 38 H 4.005839 2.807766 -1.451496 0
M  V30 39 H 1.579742 5.298064 0.968765 0
M  V30 40 H -0.305359 2.375151 2.336809 0
M  V30 41 H 0.029374 4.096102 2.686446 0
M  V30 42 H -2.311931 4.757114 2.695572 0
M  V30 43 H -2.371095 2.965446 2.927435 0
M  V30 44 H -4.157841 4.826576 1.255675 0
M  V30 45 H -4.524264 3.524948 2.447277 0
M  V30 46 H -4.087124 1.767458 0.945263 0
M  V30 47 H -5.914649 2.321700 -0.083127 0
M  V30 48 H -3.096104 2.232539 -1.343244 0
M  V30 49 H -2.917121 3.974983 -0.846702 0
M  V30 50 H -1.730700 1.665235 0.799867 0
M  V30 51 H -0.874282 2.541676 -0.523635 0
M  V30 52 H 0.721298 1.194791 0.668159 0
M  V30 53 H 3.468285 1.047122 -2.845967 0
M  V30 54 H 3.845079 -1.294386 -3.635133 0
M  V30 55 H 3.681847 -3.701997 -3.184180 0
M  V30 56 H 1.423578 -7.198043 2.583032 0
M  V30 57 H 0.042048 -8.865126 3.757966 0
M  V30 58 H -3.296628 -7.908918 1.244164 0
M  V30 59 H -1.941728 -6.270373 0.087956 0
M  V30 END ATOM
M  V30 BEGIN BOND
M  V30 1 2 1 2
M  V30 2 1 2 3
M  V30 3 1 3 4
M  V30 4 2 4 5
M  V30 5 1 5 6
M  V30 6 2 6 7
M  V30 7 1 7 8
M  V30 8 1 8 9
M  V30 9 2 9 10
M  V30 10 1 10 11
M  V30 11 2 11 12
M  V30 12 1 12 13
M  V30 13 1 13 14
M  V30 14 1 14 15
M  V30 15 1 15 16
M  V30 16 1 16 17
M  V30 17 1 17 18
M  V30 18 1 18 19
M  V30 19 1 18 20
M  V30 20 1 20 21
M  V30 21 2 13 22
M  V30 22 2 8 23
M  V30 23 1 23 24
M  V30 24 2 24 25
M  V30 25 1 25 26
M  V30 26 2 26 27
M  V30 27 1 2 28
M  V30 28 2 28 29
M  V30 29 1 29 30
M  V30 30 2 30 31
M  V30 31 1 31 32
M  V30 32 1 31 33
M  V30 33 2 33 34
M  V30 34 1 27 4
M  V30 35 1 34 28
M  V30 36 1 25 6
M  V30 37 1 22 9
M  V30 38 1 21 15
M  V30 39 1 3 35
M  V30 40 1 5 36
M  V30 41 1 7 37
M  V30 42 1 10 38
M  V30 43 1 12 39
M  V30 44 1 14 40
M  V30 45 1 14 41
M  V30 46 1 16 42
M  V30 47 1 16 43
M  V30 48 1 17 44
M  V30 49 1 17 45
M  V30 50 1 18 46
M  V30 51 1 19 47
M  V30 52 1 20 48
M  V30 53 1 20 49
M  V30 54 1 21 50
M  V30 55 1 21 51
M  V30 56 1 22 52
M  V30 57 1 23 53
M  V30 58 1 24 54
M  V30 59 1 26 55
M  V30 60 1 29 56
M  V30 61 1 30 57
M  V30 62 1 33 58
M  V30 63 1 34 59
M  V30 END BOND
M  V30 END CTAB
M  END
>  <Dataset>  (407) 
ChEMBL_Kinases

>  <Ligand_Instance>  (407) 
nan

>  <PDB_ID>  (407) 
nan

>  <Standardized_SMILES>  (407) 
O=C(Nc1cc2cc(-c3cncc(CN4CCC(O)CC4)c3)ccc2cn1)c1ccc(F)cc1

>  <Name>  (407) 
nan

>  <Pocket>  (407) 
nan

>  <ATP_Site>  (407) 
nan

>  <Peripheral>  (407) 
nan

>  <Num_H_Atoms_ProtBoundConf>  (407) 
nan

>  <Num_Resolved_Atoms>  (407) 
nan

>  <Num_Not_Resolved_Atoms>  (407) 
nan

$$$$
CHEMBL4781555
     RDKit          3D

  0  0  0  0  0  0  0  0  0  0999 V3000
M  V30 BEGIN CTAB
M  V30 COUNTS 56 61 0 0 0
M  V30 BEGIN ATOM
M  V30 1 C 3.274608 -3.418822 3.277524 0
M  V30 2 C 3.792301 -2.441872 2.218528 0
M  V30 3 C 4.118154 -3.307096 1.006975 0
M  V30 4 N 2.785082 -1.487066 1.833935 0
M  V30 5 C 3.002307 -0.460406 0.877427 0
M  V30 6 C 4.208044 -0.291177 0.233702 0
M  V30 7 N 4.345430 0.710532 -0.668893 0
M  V30 8 C 3.353633 1.568376 -0.980888 0
M  V30 9 C 2.116238 1.442153 -0.360269 0
M  V30 10 C 0.953665 2.295560 -0.596683 0
M  V30 11 C 1.150025 3.623114 -0.922401 0
M  V30 12 N 0.107463 4.451935 -1.150289 0
M  V30 13 C -1.162945 3.964851 -1.056045 0
M  V30 14 N -2.378847 4.538799 -1.224053 0
M  V30 15 N -3.301316 3.612210 -1.013263 0
M  V30 16 C -2.742634 2.438787 -0.710131 0
M  V30 17 C -3.431098 1.186840 -0.413475 0
M  V30 18 N -2.845025 0.013320 -0.109947 0
M  V30 19 C -3.785471 -0.909439 0.099807 0
M  V30 20 C -3.686045 -2.231199 0.430327 0
M  V30 21 C -2.356174 -2.814501 0.601286 0
M  V30 22 C -1.485003 -2.437403 -0.426461 0
M  V30 23 C -0.166196 -2.870638 -0.473815 0
M  V30 24 C 0.265261 -3.700177 0.543997 0
M  V30 25 C -0.582981 -4.075945 1.557484 0
M  V30 26 F -0.205415 -4.880382 2.567666 0
M  V30 27 C -1.892909 -3.644581 1.602919 0
M  V30 28 C -4.803276 -3.016587 0.602728 0
M  V30 29 N -6.011308 -2.435471 0.433515 0
M  V30 30 C -6.110781 -1.140643 0.109611 0
M  V30 31 C -5.022621 -0.320418 -0.071936 0
M  V30 32 N -4.749498 0.967804 -0.386197 0
M  V30 33 C -1.374556 2.620997 -0.726659 0
M  V30 34 C -0.312426 1.749232 -0.487669 0
M  V30 35 C 1.991850 0.418403 0.555460 0
M  V30 36 H 2.928508 -2.896487 4.190415 0
M  V30 37 H 4.158640 -4.024946 3.577917 0
M  V30 38 H 2.480419 -4.077947 2.858103 0
M  V30 39 H 4.704849 -1.985446 2.662922 0
M  V30 40 H 3.705518 -2.887593 0.065507 0
M  V30 41 H 5.220100 -3.336768 0.900314 0
M  V30 42 H 3.688516 -4.332916 1.084911 0
M  V30 43 H 1.852563 -1.569340 2.292967 0
M  V30 44 H 5.036320 -0.928665 0.428929 0
M  V30 45 H 3.444630 2.369595 -1.694736 0
M  V30 46 H 2.177526 3.991922 -0.992232 0
M  V30 47 H -2.549317 5.538072 -1.475909 0
M  V30 48 H -1.750124 -1.783250 -1.269626 0
M  V30 49 H 0.515261 -2.588208 -1.258717 0
M  V30 50 H 1.293163 -4.053819 0.531243 0
M  V30 51 H -2.647691 -3.873689 2.346628 0
M  V30 52 H -4.647283 -4.068502 0.866698 0
M  V30 53 H -7.089226 -0.669954 -0.027175 0
M  V30 54 H -5.525184 1.657929 -0.573795 0
M  V30 55 H -0.477229 0.720187 -0.235789 0
M  V30 56 H 1.046007 0.274871 1.070455 0
M  V30 END ATOM
M  V30 BEGIN BOND
M  V30 1 1 1 2
M  V30 2 1 2 3
M  V30 3 1 2 4
M  V30 4 1 4 5
M  V30 5 2 5 6
M  V30 6 1 6 7
M  V30 7 2 7 8
M  V30 8 1 8 9
M  V30 9 1 9 10
M  V30 10 2 10 11
M  V30 11 1 11 12
M  V30 12 2 12 13
M  V30 13 1 13 14
M  V30 14 1 14 15
M  V30 15 2 15 16
M  V30 16 1 16 17
M  V30 17 2 17 18
M  V30 18 1 18 19
M  V30 19 2 19 20
M  V30 20 1 20 21
M  V30 21 2 21 22
M  V30 22 1 22 23
M  V30 23 2 23 24
M  V30 24 1 24 25
M  V30 25 1 25 26
M  V30 26 2 25 27
M  V30 27 1 20 28
M  V30 28 2 28 29
M  V30 29 1 29 30
M  V30 30 2 30 31
M  V30 31 1 31 32
M  V30 32 1 16 33
M  V30 33 2 33 34
M  V30 34 2 9 35
M  V30 35 1 35 5
M  V30 36 1 34 10
M  V30 37 1 33 13
M  V30 38 1 32 17
M  V30 39 1 31 19
M  V30 40 1 27 21
M  V30 41 1 1 36
M  V30 42 1 1 37
M  V30 43 1 1 38
M  V30 44 1 2 39
M  V30 45 1 3 40
M  V30 46 1 3 41
M  V30 47 1 3 42
M  V30 48 1 4 43
M  V30 49 1 6 44
M  V30 50 1 8 45
M  V30 51 1 11 46
M  V30 52 1 14 47
M  V30 53 1 22 48
M  V30 54 1 23 49
M  V30 55 1 24 50
M  V30 56 1 27 51
M  V30 57 1 28 52
M  V30 58 1 30 53
M  V30 59 1 32 54
M  V30 60 1 34 55
M  V30 61 1 35 56
M  V30 END BOND
M  V30 END CTAB
M  END
>  <Dataset>  (408) 
ChEMBL_Kinases

>  <Ligand_Instance>  (408) 
nan

>  <PDB_ID>  (408) 
nan

>  <Standardized_SMILES>  (408) 
CC(C)Nc1cncc(-c2cnc3[nH]nc(-c4nc5c(-c6cccc(F)c6)cncc5[nH]4)c3c2)c1

>  <Name>  (408) 
nan

>  <Pocket>  (408) 
nan

>  <ATP_Site>  (408) 
nan

>  <Peripheral>  (408) 
nan

>  <Num_H_Atoms_ProtBoundConf>  (408) 
nan

>  <Num_Resolved_Atoms>  (408) 
nan

>  <Num_Not_Resolved_Atoms>  (408) 
nan

$$$$
CHEMBL4781539
     RDKit          3D

  0  0  0  0  0  0  0  0  0  0999 V3000
M  V30 BEGIN CTAB
M  V30 COUNTS 67 70 0 0 0
M  V30 BEGIN ATOM
M  V30 1 C 4.728046 -3.999626 3.180059 0
M  V30 2 C 5.777647 -3.576293 2.485071 0
M  V30 3 C 5.247817 -2.256108 2.081122 0
M  V30 4 O 4.188114 -2.527665 2.705547 0
M  V30 5 N 5.888025 -1.272755 1.300404 0
M  V30 6 C 5.071744 -0.102353 1.101250 0
M  V30 7 C 4.263336 -0.139169 -0.015096 0
M  V30 8 C 3.461875 0.985189 -0.232247 0
M  V30 9 C 3.506406 2.064250 0.654798 0
M  V30 10 C 2.626270 3.177583 0.323877 0
M  V30 11 O 2.581994 4.045745 -0.585309 0
M  V30 12 N 1.473859 3.574611 1.058099 0
M  V30 13 C 0.788529 4.702810 0.515655 0
M  V30 14 C -0.541760 4.987329 1.080596 0
M  V30 15 C -1.392985 3.797258 1.413304 0
M  V30 16 C -0.557206 2.596949 1.798779 0
M  V30 17 N -0.314133 1.804566 0.621682 0
M  V30 18 C -1.331988 1.128644 -0.150700 0
M  V30 19 N -1.407056 0.448317 -1.131915 0
M  V30 20 C -2.509307 -0.062938 -1.620312 0
M  V30 21 C -3.746601 0.157164 -1.002909 0
M  V30 22 S -5.474113 -0.094484 -0.958442 0
M  V30 23 C -5.920195 -1.566000 0.010830 0
M  V30 24 C -5.439792 -2.826150 -0.621347 0
M  V30 25 N -6.045604 -3.644291 -1.497935 0
M  V30 26 C -5.204288 -4.661702 -1.777615 0
M  V30 27 C -4.048973 -4.436896 -1.034626 0
M  V30 28 C -2.740389 -5.114200 -0.840540 0
M  V30 29 C -2.655704 -6.386120 -1.628931 0
M  V30 30 C -2.412076 -5.359692 0.610814 0
M  V30 31 C -1.658749 -4.191958 -1.385021 0
M  V30 32 O -4.266500 -3.316287 -0.366041 0
M  V30 33 S -3.105697 1.235195 0.425626 0
M  V30 34 C 0.783670 3.134339 2.245387 0
M  V30 35 C 4.344007 2.021315 1.748524 0
M  V30 36 C 5.159370 0.930335 2.009954 0
M  V30 37 H 3.993065 -4.521133 3.777471 0
M  V30 38 H 3.798733 -4.222200 3.718168 0
M  V30 39 H 6.481440 -4.396983 2.562230 0
M  V30 40 H 6.821804 -1.628106 1.043580 0
M  V30 41 H 4.254079 -0.993807 -0.682766 0
M  V30 42 H 2.826519 0.932319 -1.129410 0
M  V30 43 H 1.476956 5.583442 0.676917 0
M  V30 44 H 0.734575 4.588351 -0.585837 0
M  V30 45 H -1.142333 5.594713 0.340498 0
M  V30 46 H -0.461045 5.637806 1.972248 0
M  V30 47 H -2.066423 4.031795 2.276633 0
M  V30 48 H -2.050311 3.514803 0.566233 0
M  V30 49 H -1.055952 2.013262 2.604883 0
M  V30 50 H 0.628803 1.642716 0.211821 0
M  V30 51 H -2.739581 -0.682103 -2.475316 0
M  V30 52 H -7.020958 -1.572810 0.139858 0
M  V30 53 H -5.492578 -1.448341 1.019453 0
M  V30 54 H -5.212527 -5.546075 -2.396854 0
M  V30 55 H -2.134863 -6.252028 -2.616785 0
M  V30 56 H -3.615624 -6.884366 -1.821806 0
M  V30 57 H -1.987380 -7.105694 -1.069857 0
M  V30 58 H -1.318401 -5.170995 0.802789 0
M  V30 59 H -2.599784 -6.413586 0.882738 0
M  V30 60 H -3.046392 -4.675840 1.216867 0
M  V30 61 H -2.078403 -3.757420 -2.313003 0
M  V30 62 H -1.521572 -3.404997 -0.599377 0
M  V30 63 H -0.705982 -4.720729 -1.555652 0
M  V30 64 H 1.332923 2.334007 2.778948 0
M  V30 65 H 0.635801 3.986711 2.955423 0
M  V30 66 H 4.350355 2.884458 2.421727 0
M  V30 67 H 5.808222 0.895705 2.860558 0
M  V30 END ATOM
M  V30 BEGIN BOND
M  V30 1 2 1 2
M  V30 2 1 2 3
M  V30 3 2 3 4
M  V30 4 1 3 5
M  V30 5 1 5 6
M  V30 6 2 6 7
M  V30 7 1 7 8
M  V30 8 2 8 9
M  V30 9 1 9 10
M  V30 10 2 10 11
M  V30 11 1 10 12
M  V30 12 1 12 13
M  V30 13 1 13 14
M  V30 14 1 14 15
M  V30 15 1 15 16
M  V30 16 1 16 17
M  V30 17 1 17 18
M  V30 18 2 18 19
M  V30 19 1 19 20
M  V30 20 2 20 21
M  V30 21 1 21 22
M  V30 22 1 22 23
M  V30 23 1 23 24
M  V30 24 2 24 25
M  V30 25 1 25 26
M  V30 26 2 26 27
M  V30 27 1 27 28
M  V30 28 1 28 29
M  V30 29 1 28 30
M  V30 30 1 28 31
M  V30 31 1 27 32
M  V30 32 1 21 33
M  V30 33 1 16 34
M  V30 34 1 9 35
M  V30 35 2 35 36
M  V30 36 1 36 6
M  V30 37 1 34 12
M  V30 38 1 33 18
M  V30 39 1 32 24
M  V30 40 1 1 37
M  V30 41 1 1 38
M  V30 42 1 2 39
M  V30 43 1 5 40
M  V30 44 1 7 41
M  V30 45 1 8 42
M  V30 46 1 13 43
M  V30 47 1 13 44
M  V30 48 1 14 45
M  V30 49 1 14 46
M  V30 50 1 15 47
M  V30 51 1 15 48
M  V30 52 1 16 49
M  V30 53 1 17 50
M  V30 54 1 20 51
M  V30 55 1 23 52
M  V30 56 1 23 53
M  V30 57 1 26 54
M  V30 58 1 29 55
M  V30 59 1 29 56
M  V30 60 1 29 57
M  V30 61 1 30 58
M  V30 62 1 30 59
M  V30 63 1 30 60
M  V30 64 1 31 61
M  V30 65 1 31 62
M  V30 66 1 31 63
M  V30 67 1 34 64
M  V30 68 1 34 65
M  V30 69 1 35 66
M  V30 70 1 36 67
M  V30 END BOND
M  V30 END CTAB
M  END
>  <Dataset>  (409) 
ChEMBL_Kinases

>  <Ligand_Instance>  (409) 
nan

>  <PDB_ID>  (409) 
nan

>  <Standardized_SMILES>  (409) 
C=CC(=O)Nc1ccc(C(=O)N2CCCC(Nc3ncc(SCc4ncc(C(C)(C)C)o4)s3)C2)cc1

>  <Name>  (409) 
nan

>  <Pocket>  (409) 
nan

>  <ATP_Site>  (409) 
nan

>  <Peripheral>  (409) 
nan

>  <Num_H_Atoms_ProtBoundConf>  (409) 
nan

>  <Num_Resolved_Atoms>  (409) 
nan

>  <Num_Not_Resolved_Atoms>  (409) 
nan

$$$$
CHEMBL4780800
     RDKit          3D

  0  0  0  0  0  0  0  0  0  0999 V3000
M  V30 BEGIN CTAB
M  V30 COUNTS 46 50 0 0 0
M  V30 BEGIN ATOM
M  V30 1 C 0.403587 -8.043700 -0.145989 0
M  V30 2 N 1.024844 -7.022236 -0.976329 0
M  V30 3 C 1.208205 -5.710423 -0.725787 0
M  V30 4 C 1.849231 -5.112481 -1.805264 0
M  V30 5 C 2.196632 -3.698555 -1.856274 0
M  V30 6 C 3.289091 -3.181990 -2.524723 0
M  V30 7 C 3.555624 -1.812719 -2.527457 0
M  V30 8 C 2.724397 -0.945232 -1.856260 0
M  V30 9 C 2.900740 0.423852 -1.798567 0
M  V30 10 N 2.075471 1.253317 -1.136539 0
M  V30 11 C 0.988020 0.780571 -0.465890 0
M  V30 12 N 0.049703 1.562276 0.265347 0
M  V30 13 C 0.073306 1.935348 1.633642 0
M  V30 14 O 1.099930 1.473995 2.223288 0
M  V30 15 C -1.004495 2.752306 2.189050 0
M  V30 16 C -2.102021 3.230009 1.501134 0
M  V30 17 N -2.989177 3.968265 2.193496 0
M  V30 18 C -2.853255 4.255230 3.505797 0
M  V30 19 C -3.826688 5.022229 4.112619 0
M  V30 20 C -3.720111 5.340283 5.471455 0
M  V30 21 C -2.625620 4.870653 6.181460 0
M  V30 22 C -1.639972 4.093744 5.565769 0
M  V30 23 C -1.748687 3.782478 4.226314 0
M  V30 24 C -0.811265 3.013095 3.532881 0
M  V30 25 C 0.767484 -0.582800 -0.493091 0
M  V30 26 C 1.623739 -1.421110 -1.177052 0
M  V30 27 C 1.399789 -2.790273 -1.202964 0
M  V30 28 C 2.035785 -6.154174 -2.715495 0
M  V30 29 N 1.521555 -7.288098 -2.170325 0
M  V30 30 H -0.155901 -7.501582 0.652001 0
M  V30 31 H -0.226339 -8.741442 -0.706426 0
M  V30 32 H 1.234611 -8.658029 0.285263 0
M  V30 33 H 0.887536 -5.231365 0.195818 0
M  V30 34 H 3.931048 -3.882268 -3.046996 0
M  V30 35 H 4.407446 -1.406935 -3.048343 0
M  V30 36 H 3.754350 0.844458 -2.318766 0
M  V30 37 H -0.705394 1.837244 -0.396568 0
M  V30 38 H -2.162517 2.973842 0.462440 0
M  V30 39 H -4.701368 5.419799 3.624013 0
M  V30 40 H -4.471707 5.940317 5.967800 0
M  V30 41 H -2.550367 5.121141 7.232758 0
M  V30 42 H -0.784792 3.726341 6.119238 0
M  V30 43 H 0.000404 2.691491 4.153850 0
M  V30 44 H -0.085078 -1.018771 0.024271 0
M  V30 45 H 0.531934 -3.162558 -0.667042 0
M  V30 46 H 2.518592 -5.992013 -3.669656 0
M  V30 END ATOM
M  V30 BEGIN BOND
M  V30 1 1 1 2
M  V30 2 1 2 3
M  V30 3 2 3 4
M  V30 4 1 4 5
M  V30 5 2 5 6
M  V30 6 1 6 7
M  V30 7 2 7 8
M  V30 8 1 8 9
M  V30 9 2 9 10
M  V30 10 1 10 11
M  V30 11 1 11 12
M  V30 12 1 12 13
M  V30 13 2 13 14
M  V30 14 1 13 15
M  V30 15 2 15 16
M  V30 16 1 16 17
M  V30 17 2 17 18
M  V30 18 1 18 19
M  V30 19 2 19 20
M  V30 20 1 20 21
M  V30 21 2 21 22
M  V30 22 1 22 23
M  V30 23 2 23 24
M  V30 24 2 11 25
M  V30 25 1 25 26
M  V30 26 2 26 27
M  V30 27 1 4 28
M  V30 28 2 28 29
M  V30 29 1 29 2
M  V30 30 1 27 5
M  V30 31 1 26 8
M  V30 32 1 24 15
M  V30 33 1 23 18
M  V30 34 1 1 30
M  V30 35 1 1 31
M  V30 36 1 1 32
M  V30 37 1 3 33
M  V30 38 1 6 34
M  V30 39 1 7 35
M  V30 40 1 9 36
M  V30 41 1 12 37
M  V30 42 1 16 38
M  V30 43 1 19 39
M  V30 44 1 20 40
M  V30 45 1 21 41
M  V30 46 1 22 42
M  V30 47 1 24 43
M  V30 48 1 25 44
M  V30 49 1 27 45
M  V30 50 1 28 46
M  V30 END BOND
M  V30 END CTAB
M  END
>  <Dataset>  (410) 
ChEMBL_Kinases

>  <Ligand_Instance>  (410) 
nan

>  <PDB_ID>  (410) 
nan

>  <Standardized_SMILES>  (410) 
Cn1cc(-c2ccc3cnc(NC(=O)c4cnc5ccccc5c4)cc3c2)cn1

>  <Name>  (410) 
nan

>  <Pocket>  (410) 
nan

>  <ATP_Site>  (410) 
nan

>  <Peripheral>  (410) 
nan

>  <Num_H_Atoms_ProtBoundConf>  (410) 
nan

>  <Num_Resolved_Atoms>  (410) 
nan

>  <Num_Not_Resolved_Atoms>  (410) 
nan

$$$$
CHEMBL3264260
     RDKit          3D

  0  0  0  0  0  0  0  0  0  0999 V3000
M  V30 BEGIN CTAB
M  V30 COUNTS 59 62 0 0 0
M  V30 BEGIN ATOM
M  V30 1 C 3.688862 1.266925 2.224283 0
M  V30 2 C 3.673680 -0.200965 2.512655 0
M  V30 3 N 2.559180 -0.875443 1.963212 0
M  V30 4 C 2.463161 -2.254476 2.512654 0
M  V30 5 C 2.115914 -2.252708 3.954414 0
M  V30 6 C 2.571663 -1.040798 0.524919 0
M  V30 7 C 2.411220 0.178164 -0.288524 0
M  V30 8 C 2.382066 -0.126964 -1.794909 0
M  V30 9 N 2.210787 1.153762 -2.501300 0
M  V30 10 C 0.968195 1.841568 -2.300219 0
M  V30 11 C 0.827520 3.125237 -2.785586 0
M  V30 12 N -0.352026 3.744469 -2.587149 0
M  V30 13 C -1.348316 3.116551 -1.936255 0
M  V30 14 C -1.252849 1.838226 -1.436741 0
M  V30 15 C -2.363356 1.179686 -0.763889 0
M  V30 16 C -3.552458 1.844990 -0.549020 0
M  V30 17 C -4.617881 1.198832 0.076714 0
M  V30 18 C -4.450899 -0.114518 0.471026 0
M  V30 19 N -5.353390 -0.892467 1.079428 0
M  V30 20 C -4.780453 -2.087826 1.276597 0
M  V30 21 C -3.485401 -2.031474 0.769890 0
M  V30 22 C -2.554663 -3.150137 0.788118 0
M  V30 23 C -2.941514 -4.351522 1.393988 0
M  V30 24 C -2.168162 -5.487124 1.477193 0
M  V30 25 N -0.935708 -5.406627 0.918099 0
M  V30 26 C -0.531322 -4.256710 0.323626 0
M  V30 27 N 0.768138 -4.339885 -0.216864 0
M  V30 28 N -1.317629 -3.168100 0.263569 0
M  V30 29 C -3.251175 -0.776019 0.249663 0
M  V30 30 C -2.184090 -0.149711 -0.368959 0
M  V30 31 N -0.051835 1.283675 -1.670211 0
M  V30 32 H 3.834290 1.808952 3.230741 0
M  V30 33 H 2.736997 1.657699 1.848416 0
M  V30 34 H 4.545962 1.601667 1.598872 0
M  V30 35 H 3.848964 -0.420841 3.589940 0
M  V30 36 H 4.601878 -0.617674 2.014277 0
M  V30 37 H 3.390546 -2.812803 2.346040 0
M  V30 38 H 1.655802 -2.744481 1.936607 0
M  V30 39 H 1.219127 -2.885339 4.117273 0
M  V30 40 H 1.834471 -1.240265 4.325185 0
M  V30 41 H 2.915567 -2.708238 4.608190 0
M  V30 42 H 3.545755 -1.544215 0.238587 0
M  V30 43 H 1.804855 -1.824119 0.314300 0
M  V30 44 H 1.564792 0.803698 -0.048977 0
M  V30 45 H 3.348713 0.810778 -0.204473 0
M  V30 46 H 3.307089 -0.643418 -2.110895 0
M  V30 47 H 1.531951 -0.786675 -2.053075 0
M  V30 48 H 2.936007 1.568733 -3.124950 0
M  V30 49 H 1.609138 3.636308 -3.303191 0
M  V30 50 H -2.243423 3.705570 -1.836071 0
M  V30 51 H -3.736505 2.850851 -0.829304 0
M  V30 52 H -5.558246 1.730892 0.245887 0
M  V30 53 H -6.332885 -0.644947 1.362939 0
M  V30 54 H -5.303973 -2.922579 1.761672 0
M  V30 55 H -3.918667 -4.410623 1.835516 0
M  V30 56 H -2.549027 -6.372644 1.964788 0
M  V30 57 H 0.608521 -4.166419 -1.244664 0
M  V30 58 H 1.614368 -4.532766 0.350751 0
M  V30 59 H -1.290461 -0.720650 -0.505257 0
M  V30 END ATOM
M  V30 BEGIN BOND
M  V30 1 1 1 2
M  V30 2 1 2 3
M  V30 3 1 3 4
M  V30 4 1 4 5
M  V30 5 1 3 6
M  V30 6 1 6 7
M  V30 7 1 7 8
M  V30 8 1 8 9
M  V30 9 1 9 10
M  V30 10 2 10 11
M  V30 11 1 11 12
M  V30 12 2 12 13
M  V30 13 1 13 14
M  V30 14 1 14 15
M  V30 15 2 15 16
M  V30 16 1 16 17
M  V30 17 2 17 18
M  V30 18 1 18 19
M  V30 19 1 19 20
M  V30 20 2 20 21
M  V30 21 1 21 22
M  V30 22 2 22 23
M  V30 23 1 23 24
M  V30 24 2 24 25
M  V30 25 1 25 26
M  V30 26 1 26 27
M  V30 27 2 26 28
M  V30 28 1 21 29
M  V30 29 2 29 30
M  V30 30 2 14 31
M  V30 31 1 31 10
M  V30 32 1 30 15
M  V30 33 1 29 18
M  V30 34 1 28 22
M  V30 35 1 1 32
M  V30 36 1 1 33
M  V30 37 1 1 34
M  V30 38 1 2 35
M  V30 39 1 2 36
M  V30 40 1 4 37
M  V30 41 1 4 38
M  V30 42 1 5 39
M  V30 43 1 5 40
M  V30 44 1 5 41
M  V30 45 1 6 42
M  V30 46 1 6 43
M  V30 47 1 7 44
M  V30 48 1 7 45
M  V30 49 1 8 46
M  V30 50 1 8 47
M  V30 51 1 9 48
M  V30 52 1 11 49
M  V30 53 1 13 50
M  V30 54 1 16 51
M  V30 55 1 17 52
M  V30 56 1 19 53
M  V30 57 1 20 54
M  V30 58 1 23 55
M  V30 59 1 24 56
M  V30 60 1 27 57
M  V30 61 1 27 58
M  V30 62 1 30 59
M  V30 END BOND
M  V30 END CTAB
M  END
>  <Dataset>  (411) 
ChEMBL_Kinases

>  <Ligand_Instance>  (411) 
nan

>  <PDB_ID>  (411) 
nan

>  <Standardized_SMILES>  (411) 
CCN(CC)CCCNc1cncc(-c2ccc3[nH]cc(-c4ccnc(N)n4)c3c2)n1

>  <Name>  (411) 
nan

>  <Pocket>  (411) 
nan

>  <ATP_Site>  (411) 
nan

>  <Peripheral>  (411) 
nan

>  <Num_H_Atoms_ProtBoundConf>  (411) 
nan

>  <Num_Resolved_Atoms>  (411) 
nan

>  <Num_Not_Resolved_Atoms>  (411) 
nan

$$$$
CHEMBL3264259
     RDKit          3D

  0  0  0  0  0  0  0  0  0  0999 V3000
M  V30 BEGIN CTAB
M  V30 COUNTS 53 56 0 0 0
M  V30 BEGIN ATOM
M  V30 1 C 4.180880 -3.245155 4.439014 0
M  V30 2 N 3.343503 -2.070844 4.296708 0
M  V30 3 C 2.075098 -2.467646 3.758309 0
M  V30 4 C 3.990901 -1.000006 3.581427 0
M  V30 5 C 3.087369 0.214718 3.448689 0
M  V30 6 C 3.801090 1.314205 2.694069 0
M  V30 7 N 4.197037 0.943466 1.366855 0
M  V30 8 C 3.267132 0.548960 0.353908 0
M  V30 9 C 3.708581 0.185665 -0.922612 0
M  V30 10 N 2.773667 -0.175911 -1.833561 0
M  V30 11 C 1.465602 -0.184695 -1.519654 0
M  V30 12 C 1.002929 0.167863 -0.272199 0
M  V30 13 C -0.393167 0.186895 0.146018 0
M  V30 14 C -0.655820 0.577096 1.451091 0
M  V30 15 C -1.953008 0.613824 1.901627 0
M  V30 16 C -2.984130 0.264213 1.058089 0
M  V30 17 N -4.319653 0.185800 1.164167 0
M  V30 18 C -4.867074 -0.224132 0.010294 0
M  V30 19 C -3.876492 -0.438261 -0.932235 0
M  V30 20 C -4.206186 -0.889234 -2.257378 0
M  V30 21 C -3.449130 -1.105198 -3.366660 0
M  V30 22 C -3.869595 -1.534222 -4.598139 0
M  V30 23 N -5.179436 -1.777097 -4.754804 0
M  V30 24 C -5.982409 -1.584276 -3.701226 0
M  V30 25 N -7.406224 -1.817745 -3.768764 0
M  V30 26 N -5.493998 -1.162246 -2.527206 0
M  V30 27 C -2.741715 -0.124589 -0.238239 0
M  V30 28 C -1.444222 -0.153859 -0.664207 0
M  V30 29 N 1.949277 0.521847 0.611686 0
M  V30 30 H 4.129955 -3.587296 5.502367 0
M  V30 31 H 3.774701 -4.063728 3.826379 0
M  V30 32 H 5.237056 -3.071285 4.126123 0
M  V30 33 H 1.239246 -1.993990 4.343840 0
M  V30 34 H 2.044923 -2.142655 2.684243 0
M  V30 35 H 1.934917 -3.566940 3.777546 0
M  V30 36 H 4.251752 -1.347722 2.552798 0
M  V30 37 H 4.921098 -0.759699 4.121991 0
M  V30 38 H 2.163884 -0.026063 2.915975 0
M  V30 39 H 2.925352 0.589208 4.471463 0
M  V30 40 H 3.120487 2.188785 2.636796 0
M  V30 41 H 4.683274 1.621618 3.271495 0
M  V30 42 H 5.225981 0.953847 1.096593 0
M  V30 43 H 4.772244 0.218797 -1.094812 0
M  V30 44 H 0.752025 -0.477189 -2.267642 0
M  V30 45 H 0.063469 0.870364 2.194269 0
M  V30 46 H -2.229803 0.911425 2.916899 0
M  V30 47 H -4.794769 0.430175 2.064244 0
M  V30 48 H -5.962367 -0.326214 -0.021958 0
M  V30 49 H -2.397419 -0.921224 -3.300445 0
M  V30 50 H -3.174398 -1.671049 -5.409250 0
M  V30 51 H -7.625538 -2.846112 -3.877727 0
M  V30 52 H -8.325828 -1.323045 -3.748344 0
M  V30 53 H -1.164983 -0.443426 -1.640308 0
M  V30 END ATOM
M  V30 BEGIN BOND
M  V30 1 1 1 2
M  V30 2 1 2 3
M  V30 3 1 2 4
M  V30 4 1 4 5
M  V30 5 1 5 6
M  V30 6 1 6 7
M  V30 7 1 7 8
M  V30 8 2 8 9
M  V30 9 1 9 10
M  V30 10 2 10 11
M  V30 11 1 11 12
M  V30 12 1 12 13
M  V30 13 2 13 14
M  V30 14 1 14 15
M  V30 15 2 15 16
M  V30 16 1 16 17
M  V30 17 1 17 18
M  V30 18 2 18 19
M  V30 19 1 19 20
M  V30 20 2 20 21
M  V30 21 1 21 22
M  V30 22 2 22 23
M  V30 23 1 23 24
M  V30 24 1 24 25
M  V30 25 2 24 26
M  V30 26 1 19 27
M  V30 27 2 27 28
M  V30 28 2 12 29
M  V30 29 1 29 8
M  V30 30 1 28 13
M  V30 31 1 27 16
M  V30 32 1 26 20
M  V30 33 1 1 30
M  V30 34 1 1 31
M  V30 35 1 1 32
M  V30 36 1 3 33
M  V30 37 1 3 34
M  V30 38 1 3 35
M  V30 39 1 4 36
M  V30 40 1 4 37
M  V30 41 1 5 38
M  V30 42 1 5 39
M  V30 43 1 6 40
M  V30 44 1 6 41
M  V30 45 1 7 42
M  V30 46 1 9 43
M  V30 47 1 11 44
M  V30 48 1 14 45
M  V30 49 1 15 46
M  V30 50 1 17 47
M  V30 51 1 18 48
M  V30 52 1 21 49
M  V30 53 1 22 50
M  V30 54 1 25 51
M  V30 55 1 25 52
M  V30 56 1 28 53
M  V30 END BOND
M  V30 END CTAB
M  END
>  <Dataset>  (412) 
ChEMBL_Kinases

>  <Ligand_Instance>  (412) 
nan

>  <PDB_ID>  (412) 
nan

>  <Standardized_SMILES>  (412) 
CN(C)CCCNc1cncc(-c2ccc3[nH]cc(-c4ccnc(N)n4)c3c2)n1

>  <Name>  (412) 
nan

>  <Pocket>  (412) 
nan

>  <ATP_Site>  (412) 
nan

>  <Peripheral>  (412) 
nan

>  <Num_H_Atoms_ProtBoundConf>  (412) 
nan

>  <Num_Resolved_Atoms>  (412) 
nan

>  <Num_Not_Resolved_Atoms>  (412) 
nan

$$$$
CHEMBL3264258
     RDKit          3D

  0  0  0  0  0  0  0  0  0  0999 V3000
M  V30 BEGIN CTAB
M  V30 COUNTS 56 59 0 0 0
M  V30 BEGIN ATOM
M  V30 1 C 2.721972 -0.658751 4.776724 0
M  V30 2 C 2.114347 0.640965 4.403932 0
M  V30 3 N 2.777239 1.374619 3.341476 0
M  V30 4 C 4.079940 1.840466 3.795973 0
M  V30 5 C 3.873224 2.904393 4.856365 0
M  V30 6 C 2.891680 0.577272 2.135089 0
M  V30 7 C 3.383490 1.471256 1.014402 0
M  V30 8 N 2.423646 2.572968 0.819831 0
M  V30 9 C 1.147195 2.151715 0.350836 0
M  V30 10 C 0.080300 3.034253 0.216591 0
M  V30 11 N -1.098331 2.623423 -0.236100 0
M  V30 12 C -1.361414 1.378678 -0.590162 0
M  V30 13 C -0.317976 0.456486 -0.473566 0
M  V30 14 C -0.445201 -0.941790 -0.852553 0
M  V30 15 C 0.653981 -1.763217 -0.731592 0
M  V30 16 C 0.679542 -3.092777 -1.053618 0
M  V30 17 C -0.504761 -3.624702 -1.534938 0
M  V30 18 N -0.915593 -4.854786 -1.970662 0
M  V30 19 C -2.185939 -4.800975 -2.334041 0
M  V30 20 C -2.722872 -3.541888 -2.173700 0
M  V30 21 C -4.090382 -3.265507 -2.506783 0
M  V30 22 C -4.854178 -2.156018 -2.393242 0
M  V30 23 C -6.172456 -1.972095 -2.728221 0
M  V30 24 N -6.782528 -3.074711 -3.248095 0
M  V30 25 C -6.096772 -4.205628 -3.392749 0
M  V30 26 N -6.722576 -5.385404 -3.937720 0
M  V30 27 N -4.821115 -4.282726 -3.037068 0
M  V30 28 C -1.642715 -2.860130 -1.680203 0
M  V30 29 C -1.578047 -1.536221 -1.333291 0
M  V30 30 N 0.841241 0.916518 -0.015197 0
M  V30 31 H 3.803451 -0.712590 4.856708 0
M  V30 32 H 2.340038 -0.898940 5.819168 0
M  V30 33 H 2.279151 -1.497313 4.165090 0
M  V30 34 H 2.054461 1.336396 5.271465 0
M  V30 35 H 1.052905 0.450946 4.129305 0
M  V30 36 H 4.613424 2.266971 2.931863 0
M  V30 37 H 4.661560 0.977690 4.200471 0
M  V30 38 H 3.047645 3.579107 4.625462 0
M  V30 39 H 3.698129 2.378213 5.816430 0
M  V30 40 H 4.785547 3.548484 4.989592 0
M  V30 41 H 3.720486 -0.175985 2.281610 0
M  V30 42 H 2.014478 -0.004211 1.874978 0
M  V30 43 H 3.323477 0.808405 0.091853 0
M  V30 44 H 4.408592 1.769842 1.078915 0
M  V30 45 H 2.554760 3.617078 0.976923 0
M  V30 46 H 0.198979 4.076984 0.480908 0
M  V30 47 H -2.324731 1.062412 -0.954172 0
M  V30 48 H 1.611503 -1.383145 -0.351931 0
M  V30 49 H 1.542683 -3.740122 -0.962014 0
M  V30 50 H -0.199789 -5.621413 -1.951719 0
M  V30 51 H -2.597340 -5.752234 -2.699566 0
M  V30 52 H -4.402335 -1.281877 -1.981950 0
M  V30 53 H -6.670049 -1.042626 -2.592706 0
M  V30 54 H -6.858748 -6.019354 -3.106067 0
M  V30 55 H -6.995518 -5.592626 -4.936846 0
M  V30 56 H -2.394195 -0.881640 -1.418644 0
M  V30 END ATOM
M  V30 BEGIN BOND
M  V30 1 1 1 2
M  V30 2 1 2 3
M  V30 3 1 3 4
M  V30 4 1 4 5
M  V30 5 1 3 6
M  V30 6 1 6 7
M  V30 7 1 7 8
M  V30 8 1 8 9
M  V30 9 2 9 10
M  V30 10 1 10 11
M  V30 11 2 11 12
M  V30 12 1 12 13
M  V30 13 1 13 14
M  V30 14 2 14 15
M  V30 15 1 15 16
M  V30 16 2 16 17
M  V30 17 1 17 18
M  V30 18 1 18 19
M  V30 19 2 19 20
M  V30 20 1 20 21
M  V30 21 2 21 22
M  V30 22 1 22 23
M  V30 23 2 23 24
M  V30 24 1 24 25
M  V30 25 1 25 26
M  V30 26 2 25 27
M  V30 27 1 20 28
M  V30 28 2 28 29
M  V30 29 2 13 30
M  V30 30 1 30 9
M  V30 31 1 29 14
M  V30 32 1 28 17
M  V30 33 1 27 21
M  V30 34 1 1 31
M  V30 35 1 1 32
M  V30 36 1 1 33
M  V30 37 1 2 34
M  V30 38 1 2 35
M  V30 39 1 4 36
M  V30 40 1 4 37
M  V30 41 1 5 38
M  V30 42 1 5 39
M  V30 43 1 5 40
M  V30 44 1 6 41
M  V30 45 1 6 42
M  V30 46 1 7 43
M  V30 47 1 7 44
M  V30 48 1 8 45
M  V30 49 1 10 46
M  V30 50 1 12 47
M  V30 51 1 15 48
M  V30 52 1 16 49
M  V30 53 1 18 50
M  V30 54 1 19 51
M  V30 55 1 22 52
M  V30 56 1 23 53
M  V30 57 1 26 54
M  V30 58 1 26 55
M  V30 59 1 29 56
M  V30 END BOND
M  V30 END CTAB
M  END
>  <Dataset>  (413) 
ChEMBL_Kinases

>  <Ligand_Instance>  (413) 
nan

>  <PDB_ID>  (413) 
nan

>  <Standardized_SMILES>  (413) 
CCN(CC)CCNc1cncc(-c2ccc3[nH]cc(-c4ccnc(N)n4)c3c2)n1

>  <Name>  (413) 
nan

>  <Pocket>  (413) 
nan

>  <ATP_Site>  (413) 
nan

>  <Peripheral>  (413) 
nan

>  <Num_H_Atoms_ProtBoundConf>  (413) 
nan

>  <Num_Resolved_Atoms>  (413) 
nan

>  <Num_Not_Resolved_Atoms>  (413) 
nan

$$$$
CHEMBL3264257
     RDKit          3D

  0  0  0  0  0  0  0  0  0  0999 V3000
M  V30 BEGIN CTAB
M  V30 COUNTS 50 53 0 0 0
M  V30 BEGIN ATOM
M  V30 1 C 1.317199 -1.184339 5.977364 0
M  V30 2 N 2.718278 -1.358878 5.790573 0
M  V30 3 C 3.561720 -0.954839 6.860938 0
M  V30 4 C 3.181550 -1.035765 4.468327 0
M  V30 5 C 3.101491 0.409017 4.128472 0
M  V30 6 N 3.597440 0.594752 2.773989 0
M  V30 7 C 2.869953 -0.132409 1.788319 0
M  V30 8 C 3.255160 -1.422548 1.386523 0
M  V30 9 N 2.525330 -2.049043 0.456620 0
M  V30 10 C 1.437415 -1.533067 -0.130593 0
M  V30 11 C 1.050891 -0.270808 0.255439 0
M  V30 12 C -0.114100 0.409805 -0.298016 0
M  V30 13 C -0.432593 1.673723 0.150162 0
M  V30 14 C -1.512157 2.399999 -0.308453 0
M  V30 15 C -2.288496 1.782390 -1.272263 0
M  V30 16 N -3.390053 2.223661 -1.906944 0
M  V30 17 C -3.869749 1.309888 -2.798714 0
M  V30 18 C -3.008575 0.222309 -2.715726 0
M  V30 19 C -3.078502 -1.025799 -3.468488 0
M  V30 20 C -4.112689 -1.190011 -4.383528 0
M  V30 21 C -4.285279 -2.323793 -5.154966 0
M  V30 22 N -3.370348 -3.289701 -4.966836 0
M  V30 23 C -2.361852 -3.154995 -4.088903 0
M  V30 24 N -1.436879 -4.228234 -3.954467 0
M  V30 25 N -2.199311 -2.047646 -3.340143 0
M  V30 26 C -2.036777 0.506803 -1.780768 0
M  V30 27 C -0.933087 -0.142508 -1.259804 0
M  V30 28 N 1.773986 0.376190 1.190768 0
M  V30 29 H 1.038767 -0.210008 6.433624 0
M  V30 30 H 0.822489 -1.335003 4.991476 0
M  V30 31 H 0.924288 -1.974452 6.658536 0
M  V30 32 H 2.956376 -0.723168 7.772628 0
M  V30 33 H 4.218909 -1.823759 7.105401 0
M  V30 34 H 4.187139 -0.072698 6.672466 0
M  V30 35 H 2.568172 -1.634885 3.740544 0
M  V30 36 H 4.235721 -1.366992 4.385826 0
M  V30 37 H 3.827782 0.961129 4.784654 0
M  V30 38 H 2.088643 0.829720 4.157256 0
M  V30 39 H 4.294060 1.052614 2.159256 0
M  V30 40 H 4.130563 -1.786911 1.886771 0
M  V30 41 H 0.884442 -2.074392 -0.871681 0
M  V30 42 H 0.171933 2.173498 0.911350 0
M  V30 43 H -1.780709 3.393630 0.029771 0
M  V30 44 H -3.894552 3.135397 -1.803048 0
M  V30 45 H -4.734558 1.397966 -3.440778 0
M  V30 46 H -4.837325 -0.390203 -4.513110 0
M  V30 47 H -5.121042 -2.391554 -5.857898 0
M  V30 48 H -1.892467 -5.120945 -3.663363 0
M  V30 49 H -0.414279 -4.130086 -4.129741 0
M  V30 50 H -0.732798 -1.114490 -1.639554 0
M  V30 END ATOM
M  V30 BEGIN BOND
M  V30 1 1 1 2
M  V30 2 1 2 3
M  V30 3 1 2 4
M  V30 4 1 4 5
M  V30 5 1 5 6
M  V30 6 1 6 7
M  V30 7 2 7 8
M  V30 8 1 8 9
M  V30 9 2 9 10
M  V30 10 1 10 11
M  V30 11 1 11 12
M  V30 12 2 12 13
M  V30 13 1 13 14
M  V30 14 2 14 15
M  V30 15 1 15 16
M  V30 16 1 16 17
M  V30 17 2 17 18
M  V30 18 1 18 19
M  V30 19 2 19 20
M  V30 20 1 20 21
M  V30 21 2 21 22
M  V30 22 1 22 23
M  V30 23 1 23 24
M  V30 24 2 23 25
M  V30 25 1 18 26
M  V30 26 2 26 27
M  V30 27 2 11 28
M  V30 28 1 28 7
M  V30 29 1 27 12
M  V30 30 1 26 15
M  V30 31 1 25 19
M  V30 32 1 1 29
M  V30 33 1 1 30
M  V30 34 1 1 31
M  V30 35 1 3 32
M  V30 36 1 3 33
M  V30 37 1 3 34
M  V30 38 1 4 35
M  V30 39 1 4 36
M  V30 40 1 5 37
M  V30 41 1 5 38
M  V30 42 1 6 39
M  V30 43 1 8 40
M  V30 44 1 10 41
M  V30 45 1 13 42
M  V30 46 1 14 43
M  V30 47 1 16 44
M  V30 48 1 17 45
M  V30 49 1 20 46
M  V30 50 1 21 47
M  V30 51 1 24 48
M  V30 52 1 24 49
M  V30 53 1 27 50
M  V30 END BOND
M  V30 END CTAB
M  END
>  <Dataset>  (414) 
ChEMBL_Kinases

>  <Ligand_Instance>  (414) 
nan

>  <PDB_ID>  (414) 
nan

>  <Standardized_SMILES>  (414) 
CN(C)CCNc1cncc(-c2ccc3[nH]cc(-c4ccnc(N)n4)c3c2)n1

>  <Name>  (414) 
nan

>  <Pocket>  (414) 
nan

>  <ATP_Site>  (414) 
nan

>  <Peripheral>  (414) 
nan

>  <Num_H_Atoms_ProtBoundConf>  (414) 
nan

>  <Num_Resolved_Atoms>  (414) 
nan

>  <Num_Not_Resolved_Atoms>  (414) 
nan

$$$$
CHEMBL3264256
     RDKit          3D

  0  0  0  0  0  0  0  0  0  0999 V3000
M  V30 BEGIN CTAB
M  V30 COUNTS 58 61 0 0 0
M  V30 BEGIN ATOM
M  V30 1 C 4.465412 -3.034932 0.818254 0
M  V30 2 C 3.400040 -2.593570 1.756947 0
M  V30 3 N 3.185394 -1.177438 1.832396 0
M  V30 4 C 2.168720 -0.793805 2.731448 0
M  V30 5 C 2.030153 0.716863 2.722275 0
M  V30 6 C 3.320584 -0.473972 0.611967 0
M  V30 7 C 2.288969 -0.733508 -0.425693 0
M  V30 8 C 2.584390 0.087781 -1.659411 0
M  V30 9 O 2.599925 1.463469 -1.462465 0
M  V30 10 C 1.557016 2.252460 -1.007443 0
M  V30 11 C 1.765194 3.609132 -0.880999 0
M  V30 12 N 0.736711 4.386708 -0.433863 0
M  V30 13 C -0.458289 3.809494 -0.126308 0
M  V30 14 C -0.678461 2.458026 -0.247496 0
M  V30 15 C -1.953258 1.822064 0.089668 0
M  V30 16 C -3.053182 2.528676 0.542250 0
M  V30 17 C -4.251919 1.929845 0.870940 0
M  V30 18 C -4.310498 0.561910 0.726043 0
M  V30 19 N -5.273896 -0.334621 0.953173 0
M  V30 20 C -4.841641 -1.563643 0.668248 0
M  V30 21 C -3.515834 -1.535618 0.219926 0
M  V30 22 C -2.814818 -2.728536 -0.131105 0
M  V30 23 C -1.628534 -2.927687 -0.736361 0
M  V30 24 C -1.023634 -4.110543 -1.054942 0
M  V30 25 N -1.711145 -5.241081 -0.716206 0
M  V30 26 C -2.912639 -5.116192 -0.104467 0
M  V30 27 N -3.670069 -6.269572 0.272384 0
M  V30 28 N -3.411604 -3.909242 0.160531 0
M  V30 29 C -3.251765 -0.193129 0.281198 0
M  V30 30 C -2.087419 0.458545 -0.029346 0
M  V30 31 N 0.352540 1.694889 -0.693579 0
M  V30 32 H 4.699934 -4.103820 1.093781 0
M  V30 33 H 4.141483 -3.109990 -0.246625 0
M  V30 34 H 5.423808 -2.486139 0.921522 0
M  V30 35 H 3.715529 -2.907081 2.787853 0
M  V30 36 H 2.491642 -3.180111 1.533935 0
M  V30 37 H 2.544913 -1.030028 3.770485 0
M  V30 38 H 1.215764 -1.310562 2.655990 0
M  V30 39 H 1.426452 1.066785 3.602999 0
M  V30 40 H 1.581140 1.068931 1.775688 0
M  V30 41 H 3.071634 1.107725 2.782156 0
M  V30 42 H 4.322127 -0.703223 0.196760 0
M  V30 43 H 3.332343 0.614705 0.823021 0
M  V30 44 H 2.194686 -1.788962 -0.717450 0
M  V30 45 H 1.277123 -0.415351 -0.096228 0
M  V30 46 H 1.818428 -0.135419 -2.446202 0
M  V30 47 H 3.558665 -0.212284 -2.113720 0
M  V30 48 H 2.712931 4.086117 -1.121723 0
M  V30 49 H -1.237332 4.449679 0.220594 0
M  V30 50 H -3.007784 3.594724 0.654821 0
M  V30 51 H -5.091729 2.476867 1.217216 0
M  V30 52 H -6.218619 -0.045079 1.306626 0
M  V30 53 H -5.537820 -2.408097 0.809987 0
M  V30 54 H -1.058667 -2.091709 -1.034835 0
M  V30 55 H -0.075353 -4.188750 -1.537801 0
M  V30 56 H -4.305724 -6.220410 1.118400 0
M  V30 57 H -3.621708 -7.155965 -0.251412 0
M  V30 58 H -1.235700 -0.053180 -0.366536 0
M  V30 END ATOM
M  V30 BEGIN BOND
M  V30 1 1 1 2
M  V30 2 1 2 3
M  V30 3 1 3 4
M  V30 4 1 4 5
M  V30 5 1 3 6
M  V30 6 1 6 7
M  V30 7 1 7 8
M  V30 8 1 8 9
M  V30 9 1 9 10
M  V30 10 2 10 11
M  V30 11 1 11 12
M  V30 12 2 12 13
M  V30 13 1 13 14
M  V30 14 1 14 15
M  V30 15 2 15 16
M  V30 16 1 16 17
M  V30 17 2 17 18
M  V30 18 1 18 19
M  V30 19 1 19 20
M  V30 20 2 20 21
M  V30 21 1 21 22
M  V30 22 2 22 23
M  V30 23 1 23 24
M  V30 24 2 24 25
M  V30 25 1 25 26
M  V30 26 1 26 27
M  V30 27 2 26 28
M  V30 28 1 21 29
M  V30 29 2 29 30
M  V30 30 2 14 31
M  V30 31 1 31 10
M  V30 32 1 30 15
M  V30 33 1 29 18
M  V30 34 1 28 22
M  V30 35 1 1 32
M  V30 36 1 1 33
M  V30 37 1 1 34
M  V30 38 1 2 35
M  V30 39 1 2 36
M  V30 40 1 4 37
M  V30 41 1 4 38
M  V30 42 1 5 39
M  V30 43 1 5 40
M  V30 44 1 5 41
M  V30 45 1 6 42
M  V30 46 1 6 43
M  V30 47 1 7 44
M  V30 48 1 7 45
M  V30 49 1 8 46
M  V30 50 1 8 47
M  V30 51 1 11 48
M  V30 52 1 13 49
M  V30 53 1 16 50
M  V30 54 1 17 51
M  V30 55 1 19 52
M  V30 56 1 20 53
M  V30 57 1 23 54
M  V30 58 1 24 55
M  V30 59 1 27 56
M  V30 60 1 27 57
M  V30 61 1 30 58
M  V30 END BOND
M  V30 END CTAB
M  END
>  <Dataset>  (415) 
ChEMBL_Kinases

>  <Ligand_Instance>  (415) 
nan

>  <PDB_ID>  (415) 
nan

>  <Standardized_SMILES>  (415) 
CCN(CC)CCCOc1cncc(-c2ccc3[nH]cc(-c4ccnc(N)n4)c3c2)n1

>  <Name>  (415) 
nan

>  <Pocket>  (415) 
nan

>  <ATP_Site>  (415) 
nan

>  <Peripheral>  (415) 
nan

>  <Num_H_Atoms_ProtBoundConf>  (415) 
nan

>  <Num_Resolved_Atoms>  (415) 
nan

>  <Num_Not_Resolved_Atoms>  (415) 
nan

$$$$
CHEMBL3264255
     RDKit          3D

  0  0  0  0  0  0  0  0  0  0999 V3000
M  V30 BEGIN CTAB
M  V30 COUNTS 52 55 0 0 0
M  V30 BEGIN ATOM
M  V30 1 C 4.777937 -0.610928 4.724793 0
M  V30 2 N 4.214610 0.337209 3.809122 0
M  V30 3 C 2.806227 0.475420 3.980888 0
M  V30 4 C 4.633884 0.089387 2.470639 0
M  V30 5 C 4.082925 1.041710 1.439564 0
M  V30 6 C 4.655254 0.594257 0.106421 0
M  V30 7 O 4.303579 -0.709042 -0.232717 0
M  V30 8 C 3.051995 -1.229318 -0.415010 0
M  V30 9 C 3.012638 -2.585955 -0.754388 0
M  V30 10 N 1.802492 -3.143430 -0.944207 0
M  V30 11 C 0.667566 -2.428515 -0.814074 0
M  V30 12 C 0.695519 -1.094591 -0.480809 0
M  V30 13 C -0.495810 -0.269746 -0.325748 0
M  V30 14 C -0.312082 1.055853 0.012020 0
M  V30 15 C -1.399224 1.902576 0.176819 0
M  V30 16 C -2.676237 1.374044 -0.008699 0
M  V30 17 N -3.876666 1.943306 0.082390 0
M  V30 18 C -4.877340 1.073618 -0.176324 0
M  V30 19 C -4.258465 -0.136474 -0.451439 0
M  V30 20 C -4.886698 -1.407665 -0.794016 0
M  V30 21 C -6.266046 -1.513049 -0.877014 0
M  V30 22 C -6.900939 -2.694516 -1.197349 0
M  V30 23 N -6.133228 -3.791626 -1.438955 0
M  V30 24 C -4.783572 -3.711801 -1.363567 0
M  V30 25 N -3.909569 -4.816374 -1.602802 0
M  V30 26 N -4.214314 -2.543148 -1.049113 0
M  V30 27 C -2.894707 0.052472 -0.346926 0
M  V30 28 C -1.776231 -0.738815 -0.496628 0
M  V30 29 N 1.892651 -0.536124 -0.291332 0
M  V30 30 H 4.693608 -0.301526 5.785406 0
M  V30 31 H 4.257925 -1.599004 4.674617 0
M  V30 32 H 5.844789 -0.817682 4.546919 0
M  V30 33 H 2.402092 -0.165776 4.816574 0
M  V30 34 H 2.261906 0.213570 3.048118 0
M  V30 35 H 2.509591 1.508886 4.253901 0
M  V30 36 H 4.331845 -0.943570 2.178794 0
M  V30 37 H 5.733218 0.139371 2.378911 0
M  V30 38 H 3.000210 1.034808 1.329833 0
M  V30 39 H 4.449947 2.066248 1.637685 0
M  V30 40 H 5.777193 0.596134 0.250661 0
M  V30 41 H 4.423001 1.345952 -0.669289 0
M  V30 42 H 3.923115 -3.169476 -0.861276 0
M  V30 43 H -0.268770 -2.912283 -0.973973 0
M  V30 44 H 0.636535 1.536304 0.171781 0
M  V30 45 H -1.316886 2.957185 0.442840 0
M  V30 46 H -4.133261 2.941904 0.319984 0
M  V30 47 H -5.951036 1.216584 -0.186046 0
M  V30 48 H -6.922859 -0.675017 -0.695455 0
M  V30 49 H -7.982420 -2.772902 -1.261447 0
M  V30 50 H -3.739910 -5.232847 -0.651028 0
M  V30 51 H -3.565236 -5.081400 -2.537592 0
M  V30 52 H -1.936407 -1.760740 -0.757769 0
M  V30 END ATOM
M  V30 BEGIN BOND
M  V30 1 1 1 2
M  V30 2 1 2 3
M  V30 3 1 2 4
M  V30 4 1 4 5
M  V30 5 1 5 6
M  V30 6 1 6 7
M  V30 7 1 7 8
M  V30 8 2 8 9
M  V30 9 1 9 10
M  V30 10 2 10 11
M  V30 11 1 11 12
M  V30 12 1 12 13
M  V30 13 2 13 14
M  V30 14 1 14 15
M  V30 15 2 15 16
M  V30 16 1 16 17
M  V30 17 1 17 18
M  V30 18 2 18 19
M  V30 19 1 19 20
M  V30 20 2 20 21
M  V30 21 1 21 22
M  V30 22 2 22 23
M  V30 23 1 23 24
M  V30 24 1 24 25
M  V30 25 2 24 26
M  V30 26 1 19 27
M  V30 27 2 27 28
M  V30 28 2 12 29
M  V30 29 1 29 8
M  V30 30 1 28 13
M  V30 31 1 27 16
M  V30 32 1 26 20
M  V30 33 1 1 30
M  V30 34 1 1 31
M  V30 35 1 1 32
M  V30 36 1 3 33
M  V30 37 1 3 34
M  V30 38 1 3 35
M  V30 39 1 4 36
M  V30 40 1 4 37
M  V30 41 1 5 38
M  V30 42 1 5 39
M  V30 43 1 6 40
M  V30 44 1 6 41
M  V30 45 1 9 42
M  V30 46 1 11 43
M  V30 47 1 14 44
M  V30 48 1 15 45
M  V30 49 1 17 46
M  V30 50 1 18 47
M  V30 51 1 21 48
M  V30 52 1 22 49
M  V30 53 1 25 50
M  V30 54 1 25 51
M  V30 55 1 28 52
M  V30 END BOND
M  V30 END CTAB
M  END
>  <Dataset>  (416) 
ChEMBL_Kinases

>  <Ligand_Instance>  (416) 
nan

>  <PDB_ID>  (416) 
nan

>  <Standardized_SMILES>  (416) 
CN(C)CCCOc1cncc(-c2ccc3[nH]cc(-c4ccnc(N)n4)c3c2)n1

>  <Name>  (416) 
nan

>  <Pocket>  (416) 
nan

>  <ATP_Site>  (416) 
nan

>  <Peripheral>  (416) 
nan

>  <Num_H_Atoms_ProtBoundConf>  (416) 
nan

>  <Num_Resolved_Atoms>  (416) 
nan

>  <Num_Not_Resolved_Atoms>  (416) 
nan

$$$$
CHEMBL3264254
     RDKit          3D

  0  0  0  0  0  0  0  0  0  0999 V3000
M  V30 BEGIN CTAB
M  V30 COUNTS 55 58 0 0 0
M  V30 BEGIN ATOM
M  V30 1 C -0.015318 -0.626271 3.119591 0
M  V30 2 C 1.201530 -0.669762 3.992646 0
M  V30 3 N 2.290545 0.053598 3.286444 0
M  V30 4 C 3.448230 0.070611 4.160636 0
M  V30 5 C 4.567465 0.958532 3.728573 0
M  V30 6 C 2.449696 -0.662481 2.067792 0
M  V30 7 C 3.477306 -0.245095 1.092309 0
M  V30 8 O 3.334193 1.053497 0.619581 0
M  V30 9 C 2.231393 1.514196 -0.037213 0
M  V30 10 C 2.543638 2.856416 -0.315230 0
M  V30 11 N 1.656479 3.664995 -0.976340 0
M  V30 12 C 0.468226 3.142359 -1.358976 0
M  V30 13 C 0.154870 1.834953 -1.092973 0
M  V30 14 C -1.109810 1.250152 -1.490661 0
M  V30 15 C -2.016590 2.063362 -2.153431 0
M  V30 16 C -3.250170 1.556087 -2.563791 0
M  V30 17 C -3.546925 0.237717 -2.298492 0
M  V30 18 N -4.587611 -0.548027 -2.543629 0
M  V30 19 C -4.366404 -1.783101 -2.071596 0
M  V30 20 C -3.123532 -1.862340 -1.473005 0
M  V30 21 C -2.639601 -3.078457 -0.905512 0
M  V30 22 C -1.533247 -3.406154 -0.195802 0
M  V30 23 C -1.147270 -4.601800 0.313740 0
M  V30 24 N -1.998599 -5.637950 0.079748 0
M  V30 25 C -3.123596 -5.398443 -0.618115 0
M  V30 26 N -4.048995 -6.469059 -0.892925 0
M  V30 27 N -3.411864 -4.177151 -1.077786 0
M  V30 28 C -2.660165 -0.585769 -1.641551 0
M  V30 29 C -1.458039 -0.053749 -1.253021 0
M  V30 30 N 1.035715 1.057869 -0.444677 0
M  V30 31 H -0.077601 -1.523823 2.446375 0
M  V30 32 H -0.945171 -0.567711 3.751082 0
M  V30 33 H -0.054718 0.265774 2.464162 0
M  V30 34 H 1.543629 -1.722981 4.107256 0
M  V30 35 H 1.048395 -0.246435 4.994799 0
M  V30 36 H 3.811621 -0.961656 4.411045 0
M  V30 37 H 3.057408 0.453645 5.148757 0
M  V30 38 H 4.220337 1.773283 3.042808 0
M  V30 39 H 5.009430 1.510027 4.633009 0
M  V30 40 H 5.454135 0.448853 3.310604 0
M  V30 41 H 1.456076 -0.633842 1.545431 0
M  V30 42 H 2.541648 -1.760313 2.344424 0
M  V30 43 H 4.532509 -0.416435 1.370177 0
M  V30 44 H 3.345498 -0.967405 0.204738 0
M  V30 45 H 3.437904 3.465511 -0.094961 0
M  V30 46 H -0.201685 3.805016 -1.877575 0
M  V30 47 H -1.918446 3.084362 -2.419214 0
M  V30 48 H -3.990921 2.156359 -3.086754 0
M  V30 49 H -5.431231 -0.167476 -3.045742 0
M  V30 50 H -5.175915 -2.516178 -2.225461 0
M  V30 51 H -0.844038 -2.611061 0.014658 0
M  V30 52 H -0.231223 -4.730700 0.865495 0
M  V30 53 H -5.080546 -6.654091 -0.720196 0
M  V30 54 H -3.674295 -7.314379 -1.389406 0
M  V30 55 H -0.709270 -0.618013 -0.744600 0
M  V30 END ATOM
M  V30 BEGIN BOND
M  V30 1 1 1 2
M  V30 2 1 2 3
M  V30 3 1 3 4
M  V30 4 1 4 5
M  V30 5 1 3 6
M  V30 6 1 6 7
M  V30 7 1 7 8
M  V30 8 1 8 9
M  V30 9 2 9 10
M  V30 10 1 10 11
M  V30 11 2 11 12
M  V30 12 1 12 13
M  V30 13 1 13 14
M  V30 14 2 14 15
M  V30 15 1 15 16
M  V30 16 2 16 17
M  V30 17 1 17 18
M  V30 18 1 18 19
M  V30 19 2 19 20
M  V30 20 1 20 21
M  V30 21 2 21 22
M  V30 22 1 22 23
M  V30 23 2 23 24
M  V30 24 1 24 25
M  V30 25 1 25 26
M  V30 26 2 25 27
M  V30 27 1 20 28
M  V30 28 2 28 29
M  V30 29 2 13 30
M  V30 30 1 30 9
M  V30 31 1 29 14
M  V30 32 1 28 17
M  V30 33 1 27 21
M  V30 34 1 1 31
M  V30 35 1 1 32
M  V30 36 1 1 33
M  V30 37 1 2 34
M  V30 38 1 2 35
M  V30 39 1 4 36
M  V30 40 1 4 37
M  V30 41 1 5 38
M  V30 42 1 5 39
M  V30 43 1 5 40
M  V30 44 1 6 41
M  V30 45 1 6 42
M  V30 46 1 7 43
M  V30 47 1 7 44
M  V30 48 1 10 45
M  V30 49 1 12 46
M  V30 50 1 15 47
M  V30 51 1 16 48
M  V30 52 1 18 49
M  V30 53 1 19 50
M  V30 54 1 22 51
M  V30 55 1 23 52
M  V30 56 1 26 53
M  V30 57 1 26 54
M  V30 58 1 29 55
M  V30 END BOND
M  V30 END CTAB
M  END
>  <Dataset>  (417) 
ChEMBL_Kinases

>  <Ligand_Instance>  (417) 
nan

>  <PDB_ID>  (417) 
nan

>  <Standardized_SMILES>  (417) 
CCN(CC)CCOc1cncc(-c2ccc3[nH]cc(-c4ccnc(N)n4)c3c2)n1

>  <Name>  (417) 
nan

>  <Pocket>  (417) 
nan

>  <ATP_Site>  (417) 
nan

>  <Peripheral>  (417) 
nan

>  <Num_H_Atoms_ProtBoundConf>  (417) 
nan

>  <Num_Resolved_Atoms>  (417) 
nan

>  <Num_Not_Resolved_Atoms>  (417) 
nan

$$$$
CHEMBL3264253
     RDKit          3D

  0  0  0  0  0  0  0  0  0  0999 V3000
M  V30 BEGIN CTAB
M  V30 COUNTS 49 52 0 0 0
M  V30 BEGIN ATOM
M  V30 1 C 0.224918 -4.686277 2.048301 0
M  V30 2 N 0.896283 -3.870193 3.030083 0
M  V30 3 C -0.011924 -2.980091 3.709230 0
M  V30 4 C 1.933571 -3.103481 2.412222 0
M  V30 5 C 2.664308 -2.215237 3.388230 0
M  V30 6 O 3.656292 -1.512965 2.710609 0
M  V30 7 C 3.544592 -0.632723 1.673408 0
M  V30 8 C 4.836602 -0.198190 1.341176 0
M  V30 9 N 4.988551 0.699906 0.318349 0
M  V30 10 C 3.870441 1.123161 -0.322296 0
M  V30 11 C 2.598342 0.708078 -0.009543 0
M  V30 12 C 1.455526 1.216368 -0.740607 0
M  V30 13 C 1.653045 2.114868 -1.765684 0
M  V30 14 C 0.619838 2.648408 -2.505765 0
M  V30 15 C -0.707135 2.289793 -2.238897 0
M  V30 16 N -1.859717 2.673012 -2.816591 0
M  V30 17 C -2.841184 2.024678 -2.171808 0
M  V30 18 C -2.293364 1.228489 -1.180813 0
M  V30 19 C -3.033984 0.381196 -0.273072 0
M  V30 20 C -4.429415 0.343799 -0.399751 0
M  V30 21 C -5.281292 -0.393235 0.365593 0
M  V30 22 N -4.692977 -1.145283 1.324955 0
M  V30 23 C -3.334065 -1.116281 1.457151 0
M  V30 24 N -2.909132 -1.965909 2.514274 0
M  V30 25 N -2.513582 -0.374651 0.682456 0
M  V30 26 C -0.919137 1.383950 -1.206588 0
M  V30 27 C 0.153713 0.866144 -0.480683 0
M  V30 28 N 2.481226 -0.172952 0.997831 0
M  V30 29 H -0.854079 -4.553197 2.159036 0
M  V30 30 H 0.409509 -5.778421 2.218417 0
M  V30 31 H 0.497579 -4.403519 0.996817 0
M  V30 32 H 0.384693 -2.688637 4.715329 0
M  V30 33 H -0.994307 -3.466759 3.880782 0
M  V30 34 H -0.192669 -2.047003 3.153373 0
M  V30 35 H 1.474040 -2.421295 1.646456 0
M  V30 36 H 2.659795 -3.791336 1.956104 0
M  V30 37 H 3.148961 -2.836285 4.177379 0
M  V30 38 H 1.971579 -1.504477 3.893004 0
M  V30 39 H 5.790013 -0.494389 1.812322 0
M  V30 40 H 4.121282 1.819355 -1.097254 0
M  V30 41 H 2.585154 2.494987 -2.102827 0
M  V30 42 H 0.748423 3.357278 -3.317976 0
M  V30 43 H -1.973002 3.344045 -3.612038 0
M  V30 44 H -3.894905 2.166121 -2.456594 0
M  V30 45 H -4.915144 0.951875 -1.176456 0
M  V30 46 H -6.343689 -0.378229 0.217536 0
M  V30 47 H -2.360229 -2.693259 2.010704 0
M  V30 48 H -2.359371 -2.694393 2.009895 0
M  V30 49 H -0.061074 0.175703 0.299819 0
M  V30 END ATOM
M  V30 BEGIN BOND
M  V30 1 1 1 2
M  V30 2 1 2 3
M  V30 3 1 2 4
M  V30 4 1 4 5
M  V30 5 1 5 6
M  V30 6 1 6 7
M  V30 7 2 7 8
M  V30 8 1 8 9
M  V30 9 2 9 10
M  V30 10 1 10 11
M  V30 11 1 11 12
M  V30 12 2 12 13
M  V30 13 1 13 14
M  V30 14 2 14 15
M  V30 15 1 15 16
M  V30 16 1 16 17
M  V30 17 2 17 18
M  V30 18 1 18 19
M  V30 19 2 19 20
M  V30 20 1 20 21
M  V30 21 2 21 22
M  V30 22 1 22 23
M  V30 23 1 23 24
M  V30 24 2 23 25
M  V30 25 1 18 26
M  V30 26 2 26 27
M  V30 27 2 11 28
M  V30 28 1 28 7
M  V30 29 1 27 12
M  V30 30 1 26 15
M  V30 31 1 25 19
M  V30 32 1 1 29
M  V30 33 1 1 30
M  V30 34 1 1 31
M  V30 35 1 3 32
M  V30 36 1 3 33
M  V30 37 1 3 34
M  V30 38 1 4 35
M  V30 39 1 4 36
M  V30 40 1 5 37
M  V30 41 1 5 38
M  V30 42 1 8 39
M  V30 43 1 10 40
M  V30 44 1 13 41
M  V30 45 1 14 42
M  V30 46 1 16 43
M  V30 47 1 17 44
M  V30 48 1 20 45
M  V30 49 1 21 46
M  V30 50 1 24 47
M  V30 51 1 24 48
M  V30 52 1 27 49
M  V30 END BOND
M  V30 END CTAB
M  END
>  <Dataset>  (418) 
ChEMBL_Kinases

>  <Ligand_Instance>  (418) 
nan

>  <PDB_ID>  (418) 
nan

>  <Standardized_SMILES>  (418) 
CN(C)CCOc1cncc(-c2ccc3[nH]cc(-c4ccnc(N)n4)c3c2)n1

>  <Name>  (418) 
nan

>  <Pocket>  (418) 
nan

>  <ATP_Site>  (418) 
nan

>  <Peripheral>  (418) 
nan

>  <Num_H_Atoms_ProtBoundConf>  (418) 
nan

>  <Num_Resolved_Atoms>  (418) 
nan

>  <Num_Not_Resolved_Atoms>  (418) 
nan

$$$$
CHEMBL3264252
     RDKit          3D

  0  0  0  0  0  0  0  0  0  0999 V3000
M  V30 BEGIN CTAB
M  V30 COUNTS 41 44 0 0 0
M  V30 BEGIN ATOM
M  V30 1 C -1.087225 -5.478281 2.787021 0
M  V30 2 C -0.395381 -4.377880 2.002764 0
M  V30 3 O 0.585103 -4.883699 1.150944 0
M  V30 4 C 1.398371 -4.177196 0.302874 0
M  V30 5 C 2.285000 -4.938851 -0.429149 0
M  V30 6 N 3.118590 -4.298428 -1.287897 0
M  V30 7 C 3.064577 -2.959290 -1.405797 0
M  V30 8 C 2.195280 -2.166410 -0.693876 0
M  V30 9 C 2.115150 -0.715739 -0.801585 0
M  V30 10 C 2.924891 -0.030943 -1.643503 0
M  V30 11 C 2.848752 1.342757 -1.745743 0
M  V30 12 C 1.921540 1.994792 -0.962625 0
M  V30 13 N 1.563640 3.277199 -0.799156 0
M  V30 14 C 0.577557 3.395072 0.101833 0
M  V30 15 C 0.237881 2.128433 0.585268 0
M  V30 16 C -0.809294 1.994446 1.564074 0
M  V30 17 C -1.242244 0.924635 2.285786 0
M  V30 18 C -2.244951 0.863939 3.221442 0
M  V30 19 N -2.883579 2.051446 3.444813 0
M  V30 20 C -2.514186 3.154862 2.771762 0
M  V30 21 N -3.156587 4.419292 2.975405 0
M  V30 22 N -1.529357 3.081656 1.892918 0
M  V30 23 C 1.093356 1.311153 -0.103041 0
M  V30 24 C 1.199017 -0.039907 -0.031834 0
M  V30 25 N 1.385707 -2.841364 0.146788 0
M  V30 26 H -2.183455 -5.457978 2.693544 0
M  V30 27 H -0.695385 -6.447524 2.407173 0
M  V30 28 H -0.835571 -5.364390 3.861746 0
M  V30 29 H -1.194737 -3.844096 1.409890 0
M  V30 30 H -0.022144 -3.600138 2.716354 0
M  V30 31 H 2.426531 -6.010822 -0.426526 0
M  V30 32 H 3.738907 -2.477296 -2.096018 0
M  V30 33 H 3.668524 -0.474028 -2.281468 0
M  V30 34 H 3.477082 1.943580 -2.407973 0
M  V30 35 H 2.041736 4.034032 -1.343058 0
M  V30 36 H 0.198512 4.404742 0.320750 0
M  V30 37 H -0.751127 -0.013730 2.138710 0
M  V30 38 H -2.495644 -0.052939 3.729484 0
M  V30 39 H -3.096154 5.251379 3.587306 0
M  V30 40 H -3.961711 4.617524 2.310615 0
M  V30 41 H 0.585862 -0.636059 0.605064 0
M  V30 END ATOM
M  V30 BEGIN BOND
M  V30 1 1 1 2
M  V30 2 1 2 3
M  V30 3 1 3 4
M  V30 4 2 4 5
M  V30 5 1 5 6
M  V30 6 2 6 7
M  V30 7 1 7 8
M  V30 8 1 8 9
M  V30 9 2 9 10
M  V30 10 1 10 11
M  V30 11 2 11 12
M  V30 12 1 12 13
M  V30 13 1 13 14
M  V30 14 2 14 15
M  V30 15 1 15 16
M  V30 16 2 16 17
M  V30 17 1 17 18
M  V30 18 2 18 19
M  V30 19 1 19 20
M  V30 20 1 20 21
M  V30 21 2 20 22
M  V30 22 1 15 23
M  V30 23 2 23 24
M  V30 24 2 8 25
M  V30 25 1 25 4
M  V30 26 1 24 9
M  V30 27 1 23 12
M  V30 28 1 22 16
M  V30 29 1 1 26
M  V30 30 1 1 27
M  V30 31 1 1 28
M  V30 32 1 2 29
M  V30 33 1 2 30
M  V30 34 1 5 31
M  V30 35 1 7 32
M  V30 36 1 10 33
M  V30 37 1 11 34
M  V30 38 1 13 35
M  V30 39 1 14 36
M  V30 40 1 17 37
M  V30 41 1 18 38
M  V30 42 1 21 39
M  V30 43 1 21 40
M  V30 44 1 24 41
M  V30 END BOND
M  V30 END CTAB
M  END
>  <Dataset>  (419) 
ChEMBL_Kinases

>  <Ligand_Instance>  (419) 
nan

>  <PDB_ID>  (419) 
nan

>  <Standardized_SMILES>  (419) 
CCOc1cncc(-c2ccc3[nH]cc(-c4ccnc(N)n4)c3c2)n1

>  <Name>  (419) 
nan

>  <Pocket>  (419) 
nan

>  <ATP_Site>  (419) 
nan

>  <Peripheral>  (419) 
nan

>  <Num_H_Atoms_ProtBoundConf>  (419) 
nan

>  <Num_Resolved_Atoms>  (419) 
nan

>  <Num_Not_Resolved_Atoms>  (419) 
nan

$$$$
CHEMBL4781334
     RDKit          3D

  0  0  0  0  0  0  0  0  0  0999 V3000
M  V30 BEGIN CTAB
M  V30 COUNTS 71 74 0 0 0
M  V30 BEGIN ATOM
M  V30 1 C 4.519335 -1.552206 5.035280 0
M  V30 2 C 5.624350 -1.783086 4.312771 0
M  V30 3 C 4.978223 -0.999433 3.240789 0
M  V30 4 O 3.838576 -0.589122 3.590138 0
M  V30 5 N 5.602086 -0.756892 1.972422 0
M  V30 6 C 4.693699 0.034829 1.179639 0
M  V30 7 C 4.724305 1.410151 1.216658 0
M  V30 8 C 3.821682 2.128998 0.424762 0
M  V30 9 C 2.915871 1.448606 -0.380088 0
M  V30 10 C 1.986217 2.212179 -1.200291 0
M  V30 11 O 2.051216 2.612455 -2.392393 0
M  V30 12 N 0.709031 2.721347 -0.840202 0
M  V30 13 C 0.151053 3.405177 -1.956649 0
M  V30 14 C -1.241107 3.908945 -1.766677 0
M  V30 15 C -2.152279 2.991943 -0.995480 0
M  V30 16 C -1.400864 2.001343 -0.146145 0
M  V30 17 N -0.938769 0.859117 -0.886555 0
M  V30 18 C -2.045586 0.159489 -1.446191 0
M  V30 19 N -3.159660 0.136375 -1.541513 0
M  V30 20 C -3.967482 -0.683005 -2.165215 0
M  V30 21 C -3.422118 -1.701771 -2.830237 0
M  V30 22 C -3.845108 -2.819177 -3.665366 0
M  V30 23 N -4.239248 -4.017858 -3.108248 0
M  V30 24 C -3.512515 -4.803314 -2.244055 0
M  V30 25 C -3.245183 -4.335472 -0.870144 0
M  V30 26 N -4.170688 -4.613709 0.099992 0
M  V30 27 C -3.763130 -4.121523 1.252351 0
M  V30 28 C -2.563164 -3.523165 1.009759 0
M  V30 29 C -1.724663 -2.827030 2.026041 0
M  V30 30 C -2.449927 -2.936991 3.360338 0
M  V30 31 C -1.624272 -1.338004 1.717671 0
M  V30 32 C -0.339787 -3.369145 2.095041 0
M  V30 33 O -2.315711 -3.686487 -0.264243 0
M  V30 34 S -1.625399 -1.357954 -2.464654 0
M  V30 35 C -0.165288 2.730109 0.343500 0
M  V30 36 C 2.928722 0.070371 -0.378341 0
M  V30 37 C 3.806265 -0.700744 0.390917 0
M  V30 38 H 4.206800 -1.834411 6.040184 0
M  V30 39 H 3.580924 -1.303076 5.526689 0
M  V30 40 H 6.286880 -2.380757 4.937241 0
M  V30 41 H 6.546742 -1.154712 1.810841 0
M  V30 42 H 5.442192 1.912998 1.854081 0
M  V30 43 H 3.844996 3.206904 0.453143 0
M  V30 44 H 0.819987 4.267168 -2.163845 0
M  V30 45 H 0.193288 2.770558 -2.890771 0
M  V30 46 H -1.218079 4.941008 -1.358246 0
M  V30 47 H -1.693619 4.019659 -2.788949 0
M  V30 48 H -2.732836 3.626598 -0.291466 0
M  V30 49 H -2.920390 2.499666 -1.635811 0
M  V30 50 H -2.062656 1.692498 0.683438 0
M  V30 51 H 0.078654 0.588608 -0.992185 0
M  V30 52 H -5.063188 -0.658451 -2.226536 0
M  V30 53 H -2.965027 -3.033703 -4.354955 0
M  V30 54 H -4.631109 -2.494391 -4.427247 0
M  V30 55 H -5.107661 -4.483639 -3.446273 0
M  V30 56 H -2.506067 -5.033145 -2.740897 0
M  V30 57 H -3.965708 -5.815207 -2.177271 0
M  V30 58 H -4.325297 -4.208272 2.192277 0
M  V30 59 H -3.501001 -2.594377 3.146950 0
M  V30 60 H -1.914724 -2.254323 4.061144 0
M  V30 61 H -2.463856 -3.968584 3.718860 0
M  V30 62 H -0.710136 -1.193213 1.106252 0
M  V30 63 H -1.527812 -0.812236 2.682018 0
M  V30 64 H -2.552181 -1.065080 1.172541 0
M  V30 65 H 0.040895 -3.238904 3.143804 0
M  V30 66 H -0.259899 -4.455105 1.908672 0
M  V30 67 H 0.376428 -2.761334 1.479222 0
M  V30 68 H 0.305634 2.256793 1.207781 0
M  V30 69 H -0.446650 3.784881 0.523274 0
M  V30 70 H 2.240118 -0.489691 -0.990450 0
M  V30 71 H 3.802942 -1.779505 0.380706 0
M  V30 END ATOM
M  V30 BEGIN BOND
M  V30 1 2 1 2
M  V30 2 1 2 3
M  V30 3 2 3 4
M  V30 4 1 3 5
M  V30 5 1 5 6
M  V30 6 2 6 7
M  V30 7 1 7 8
M  V30 8 2 8 9
M  V30 9 1 9 10
M  V30 10 2 10 11
M  V30 11 1 10 12
M  V30 12 1 12 13
M  V30 13 1 13 14
M  V30 14 1 14 15
M  V30 15 1 15 16
M  V30 16 1 16 17
M  V30 17 1 17 18
M  V30 18 2 18 19
M  V30 19 1 19 20
M  V30 20 2 20 21
M  V30 21 1 21 22
M  V30 22 1 22 23
M  V30 23 1 23 24
M  V30 24 1 24 25
M  V30 25 2 25 26
M  V30 26 1 26 27
M  V30 27 2 27 28
M  V30 28 1 28 29
M  V30 29 1 29 30
M  V30 30 1 29 31
M  V30 31 1 29 32
M  V30 32 1 28 33
M  V30 33 1 21 34
M  V30 34 1 16 35
M  V30 35 1 9 36
M  V30 36 2 36 37
M  V30 37 1 37 6
M  V30 38 1 35 12
M  V30 39 1 34 18
M  V30 40 1 33 25
M  V30 41 1 1 38
M  V30 42 1 1 39
M  V30 43 1 2 40
M  V30 44 1 5 41
M  V30 45 1 7 42
M  V30 46 1 8 43
M  V30 47 1 13 44
M  V30 48 1 13 45
M  V30 49 1 14 46
M  V30 50 1 14 47
M  V30 51 1 15 48
M  V30 52 1 15 49
M  V30 53 1 16 50
M  V30 54 1 17 51
M  V30 55 1 20 52
M  V30 56 1 22 53
M  V30 57 1 22 54
M  V30 58 1 23 55
M  V30 59 1 24 56
M  V30 60 1 24 57
M  V30 61 1 27 58
M  V30 62 1 30 59
M  V30 63 1 30 60
M  V30 64 1 30 61
M  V30 65 1 31 62
M  V30 66 1 31 63
M  V30 67 1 31 64
M  V30 68 1 32 65
M  V30 69 1 32 66
M  V30 70 1 32 67
M  V30 71 1 35 68
M  V30 72 1 35 69
M  V30 73 1 36 70
M  V30 74 1 37 71
M  V30 END BOND
M  V30 END CTAB
M  END
>  <Dataset>  (420) 
ChEMBL_Kinases

>  <Ligand_Instance>  (420) 
nan

>  <PDB_ID>  (420) 
nan

>  <Standardized_SMILES>  (420) 
C=CC(=O)Nc1ccc(C(=O)N2CCCC(Nc3ncc(CNCc4ncc(C(C)(C)C)o4)s3)C2)cc1

>  <Name>  (420) 
nan

>  <Pocket>  (420) 
nan

>  <ATP_Site>  (420) 
nan

>  <Peripheral>  (420) 
nan

>  <Num_H_Atoms_ProtBoundConf>  (420) 
nan

>  <Num_Resolved_Atoms>  (420) 
nan

>  <Num_Not_Resolved_Atoms>  (420) 
nan

$$$$
CHEMBL3262590
     RDKit          3D

  0  0  0  0  0  0  0  0  0  0999 V3000
M  V30 BEGIN CTAB
M  V30 COUNTS 26 28 0 0 0
M  V30 BEGIN ATOM
M  V30 1 N -1.907594 -2.225051 2.507905 0
M  V30 2 C -0.531796 -2.190573 2.878239 0
M  V30 3 N -0.028762 -2.870233 3.950228 0
M  V30 4 C 1.298217 -2.791701 4.246170 0
M  V30 5 N 2.139221 -2.051766 3.499992 0
M  V30 6 C 1.726338 -1.350397 2.425953 0
M  V30 7 C 2.540090 -0.575655 1.624389 0
M  V30 8 C 1.981762 0.094527 0.548435 0
M  V30 9 C 0.633431 -0.004562 0.273838 0
M  V30 10 C -0.021706 0.673827 -0.842644 0
M  V30 11 C -1.379727 0.486719 -1.001206 0
M  V30 12 C -2.088691 1.095677 -2.040137 0
M  V30 13 N -1.407162 1.889792 -2.908020 0
M  V30 14 C -0.076068 2.074087 -2.753808 0
M  V30 15 F 0.603934 2.878051 -3.635487 0
M  V30 16 C 0.629574 1.487552 -1.746224 0
M  V30 17 N -0.137398 -0.767322 1.072195 0
M  V30 18 C 0.380062 -1.438051 2.136504 0
M  V30 19 H -2.456016 -3.087763 2.218722 0
M  V30 20 H -2.481669 -1.336501 2.503934 0
M  V30 21 H 1.638346 -3.351257 5.106267 0
M  V30 22 H 3.588283 -0.523243 1.871190 0
M  V30 23 H 2.606539 0.705522 -0.088860 0
M  V30 24 H -1.984005 -0.135749 -0.342171 0
M  V30 25 H -3.171292 0.932974 -2.148231 0
M  V30 26 H 1.682049 1.644166 -1.639028 0
M  V30 END ATOM
M  V30 BEGIN BOND
M  V30 1 1 1 2
M  V30 2 2 2 3
M  V30 3 1 3 4
M  V30 4 2 4 5
M  V30 5 1 5 6
M  V30 6 2 6 7
M  V30 7 1 7 8
M  V30 8 2 8 9
M  V30 9 1 9 10
M  V30 10 2 10 11
M  V30 11 1 11 12
M  V30 12 2 12 13
M  V30 13 1 13 14
M  V30 14 1 14 15
M  V30 15 2 14 16
M  V30 16 1 9 17
M  V30 17 2 17 18
M  V30 18 1 18 2
M  V30 19 1 18 6
M  V30 20 1 16 10
M  V30 21 1 1 19
M  V30 22 1 1 20
M  V30 23 1 4 21
M  V30 24 1 7 22
M  V30 25 1 8 23
M  V30 26 1 11 24
M  V30 27 1 12 25
M  V30 28 1 16 26
M  V30 END BOND
M  V30 END CTAB
M  END
>  <Dataset>  (421) 
ChEMBL_Kinases

>  <Ligand_Instance>  (421) 
nan

>  <PDB_ID>  (421) 
nan

>  <Standardized_SMILES>  (421) 
Nc1ncnc2ccc(-c3ccnc(F)c3)nc12

>  <Name>  (421) 
nan

>  <Pocket>  (421) 
nan

>  <ATP_Site>  (421) 
nan

>  <Peripheral>  (421) 
nan

>  <Num_H_Atoms_ProtBoundConf>  (421) 
nan

>  <Num_Resolved_Atoms>  (421) 
nan

>  <Num_Not_Resolved_Atoms>  (421) 
nan

$$$$
CHEMBL4781079
     RDKit          3D

  0  0  0  0  0  0  0  0  0  0999 V3000
M  V30 BEGIN CTAB
M  V30 COUNTS 68 74 0 0 0
M  V30 BEGIN ATOM
M  V30 1 F -2.581449 2.399054 5.747874 0
M  V30 2 C -2.280391 1.967515 4.473024 0
M  V30 3 F -2.873601 0.766452 4.233350 0
M  V30 4 C -2.804543 2.976289 3.491596 0
M  V30 5 C -1.590639 3.541365 2.782456 0
M  V30 6 N -0.525000 3.297040 3.710228 0
M  V30 7 C 0.795574 3.461323 3.211599 0
M  V30 8 C 1.193288 2.598939 2.100985 0
M  V30 9 C 1.755443 1.361884 2.457863 0
M  V30 10 N 2.179937 0.448887 1.567409 0
M  V30 11 C 2.084014 0.681517 0.229320 0
M  V30 12 C 1.535977 1.888177 -0.158537 0
M  V30 13 C 1.449081 2.121737 -1.592868 0
M  V30 14 C 1.554148 3.409556 -2.113178 0
M  V30 15 C 1.481899 3.603389 -3.477983 0
M  V30 16 C 1.308769 2.595868 -4.401658 0
M  V30 17 N 1.236111 2.385455 -5.717387 0
M  V30 18 N 1.098236 1.059997 -5.911106 0
M  V30 19 C 1.076792 0.392314 -4.732050 0
M  V30 20 C 0.971369 -0.917152 -5.163873 0
M  V30 21 C 0.342954 -1.443451 -3.911778 0
M  V30 22 C 0.009814 -2.808401 -3.815189 0
M  V30 23 C -0.521896 -3.855468 -3.072309 0
M  V30 24 N -0.960009 -3.404488 -1.773196 0
M  V30 25 C -1.921769 -2.385677 -1.398992 0
M  V30 26 C -2.928306 -3.005672 -0.429638 0
M  V30 27 C -2.240884 -3.518108 0.809650 0
M  V30 28 C -0.728166 -3.418933 0.670062 0
M  V30 29 C -0.344282 -4.075451 -0.629890 0
M  V30 30 C -0.606495 -5.145194 -3.544180 0
M  V30 31 C -0.152220 -5.448501 -4.808154 0
M  V30 32 C 0.399080 -4.494444 -5.647763 0
M  V30 33 C 0.418625 -3.273911 -5.053829 0
M  V30 34 N 0.871612 -2.155943 -5.571509 0
M  V30 35 C 1.212022 1.357749 -3.804603 0
M  V30 36 C 1.274321 1.076560 -2.473282 0
M  V30 37 C 1.098483 2.829873 0.741312 0
M  V30 38 C -0.774517 1.962238 4.231935 0
M  V30 39 H -3.380423 3.759103 3.996547 0
M  V30 40 H -3.474710 2.488502 2.723797 0
M  V30 41 H -1.402058 3.001354 1.812442 0
M  V30 42 H -1.771026 4.605558 2.551021 0
M  V30 43 H 0.946301 4.520812 2.926663 0
M  V30 44 H 1.502846 3.302798 4.069858 0
M  V30 45 H 1.882675 1.078411 3.500627 0
M  V30 46 H 2.453847 -0.113269 -0.400983 0
M  V30 47 H 1.693670 4.243661 -1.445743 0
M  V30 48 H 1.563599 4.609628 -3.901713 0
M  V30 49 H 1.300925 3.289959 -6.277626 0
M  V30 50 H -0.056436 -1.119336 -2.887432 0
M  V30 51 H -2.492452 -2.035732 -2.271879 0
M  V30 52 H -1.426776 -1.495471 -0.957427 0
M  V30 53 H -3.380209 -3.850818 -0.961436 0
M  V30 54 H -3.697118 -2.269004 -0.166059 0
M  V30 55 H -2.478814 -4.593982 0.953787 0
M  V30 56 H -2.598937 -2.999780 1.728301 0
M  V30 57 H -0.421147 -2.359332 0.706061 0
M  V30 58 H -0.226333 -3.980471 1.482972 0
M  V30 59 H -0.753699 -5.115621 -0.585131 0
M  V30 60 H 0.752766 -4.097151 -0.777341 0
M  V30 61 H -1.048127 -5.790016 -2.816430 0
M  V30 62 H -0.247619 -6.481682 -5.124811 0
M  V30 63 H 0.757987 -4.687857 -6.626789 0
M  V30 64 H 1.309498 -1.982055 -6.553266 0
M  V30 65 H 1.239586 0.131029 -2.014455 0
M  V30 66 H 0.676288 3.761518 0.469071 0
M  V30 67 H -0.497699 1.172482 3.521987 0
M  V30 68 H -0.260713 1.849235 5.204522 0
M  V30 END ATOM
M  V30 BEGIN BOND
M  V30 1 1 1 2
M  V30 2 1 2 3
M  V30 3 1 2 4
M  V30 4 1 4 5
M  V30 5 1 5 6
M  V30 6 1 6 7
M  V30 7 1 7 8
M  V30 8 2 8 9
M  V30 9 1 9 10
M  V30 10 2 10 11
M  V30 11 1 11 12
M  V30 12 1 12 13
M  V30 13 2 13 14
M  V30 14 1 14 15
M  V30 15 2 15 16
M  V30 16 1 16 17
M  V30 17 1 17 18
M  V30 18 2 18 19
M  V30 19 1 19 20
M  V30 20 2 20 21
M  V30 21 1 21 22
M  V30 22 2 22 23
M  V30 23 1 23 24
M  V30 24 1 24 25
M  V30 25 1 25 26
M  V30 26 1 26 27
M  V30 27 1 27 28
M  V30 28 1 28 29
M  V30 29 1 23 30
M  V30 30 2 30 31
M  V30 31 1 31 32
M  V30 32 2 32 33
M  V30 33 1 33 34
M  V30 34 1 19 35
M  V30 35 2 35 36
M  V30 36 2 12 37
M  V30 37 1 6 38
M  V30 38 1 38 2
M  V30 39 1 37 8
M  V30 40 1 36 13
M  V30 41 1 35 16
M  V30 42 1 34 20
M  V30 43 1 33 22
M  V30 44 1 29 24
M  V30 45 1 4 39
M  V30 46 1 4 40
M  V30 47 1 5 41
M  V30 48 1 5 42
M  V30 49 1 7 43
M  V30 50 1 7 44
M  V30 51 1 9 45
M  V30 52 1 11 46
M  V30 53 1 14 47
M  V30 54 1 15 48
M  V30 55 1 17 49
M  V30 56 1 21 50
M  V30 57 1 25 51
M  V30 58 1 25 52
M  V30 59 1 26 53
M  V30 60 1 26 54
M  V30 61 1 27 55
M  V30 62 1 27 56
M  V30 63 1 28 57
M  V30 64 1 28 58
M  V30 65 1 29 59
M  V30 66 1 29 60
M  V30 67 1 30 61
M  V30 68 1 31 62
M  V30 69 1 32 63
M  V30 70 1 34 64
M  V30 71 1 36 65
M  V30 72 1 37 66
M  V30 73 1 38 67
M  V30 74 1 38 68
M  V30 END BOND
M  V30 END CTAB
M  END
>  <Dataset>  (422) 
ChEMBL_Kinases

>  <Ligand_Instance>  (422) 
nan

>  <PDB_ID>  (422) 
nan

>  <Standardized_SMILES>  (422) 
FC1(F)CCN(Cc2cncc(-c3ccc4[nH]nc(-c5cc6c(N7CCCCC7)cccc6[nH]5)c4c3)c2)C1

>  <Name>  (422) 
nan

>  <Pocket>  (422) 
nan

>  <ATP_Site>  (422) 
nan

>  <Peripheral>  (422) 
nan

>  <Num_H_Atoms_ProtBoundConf>  (422) 
nan

>  <Num_Resolved_Atoms>  (422) 
nan

>  <Num_Not_Resolved_Atoms>  (422) 
nan

$$$$
CHEMBL4211454
     RDKit          3D

  0  0  0  0  0  0  0  0  0  0999 V3000
M  V30 BEGIN CTAB
M  V30 COUNTS 54 59 0 0 0
M  V30 BEGIN ATOM
M  V30 1 F 5.310435 -6.159128 0.982973 0
M  V30 2 C 4.571711 -5.202822 1.626020 0
M  V30 3 C 4.032646 -5.487484 2.858362 0
M  V30 4 C 3.283496 -4.525869 3.516959 0
M  V30 5 C 3.067471 -3.284592 2.958203 0
M  V30 6 C 3.624589 -3.022206 1.709280 0
M  V30 7 N 3.344791 -1.711164 1.216049 0
M  V30 8 C 4.143373 -0.637252 1.297447 0
M  V30 9 N 3.471604 0.365224 0.704215 0
M  V30 10 C 2.274689 -0.081455 0.262038 0
M  V30 11 C 1.288359 0.648932 -0.404811 0
M  V30 12 N 1.455228 2.011093 -0.703267 0
M  V30 13 C 0.465418 2.804863 -1.387839 0
M  V30 14 C -0.808551 2.844064 -0.608235 0
M  V30 15 N -1.893395 2.064740 -0.614633 0
M  V30 16 C -2.768770 2.519232 0.273981 0
M  V30 17 C -4.021589 2.071268 0.639593 0
M  V30 18 F -4.556220 0.971786 0.046172 0
M  V30 19 C -4.719947 2.764584 1.621439 0
M  V30 20 F -5.956124 2.360113 2.013087 0
M  V30 21 C -4.179537 3.883151 2.227196 0
M  V30 22 C -2.930353 4.339757 1.870861 0
M  V30 23 C -2.255290 3.632957 0.891567 0
M  V30 24 N -1.050847 3.792710 0.316619 0
M  V30 25 N 0.190144 -0.055309 -0.729529 0
M  V30 26 C 0.069415 -1.369757 -0.424703 0
M  V30 27 N -1.079283 -2.147752 -0.754859 0
M  V30 28 C -1.202223 -3.539833 -0.418703 0
M  V30 29 C -2.346293 -4.137951 -1.171981 0
M  V30 30 O -3.570859 -3.556588 -0.840353 0
M  V30 31 C -3.467990 -2.171607 -0.727153 0
M  V30 32 C -2.238170 -1.651365 -1.452595 0
M  V30 33 N 1.065156 -2.003937 0.220140 0
M  V30 34 C 2.192662 -1.402900 0.587146 0
M  V30 35 C 4.370928 -3.968307 1.043953 0
M  V30 36 H 4.193333 -6.455316 3.308712 0
M  V30 37 H 2.878912 -4.794232 4.484538 0
M  V30 38 H 2.471330 -2.563194 3.516511 0
M  V30 39 H 5.127511 -0.569234 1.743501 0
M  V30 40 H 2.346877 2.472952 -0.412184 0
M  V30 41 H 0.819979 3.832857 -1.550990 0
M  V30 42 H 0.255708 2.351145 -2.385446 0
M  V30 43 H -4.726297 4.419444 2.990440 0
M  V30 44 H -2.460275 5.215428 2.317486 0
M  V30 45 H -0.404124 4.579886 0.586484 0
M  V30 46 H -0.299499 -4.135433 -0.638359 0
M  V30 47 H -1.404716 -3.614769 0.673651 0
M  V30 48 H -2.401806 -5.222471 -0.917372 0
M  V30 49 H -2.171694 -4.058967 -2.255658 0
M  V30 50 H -4.367995 -1.703263 -1.141850 0
M  V30 51 H -3.397785 -1.935341 0.338638 0
M  V30 52 H -2.236737 -2.027925 -2.494457 0
M  V30 53 H -2.285523 -0.564635 -1.479156 0
M  V30 54 H 4.777089 -3.707578 0.079568 0
M  V30 END ATOM
M  V30 BEGIN BOND
M  V30 1 1 1 2
M  V30 2 2 2 3
M  V30 3 1 3 4
M  V30 4 2 4 5
M  V30 5 1 5 6
M  V30 6 1 6 7
M  V30 7 1 7 8
M  V30 8 2 8 9
M  V30 9 1 9 10
M  V30 10 2 10 11
M  V30 11 1 11 12
M  V30 12 1 12 13
M  V30 13 1 13 14
M  V30 14 2 14 15
M  V30 15 1 15 16
M  V30 16 2 16 17
M  V30 17 1 17 18
M  V30 18 1 17 19
M  V30 19 1 19 20
M  V30 20 2 19 21
M  V30 21 1 21 22
M  V30 22 2 22 23
M  V30 23 1 23 24
M  V30 24 1 11 25
M  V30 25 2 25 26
M  V30 26 1 26 27
M  V30 27 1 27 28
M  V30 28 1 28 29
M  V30 29 1 29 30
M  V30 30 1 30 31
M  V30 31 1 31 32
M  V30 32 1 26 33
M  V30 33 2 33 34
M  V30 34 2 6 35
M  V30 35 1 35 2
M  V30 36 1 34 7
M  V30 37 1 34 10
M  V30 38 1 24 14
M  V30 39 1 32 27
M  V30 40 1 23 16
M  V30 41 1 3 36
M  V30 42 1 4 37
M  V30 43 1 5 38
M  V30 44 1 8 39
M  V30 45 1 12 40
M  V30 46 1 13 41
M  V30 47 1 13 42
M  V30 48 1 21 43
M  V30 49 1 22 44
M  V30 50 1 24 45
M  V30 51 1 28 46
M  V30 52 1 28 47
M  V30 53 1 29 48
M  V30 54 1 29 49
M  V30 55 1 31 50
M  V30 56 1 31 51
M  V30 57 1 32 52
M  V30 58 1 32 53
M  V30 59 1 35 54
M  V30 END BOND
M  V30 END CTAB
M  END
>  <Dataset>  (423) 
ChEMBL_Kinases

>  <Ligand_Instance>  (423) 
nan

>  <PDB_ID>  (423) 
nan

>  <Standardized_SMILES>  (423) 
Fc1cccc(-n2cnc3c(NCc4nc5c(F)c(F)ccc5[nH]4)nc(N4CCOCC4)nc32)c1

>  <Name>  (423) 
nan

>  <Pocket>  (423) 
nan

>  <ATP_Site>  (423) 
nan

>  <Peripheral>  (423) 
nan

>  <Num_H_Atoms_ProtBoundConf>  (423) 
nan

>  <Num_Resolved_Atoms>  (423) 
nan

>  <Num_Not_Resolved_Atoms>  (423) 
nan

$$$$
CHEMBL4211722
     RDKit          3D

  0  0  0  0  0  0  0  0  0  0999 V3000
M  V30 BEGIN CTAB
M  V30 COUNTS 47 52 0 0 0
M  V30 BEGIN ATOM
M  V30 1 C 2.433219 -2.593838 -1.947334 0
M  V30 2 O 2.140175 -1.351248 -1.355603 0
M  V30 3 C 2.397783 -1.151688 -0.011474 0
M  V30 4 C 2.934614 -2.059381 0.879515 0
M  V30 5 C 3.144329 -1.738333 2.202625 0
M  V30 6 C 2.806347 -0.474033 2.641516 0
M  V30 7 C 2.268515 0.450749 1.771084 0
M  V30 8 C 2.060410 0.123561 0.445714 0
M  V30 9 C 1.481430 1.202729 -0.370708 0
M  V30 10 C 2.116920 2.191221 -1.096374 0
M  V30 11 N 1.124332 2.922779 -1.661196 0
M  V30 12 N -0.052928 2.436645 -1.320740 0
M  V30 13 C -1.301380 2.794862 -1.611804 0
M  V30 14 C -2.373522 2.084277 -1.101852 0
M  V30 15 C -2.218443 0.988597 -0.281177 0
M  V30 16 C -3.356089 0.271141 0.232647 0
M  V30 17 C -4.679733 0.569535 -0.015232 0
M  V30 18 C -5.731446 -0.154430 0.505092 0
M  V30 19 N -5.503568 -1.219344 1.304221 0
M  V30 20 C -4.234389 -1.541161 1.568549 0
M  V30 21 N -3.815868 -2.557253 2.334871 0
M  V30 22 C -2.472897 -2.551013 2.355756 0
M  V30 23 C -2.048775 -1.489294 1.571411 0
M  V30 24 C -3.140539 -0.831781 1.059910 0
M  V30 25 N -0.936908 0.688875 -0.033139 0
M  V30 26 C 0.098449 1.359962 -0.514313 0
M  V30 27 C 3.123542 -0.380261 4.077387 0
M  V30 28 N 3.762708 -1.607231 4.428713 0
M  V30 29 C 3.696377 -2.522405 3.334342 0
M  V30 30 H 1.653134 -3.332425 -1.626154 0
M  V30 31 H 2.444954 -2.570853 -3.039575 0
M  V30 32 H 3.397092 -3.013264 -1.585585 0
M  V30 33 H 3.169348 -3.026261 0.446548 0
M  V30 34 H 2.017312 1.442833 2.172908 0
M  V30 35 H 3.193273 2.286259 -1.146862 0
M  V30 36 H -1.423888 3.659504 -2.259425 0
M  V30 37 H -3.329703 2.460375 -1.400712 0
M  V30 38 H -4.894696 1.400376 -0.639421 0
M  V30 39 H -6.746768 0.129046 0.274211 0
M  V30 40 H -4.357538 -3.273941 2.859479 0
M  V30 41 H -1.765487 -3.220883 2.869174 0
M  V30 42 H -1.039548 -1.216210 1.386790 0
M  V30 43 H 2.262754 -0.118971 4.720635 0
M  V30 44 H 3.890203 0.436387 4.201300 0
M  V30 45 H 4.753225 -1.500547 4.748681 0
M  V30 46 H 4.659051 -3.012633 3.096339 0
M  V30 47 H 2.984703 -3.335300 3.650858 0
M  V30 END ATOM
M  V30 BEGIN BOND
M  V30 1 1 1 2
M  V30 2 1 2 3
M  V30 3 2 3 4
M  V30 4 1 4 5
M  V30 5 2 5 6
M  V30 6 1 6 7
M  V30 7 2 7 8
M  V30 8 1 8 9
M  V30 9 1 9 10
M  V30 10 2 10 11
M  V30 11 1 11 12
M  V30 12 1 12 13
M  V30 13 2 13 14
M  V30 14 1 14 15
M  V30 15 1 15 16
M  V30 16 2 16 17
M  V30 17 1 17 18
M  V30 18 2 18 19
M  V30 19 1 19 20
M  V30 20 1 20 21
M  V30 21 1 21 22
M  V30 22 2 22 23
M  V30 23 1 23 24
M  V30 24 2 15 25
M  V30 25 1 25 26
M  V30 26 1 6 27
M  V30 27 1 27 28
M  V30 28 1 28 29
M  V30 29 1 8 3
M  V30 30 2 26 9
M  V30 31 1 29 5
M  V30 32 1 26 12
M  V30 33 1 24 16
M  V30 34 2 24 20
M  V30 35 1 1 30
M  V30 36 1 1 31
M  V30 37 1 1 32
M  V30 38 1 4 33
M  V30 39 1 7 34
M  V30 40 1 10 35
M  V30 41 1 13 36
M  V30 42 1 14 37
M  V30 43 1 17 38
M  V30 44 1 18 39
M  V30 45 1 21 40
M  V30 46 1 22 41
M  V30 47 1 23 42
M  V30 48 1 27 43
M  V30 49 1 27 44
M  V30 50 1 28 45
M  V30 51 1 29 46
M  V30 52 1 29 47
M  V30 END BOND
M  V30 END CTAB
M  END
>  <Dataset>  (424) 
ChEMBL_Kinases

>  <Ligand_Instance>  (424) 
nan

>  <PDB_ID>  (424) 
nan

>  <Standardized_SMILES>  (424) 
COc1cc2c(cc1-c1cnn3ccc(-c4ccnc5[nH]ccc45)nc13)CNC2

>  <Name>  (424) 
nan

>  <Pocket>  (424) 
nan

>  <ATP_Site>  (424) 
nan

>  <Peripheral>  (424) 
nan

>  <Num_H_Atoms_ProtBoundConf>  (424) 
nan

>  <Num_Resolved_Atoms>  (424) 
nan

>  <Num_Not_Resolved_Atoms>  (424) 
nan

$$$$
CHEMBL4780802
     RDKit          3D

  0  0  0  0  0  0  0  0  0  0999 V3000
M  V30 BEGIN CTAB
M  V30 COUNTS 66 72 0 0 0
M  V30 BEGIN ATOM
M  V30 1 F 1.331446 -1.288427 4.742897 0
M  V30 2 C 1.520689 -1.457841 3.374814 0
M  V30 3 F 0.308133 -1.153016 2.766152 0
M  V30 4 C 2.001624 -2.827067 3.022720 0
M  V30 5 C 3.415385 -2.682754 2.519487 0
M  V30 6 N 3.483351 -1.349237 2.011898 0
M  V30 7 C 3.131451 -1.316249 0.635519 0
M  V30 8 C 3.265566 0.082538 0.072428 0
M  V30 9 C 4.618801 0.235119 -0.251387 0
M  V30 10 N 4.831377 1.495929 -0.739591 0
M  V30 11 C 3.837364 2.350955 -0.844603 0
M  V30 12 C 2.616573 2.554906 -0.674618 0
M  V30 13 C 1.167578 2.803952 -0.473983 0
M  V30 14 C 1.301303 4.218182 -0.508205 0
M  V30 15 C 0.224198 5.099777 -0.288413 0
M  V30 16 C -1.001674 4.519075 -0.033129 0
M  V30 17 N -2.258006 4.869550 0.255682 0
M  V30 18 N -3.010756 3.816192 0.425501 0
M  V30 19 C -2.331651 2.665905 0.267064 0
M  V30 20 C -2.879580 1.329530 0.393018 0
M  V30 21 C -2.308560 0.102595 0.149820 0
M  V30 22 C -3.379591 -0.761467 0.373410 0
M  V30 23 C -3.361717 -2.134596 0.261270 0
M  V30 24 N -2.311020 -2.990402 -0.159054 0
M  V30 25 C -1.960837 -2.810277 -1.569186 0
M  V30 26 C -1.436232 -4.104827 -2.169452 0
M  V30 27 C -0.194538 -4.507570 -1.446152 0
M  V30 28 C -0.200020 -4.142030 0.001241 0
M  V30 29 C -1.575304 -3.994239 0.593664 0
M  V30 30 C -4.538397 -2.852255 0.527322 0
M  V30 31 C -5.667523 -2.152202 0.888332 0
M  V30 32 N -5.670069 -0.794333 0.990179 0
M  V30 33 C -4.535877 -0.116348 0.733483 0
M  V30 34 N -4.171406 1.176063 0.729182 0
M  V30 35 C -1.086416 3.151997 -0.013033 0
M  V30 36 N -0.047789 2.333017 -0.223150 0
M  V30 37 C 2.374712 1.161959 -0.134230 0
M  V30 38 C 2.642031 -0.586801 2.897166 0
M  V30 39 H 1.356227 -3.325491 2.266433 0
M  V30 40 H 2.006225 -3.425043 3.964806 0
M  V30 41 H 4.140027 -2.739288 3.365810 0
M  V30 42 H 3.642005 -3.456566 1.743091 0
M  V30 43 H 2.032158 -1.584841 0.510836 0
M  V30 44 H 3.654414 -2.023308 -0.011336 0
M  V30 45 H 5.552354 -0.259515 -0.261198 0
M  V30 46 H 3.886128 3.421106 -1.229033 0
M  V30 47 H 2.110517 4.966205 -0.677237 0
M  V30 48 H 0.107583 6.184727 -0.273722 0
M  V30 49 H -2.566041 5.882198 0.324973 0
M  V30 50 H -1.310926 -0.118567 -0.135568 0
M  V30 51 H -2.955937 -2.656288 -2.098685 0
M  V30 52 H -1.312177 -1.964605 -1.757308 0
M  V30 53 H -1.195642 -3.920423 -3.231483 0
M  V30 54 H -2.224494 -4.892499 -2.155189 0
M  V30 55 H 0.686587 -4.006578 -1.947799 0
M  V30 56 H -0.079205 -5.620339 -1.540470 0
M  V30 57 H 0.354738 -3.189089 0.103954 0
M  V30 58 H 0.364361 -4.926500 0.578038 0
M  V30 59 H -1.568279 -3.761831 1.677465 0
M  V30 60 H -2.110913 -4.964207 0.492674 0
M  V30 61 H -4.654156 -3.946863 0.479305 0
M  V30 62 H -6.613903 -2.618826 1.118891 0
M  V30 63 H -4.931676 1.880865 0.985447 0
M  V30 64 H 1.483001 0.549053 0.246178 0
M  V30 65 H 3.283295 -0.376438 3.805845 0
M  V30 66 H 2.275889 0.373346 2.468457 0
M  V30 END ATOM
M  V30 BEGIN BOND
M  V30 1 1 1 2
M  V30 2 1 2 3
M  V30 3 1 2 4
M  V30 4 1 4 5
M  V30 5 1 5 6
M  V30 6 1 6 7
M  V30 7 1 7 8
M  V30 8 2 8 9
M  V30 9 1 9 10
M  V30 10 2 10 11
M  V30 11 1 11 12
M  V30 12 1 12 13
M  V30 13 2 13 14
M  V30 14 1 14 15
M  V30 15 2 15 16
M  V30 16 1 16 17
M  V30 17 1 17 18
M  V30 18 2 18 19
M  V30 19 1 19 20
M  V30 20 2 20 21
M  V30 21 1 21 22
M  V30 22 2 22 23
M  V30 23 1 23 24
M  V30 24 1 24 25
M  V30 25 1 25 26
M  V30 26 1 26 27
M  V30 27 1 27 28
M  V30 28 1 28 29
M  V30 29 1 23 30
M  V30 30 2 30 31
M  V30 31 1 31 32
M  V30 32 2 32 33
M  V30 33 1 33 34
M  V30 34 1 19 35
M  V30 35 2 35 36
M  V30 36 2 12 37
M  V30 37 1 6 38
M  V30 38 1 38 2
M  V30 39 1 37 8
M  V30 40 1 36 13
M  V30 41 1 35 16
M  V30 42 1 34 20
M  V30 43 1 33 22
M  V30 44 1 29 24
M  V30 45 1 4 39
M  V30 46 1 4 40
M  V30 47 1 5 41
M  V30 48 1 5 42
M  V30 49 1 7 43
M  V30 50 1 7 44
M  V30 51 1 9 45
M  V30 52 1 11 46
M  V30 53 1 14 47
M  V30 54 1 15 48
M  V30 55 1 17 49
M  V30 56 1 21 50
M  V30 57 1 25 51
M  V30 58 1 25 52
M  V30 59 1 26 53
M  V30 60 1 26 54
M  V30 61 1 27 55
M  V30 62 1 27 56
M  V30 63 1 28 57
M  V30 64 1 28 58
M  V30 65 1 29 59
M  V30 66 1 29 60
M  V30 67 1 30 61
M  V30 68 1 31 62
M  V30 69 1 34 63
M  V30 70 1 37 64
M  V30 71 1 38 65
M  V30 72 1 38 66
M  V30 END BOND
M  V30 END CTAB
M  END
>  <Dataset>  (425) 
ChEMBL_Kinases

>  <Ligand_Instance>  (425) 
nan

>  <PDB_ID>  (425) 
nan

>  <Standardized_SMILES>  (425) 
FC1(F)CCN(Cc2cncc(-c3ccc4[nH]nc(-c5cc6c(N7CCCCC7)ccnc6[nH]5)c4n3)c2)C1

>  <Name>  (425) 
nan

>  <Pocket>  (425) 
nan

>  <ATP_Site>  (425) 
nan

>  <Peripheral>  (425) 
nan

>  <Num_H_Atoms_ProtBoundConf>  (425) 
nan

>  <Num_Resolved_Atoms>  (425) 
nan

>  <Num_Not_Resolved_Atoms>  (425) 
nan

$$$$
CHEMBL3264261
     RDKit          3D

  0  0  0  0  0  0  0  0  0  0999 V3000
M  V30 BEGIN CTAB
M  V30 COUNTS 53 56 0 0 0
M  V30 BEGIN ATOM
M  V30 1 C 3.739166 -2.574581 5.062286 0
M  V30 2 N 3.225597 -1.656489 4.029046 0
M  V30 3 C 1.777985 -1.660008 4.144287 0
M  V30 4 C 3.784889 -0.355637 4.335999 0
M  V30 5 C 3.393414 0.729114 3.391321 0
M  V30 6 N 3.807975 0.465477 2.027977 0
M  V30 7 C 5.244437 0.494494 1.793696 0
M  V30 8 C 2.968530 0.187056 0.913276 0
M  V30 9 C 3.497298 -0.038593 -0.351057 0
M  V30 10 N 2.700464 -0.296329 -1.387742 0
M  V30 11 C 1.363663 -0.350316 -1.263491 0
M  V30 12 C 0.806799 -0.131662 -0.023139 0
M  V30 13 C -0.628929 -0.166128 0.232154 0
M  V30 14 C -1.051615 0.070894 1.539186 0
M  V30 15 C -2.411162 0.049942 1.834531 0
M  V30 16 C -3.348762 -0.203798 0.844103 0
M  V30 17 N -4.683880 -0.302622 0.763946 0
M  V30 18 C -5.078729 -0.578919 -0.488586 0
M  V30 19 C -3.964670 -0.675807 -1.315410 0
M  V30 20 C -4.118771 -0.972816 -2.713560 0
M  V30 21 C -3.235159 -1.027752 -3.747205 0
M  V30 22 C -3.477343 -1.312805 -5.060777 0
M  V30 23 N -4.747994 -1.575319 -5.393466 0
M  V30 24 C -5.681996 -1.541777 -4.434980 0
M  V30 25 N -7.077079 -1.811098 -4.702627 0
M  V30 26 N -5.361003 -1.252556 -3.165537 0
M  V30 27 C -2.936354 -0.437959 -0.446855 0
M  V30 28 C -1.593834 -0.411394 -0.707953 0
M  V30 29 N 1.622542 0.126895 1.011059 0
M  V30 30 H 3.543944 -2.156349 6.076217 0
M  V30 31 H 3.192426 -3.537058 4.998566 0
M  V30 32 H 4.813953 -2.772037 4.948912 0
M  V30 33 H 1.452746 -1.822045 5.192967 0
M  V30 34 H 1.344375 -0.737335 3.695764 0
M  V30 35 H 1.381007 -2.510136 3.551892 0
M  V30 36 H 4.896574 -0.487920 4.247735 0
M  V30 37 H 3.588874 -0.128290 5.387393 0
M  V30 38 H 3.984360 1.639490 3.695293 0
M  V30 39 H 2.340836 1.044900 3.468296 0
M  V30 40 H 5.837173 0.472055 2.724897 0
M  V30 41 H 5.555596 -0.408683 1.192980 0
M  V30 42 H 5.532463 1.363027 1.177225 0
M  V30 43 H 4.559558 -0.013414 -0.537430 0
M  V30 44 H 0.749449 -0.560600 -2.123583 0
M  V30 45 H -0.395013 0.277350 2.377717 0
M  V30 46 H -2.795141 0.226341 2.830475 0
M  V30 47 H -5.276140 -0.166824 1.617726 0
M  V30 48 H -6.154444 -0.682564 -0.671688 0
M  V30 49 H -2.206972 -0.816209 -3.528914 0
M  V30 50 H -2.694072 -1.326710 -5.790333 0
M  V30 51 H -7.054129 -2.839319 -4.517650 0
M  V30 52 H -7.947842 -1.272899 -4.993014 0
M  V30 53 H -1.198992 -0.588260 -1.674322 0
M  V30 END ATOM
M  V30 BEGIN BOND
M  V30 1 1 1 2
M  V30 2 1 2 3
M  V30 3 1 2 4
M  V30 4 1 4 5
M  V30 5 1 5 6
M  V30 6 1 6 7
M  V30 7 1 6 8
M  V30 8 2 8 9
M  V30 9 1 9 10
M  V30 10 2 10 11
M  V30 11 1 11 12
M  V30 12 1 12 13
M  V30 13 2 13 14
M  V30 14 1 14 15
M  V30 15 2 15 16
M  V30 16 1 16 17
M  V30 17 1 17 18
M  V30 18 2 18 19
M  V30 19 1 19 20
M  V30 20 2 20 21
M  V30 21 1 21 22
M  V30 22 2 22 23
M  V30 23 1 23 24
M  V30 24 1 24 25
M  V30 25 2 24 26
M  V30 26 1 19 27
M  V30 27 2 27 28
M  V30 28 2 12 29
M  V30 29 1 29 8
M  V30 30 1 28 13
M  V30 31 1 27 16
M  V30 32 1 26 20
M  V30 33 1 1 30
M  V30 34 1 1 31
M  V30 35 1 1 32
M  V30 36 1 3 33
M  V30 37 1 3 34
M  V30 38 1 3 35
M  V30 39 1 4 36
M  V30 40 1 4 37
M  V30 41 1 5 38
M  V30 42 1 5 39
M  V30 43 1 7 40
M  V30 44 1 7 41
M  V30 45 1 7 42
M  V30 46 1 9 43
M  V30 47 1 11 44
M  V30 48 1 14 45
M  V30 49 1 15 46
M  V30 50 1 17 47
M  V30 51 1 18 48
M  V30 52 1 21 49
M  V30 53 1 22 50
M  V30 54 1 25 51
M  V30 55 1 25 52
M  V30 56 1 28 53
M  V30 END BOND
M  V30 END CTAB
M  END
>  <Dataset>  (426) 
ChEMBL_Kinases

>  <Ligand_Instance>  (426) 
nan

>  <PDB_ID>  (426) 
nan

>  <Standardized_SMILES>  (426) 
CN(C)CCN(C)c1cncc(-c2ccc3[nH]cc(-c4ccnc(N)n4)c3c2)n1

>  <Name>  (426) 
nan

>  <Pocket>  (426) 
nan

>  <ATP_Site>  (426) 
nan

>  <Peripheral>  (426) 
nan

>  <Num_H_Atoms_ProtBoundConf>  (426) 
nan

>  <Num_Resolved_Atoms>  (426) 
nan

>  <Num_Not_Resolved_Atoms>  (426) 
nan

$$$$
CHEMBL4754966
     RDKit          3D

  0  0  0  0  0  0  0  0  0  0999 V3000
M  V30 BEGIN CTAB
M  V30 COUNTS 71 77 0 0 0
M  V30 BEGIN ATOM
M  V30 1 C 2.750235 -1.111719 2.722793 0
M  V30 2 S 4.214281 -0.448209 1.996288 0
M  V30 3 O 4.903281 0.433746 2.996994 0
M  V30 4 O 5.097241 -1.609160 1.582463 0
M  V30 5 N 3.859529 0.426536 0.533114 0
M  V30 6 C 3.270914 -0.508688 -0.378855 0
M  V30 7 C 2.909147 0.012051 -1.697676 0
M  V30 8 C 3.953211 -0.125662 -2.622632 0
M  V30 9 C 3.773418 0.280924 -3.932694 0
M  V30 10 F 4.764354 0.157938 -4.834944 0
M  V30 11 C 2.508585 0.810591 -4.205711 0
M  V30 12 C 1.436979 0.962273 -3.294450 0
M  V30 13 C 0.304250 1.504898 -4.023993 0
M  V30 14 N 0.478706 2.458759 -4.929210 0
M  V30 15 C -0.512266 2.924250 -5.702114 0
M  V30 16 C -1.773242 2.393449 -5.556337 0
M  V30 17 C -1.979283 1.393769 -4.610609 0
M  V30 18 N -3.074193 0.712971 -4.249781 0
M  V30 19 C -2.847114 -0.173267 -3.267661 0
M  V30 20 C -3.868086 -1.084031 -2.810981 0
M  V30 21 N -5.095824 -1.183037 -3.359591 0
M  V30 22 N -5.835906 -2.070093 -2.723691 0
M  V30 23 C -5.140816 -2.605719 -1.715860 0
M  V30 24 N -5.503368 -3.513023 -0.780028 0
M  V30 25 C -4.611585 -3.853440 0.200427 0
M  V30 26 C -3.385872 -3.222264 0.148798 0
M  V30 27 C -2.563600 -3.619122 1.296768 0
M  V30 28 C -2.521935 -4.846908 1.890929 0
M  V30 29 N -1.802579 -4.907952 3.026436 0
M  V30 30 C -1.172492 -3.838535 3.539006 0
M  V30 31 C -1.175551 -2.593994 2.998786 0
M  V30 32 N -0.593253 -1.430947 3.552309 0
M  V30 33 C 0.056208 -1.240147 4.768057 0
M  V30 34 O 0.196654 -2.213447 5.545996 0
M  V30 35 C 0.618443 0.039849 5.263092 0
M  V30 36 C -0.451572 1.136519 5.423024 0
M  V30 37 C 0.260305 1.527236 6.703023 0
M  V30 38 C 0.819055 0.112731 6.747951 0
M  V30 39 C -1.906671 -2.497547 1.823513 0
M  V30 40 C -3.018135 -2.306938 -0.806041 0
M  V30 41 C -3.935176 -1.986891 -1.781661 0
M  V30 42 C -1.509866 -0.014756 -3.019608 0
M  V30 43 C -0.938724 0.940487 -3.830895 0
M  V30 44 C 1.687769 0.541720 -2.023818 0
M  V30 45 H 2.502536 -2.121434 2.276114 0
M  V30 46 H 1.905420 -0.461352 2.481008 0
M  V30 47 H 2.883982 -1.232866 3.839500 0
M  V30 48 H 4.708496 0.882859 0.161166 0
M  V30 49 H 2.345079 -0.894391 0.141712 0
M  V30 50 H 3.977595 -1.373006 -0.469735 0
M  V30 51 H 4.928888 -0.544743 -2.374493 0
M  V30 52 H 2.474434 1.102176 -5.276425 0
M  V30 53 H -0.254401 3.703699 -6.406266 0
M  V30 54 H -2.579768 2.759697 -6.175523 0
M  V30 55 H -3.995967 0.917090 -4.743826 0
M  V30 56 H -6.833624 -2.266682 -3.038370 0
M  V30 57 H -4.951885 -4.581628 0.918162 0
M  V30 58 H -3.066037 -5.632413 1.389380 0
M  V30 59 H -0.632038 -4.029239 4.450876 0
M  V30 60 H -0.622426 -0.532350 3.005147 0
M  V30 61 H 1.473606 0.461992 4.735919 0
M  V30 62 H -0.464711 1.887184 4.617764 0
M  V30 63 H -1.451617 0.699496 5.703976 0
M  V30 64 H 1.086410 2.273938 6.529410 0
M  V30 65 H -0.398552 1.786428 7.541063 0
M  V30 66 H 1.888550 0.066163 7.087554 0
M  V30 67 H 0.119565 -0.519142 7.359535 0
M  V30 68 H -1.928276 -1.502395 1.352227 0
M  V30 69 H -2.051971 -1.861144 -0.782400 0
M  V30 70 H -0.943179 -0.551784 -2.296818 0
M  V30 71 H 0.871710 0.669214 -1.357989 0
M  V30 END ATOM
M  V30 BEGIN BOND
M  V30 1 1 1 2
M  V30 2 2 2 3
M  V30 3 2 2 4
M  V30 4 1 2 5
M  V30 5 1 5 6
M  V30 6 1 6 7
M  V30 7 2 7 8
M  V30 8 1 8 9
M  V30 9 1 9 10
M  V30 10 2 9 11
M  V30 11 1 11 12
M  V30 12 1 12 13
M  V30 13 2 13 14
M  V30 14 1 14 15
M  V30 15 2 15 16
M  V30 16 1 16 17
M  V30 17 1 17 18
M  V30 18 1 18 19
M  V30 19 1 19 20
M  V30 20 2 20 21
M  V30 21 1 21 22
M  V30 22 1 22 23
M  V30 23 2 23 24
M  V30 24 1 24 25
M  V30 25 2 25 26
M  V30 26 1 26 27
M  V30 27 2 27 28
M  V30 28 1 28 29
M  V30 29 2 29 30
M  V30 30 1 30 31
M  V30 31 1 31 32
M  V30 32 1 32 33
M  V30 33 2 33 34
M  V30 34 1 33 35
M  V30 35 1 35 36
M  V30 36 1 36 37
M  V30 37 1 37 38
M  V30 38 2 31 39
M  V30 39 1 26 40
M  V30 40 2 40 41
M  V30 41 2 19 42
M  V30 42 1 42 43
M  V30 43 2 12 44
M  V30 44 1 44 7
M  V30 45 1 43 13
M  V30 46 2 43 17
M  V30 47 1 41 20
M  V30 48 1 41 23
M  V30 49 1 39 27
M  V30 50 1 38 35
M  V30 51 1 1 45
M  V30 52 1 1 46
M  V30 53 1 1 47
M  V30 54 1 5 48
M  V30 55 1 6 49
M  V30 56 1 6 50
M  V30 57 1 8 51
M  V30 58 1 11 52
M  V30 59 1 15 53
M  V30 60 1 16 54
M  V30 61 1 18 55
M  V30 62 1 22 56
M  V30 63 1 25 57
M  V30 64 1 28 58
M  V30 65 1 30 59
M  V30 66 1 32 60
M  V30 67 1 35 61
M  V30 68 1 36 62
M  V30 69 1 36 63
M  V30 70 1 37 64
M  V30 71 1 37 65
M  V30 72 1 38 66
M  V30 73 1 38 67
M  V30 74 1 39 68
M  V30 75 1 40 69
M  V30 76 1 42 70
M  V30 77 1 44 71
M  V30 END BOND
M  V30 END CTAB
M  END
>  <Dataset>  (427) 
ChEMBL_Kinases

>  <Ligand_Instance>  (427) 
nan

>  <PDB_ID>  (427) 
nan

>  <Standardized_SMILES>  (427) 
CS(=O)(=O)NCc1cc(F)cc(-c2nccc3[nH]c(-c4n[nH]c5ncc(-c6cncc(NC(=O)C7CCC7)c6)cc45)cc23)c1

>  <Name>  (427) 
nan

>  <Pocket>  (427) 
nan

>  <ATP_Site>  (427) 
nan

>  <Peripheral>  (427) 
nan

>  <Num_H_Atoms_ProtBoundConf>  (427) 
nan

>  <Num_Resolved_Atoms>  (427) 
nan

>  <Num_Not_Resolved_Atoms>  (427) 
nan

$$$$
CHEMBL4754964
     RDKit          3D

  0  0  0  0  0  0  0  0  0  0999 V3000
M  V30 BEGIN CTAB
M  V30 COUNTS 59 64 0 0 0
M  V30 BEGIN ATOM
M  V30 1 C 7.003216 0.906841 5.295934 0
M  V30 2 C 7.345769 -0.442422 4.709208 0
M  V30 3 C 8.708699 -0.482208 4.098870 0
M  V30 4 C 6.281354 -0.769806 3.699813 0
M  V30 5 O 5.582414 -1.811141 3.870400 0
M  V30 6 N 6.097794 0.100268 2.591064 0
M  V30 7 C 5.044694 -0.368437 1.737800 0
M  V30 8 C 5.272401 -1.235795 0.681869 0
M  V30 9 N 4.268485 -1.661808 -0.105633 0
M  V30 10 C 3.002398 -1.257407 0.107202 0
M  V30 11 C 2.676107 -0.395715 1.132057 0
M  V30 12 C 1.338018 0.103319 1.446396 0
M  V30 13 C 0.220524 -0.247455 0.724049 0
M  V30 14 C -1.032448 0.218704 1.015288 0
M  V30 15 C -2.248816 -0.014685 0.418475 0
M  V30 16 C -2.640474 -0.822914 -0.713281 0
M  V30 17 C -3.960373 -0.903022 -1.140244 0
M  V30 18 C -4.101028 -1.723183 -2.226228 0
M  V30 19 C -5.161711 -2.130498 -3.005644 0
M  V30 20 C -6.508147 -1.645766 -2.730265 0
M  V30 21 C -6.963853 -0.365714 -2.488570 0
M  V30 22 C -8.302555 -0.163095 -2.245623 0
M  V30 23 C -9.207354 -1.212582 -2.237290 0
M  V30 24 N -8.757450 -2.453878 -2.473103 0
M  V30 25 C -7.448674 -2.682906 -2.714638 0
M  V30 26 C -4.982098 -3.004211 -4.077014 0
M  V30 27 C -3.701047 -3.447244 -4.329676 0
M  V30 28 C -2.639902 -3.039109 -3.549578 0
M  V30 29 C -2.845678 -2.183472 -2.507430 0
M  V30 30 N -2.038690 -1.624525 -1.592763 0
M  V30 31 N -3.086667 0.736265 1.175316 0
M  V30 32 N -2.443944 1.362745 2.135346 0
M  V30 33 C -1.131948 1.076693 2.090105 0
M  V30 34 C -0.027401 1.442968 2.829244 0
M  V30 35 N 1.175023 0.948525 2.489360 0
M  V30 36 C 3.742299 0.009234 1.907630 0
M  V30 37 H 7.444067 0.944648 6.313118 0
M  V30 38 H 5.907914 1.037235 5.415257 0
M  V30 39 H 7.359756 1.751136 4.663552 0
M  V30 40 H 7.322567 -1.167315 5.547748 0
M  V30 41 H 8.977277 0.538538 3.754576 0
M  V30 42 H 8.634496 -1.177401 3.219464 0
M  V30 43 H 9.422310 -0.868235 4.852946 0
M  V30 44 H 6.725222 0.947707 2.526375 0
M  V30 45 H 6.319363 -1.544514 0.538764 0
M  V30 46 H 2.209727 -1.605986 -0.530121 0
M  V30 47 H 0.376418 -0.905489 -0.081185 0
M  V30 48 H -4.841150 -0.408400 -0.719385 0
M  V30 49 H -6.191805 0.363932 -2.520818 0
M  V30 50 H -8.565277 0.868329 -2.067669 0
M  V30 51 H -10.253015 -0.988096 -2.038847 0
M  V30 52 H -7.219776 -3.729490 -2.889032 0
M  V30 53 H -5.787761 -3.343396 -4.706691 0
M  V30 54 H -3.532716 -4.135670 -5.167202 0
M  V30 55 H -1.637553 -3.389211 -3.752003 0
M  V30 56 H -1.022580 -1.820662 -1.594346 0
M  V30 57 H -2.916006 1.985409 2.817758 0
M  V30 58 H -0.144403 2.118044 3.665537 0
M  V30 59 H 3.552859 0.697385 2.743307 0
M  V30 END ATOM
M  V30 BEGIN BOND
M  V30 1 1 1 2
M  V30 2 1 2 3
M  V30 3 1 2 4
M  V30 4 2 4 5
M  V30 5 1 4 6
M  V30 6 1 6 7
M  V30 7 2 7 8
M  V30 8 1 8 9
M  V30 9 2 9 10
M  V30 10 1 10 11
M  V30 11 1 11 12
M  V30 12 2 12 13
M  V30 13 1 13 14
M  V30 14 1 14 15
M  V30 15 1 15 16
M  V30 16 2 16 17
M  V30 17 1 17 18
M  V30 18 2 18 19
M  V30 19 1 19 20
M  V30 20 2 20 21
M  V30 21 1 21 22
M  V30 22 2 22 23
M  V30 23 1 23 24
M  V30 24 2 24 25
M  V30 25 1 19 26
M  V30 26 2 26 27
M  V30 27 1 27 28
M  V30 28 2 28 29
M  V30 29 1 29 30
M  V30 30 2 15 31
M  V30 31 1 31 32
M  V30 32 1 32 33
M  V30 33 1 33 34
M  V30 34 2 34 35
M  V30 35 2 11 36
M  V30 36 1 36 7
M  V30 37 1 35 12
M  V30 38 2 33 14
M  V30 39 1 30 16
M  V30 40 1 29 18
M  V30 41 1 25 20
M  V30 42 1 1 37
M  V30 43 1 1 38
M  V30 44 1 1 39
M  V30 45 1 2 40
M  V30 46 1 3 41
M  V30 47 1 3 42
M  V30 48 1 3 43
M  V30 49 1 6 44
M  V30 50 1 8 45
M  V30 51 1 10 46
M  V30 52 1 13 47
M  V30 53 1 17 48
M  V30 54 1 21 49
M  V30 55 1 22 50
M  V30 56 1 23 51
M  V30 57 1 25 52
M  V30 58 1 26 53
M  V30 59 1 27 54
M  V30 60 1 28 55
M  V30 61 1 30 56
M  V30 62 1 32 57
M  V30 63 1 34 58
M  V30 64 1 36 59
M  V30 END BOND
M  V30 END CTAB
M  END
>  <Dataset>  (428) 
ChEMBL_Kinases

>  <Ligand_Instance>  (428) 
nan

>  <PDB_ID>  (428) 
nan

>  <Standardized_SMILES>  (428) 
CC(C)C(=O)Nc1cncc(-c2cc3c(-c4cc5c(-c6cccnc6)cccc5[nH]4)n[nH]c3cn2)c1

>  <Name>  (428) 
nan

>  <Pocket>  (428) 
nan

>  <ATP_Site>  (428) 
nan

>  <Peripheral>  (428) 
nan

>  <Num_H_Atoms_ProtBoundConf>  (428) 
nan

>  <Num_Resolved_Atoms>  (428) 
nan

>  <Num_Not_Resolved_Atoms>  (428) 
nan

$$$$
CHEMBL4754927
     RDKit          3D

  0  0  0  0  0  0  0  0  0  0999 V3000
M  V30 BEGIN CTAB
M  V30 COUNTS 57 63 0 0 0
M  V30 BEGIN ATOM
M  V30 1 O 1.533164 -3.090184 -1.342112 0
M  V30 2 C 2.438555 -3.958450 -1.382615 0
M  V30 3 N 3.719046 -3.632352 -0.872428 0
M  V30 4 C 4.181557 -2.425490 -0.290637 0
M  V30 5 C 5.490873 -2.362436 0.128882 0
M  V30 6 N 6.003425 -1.254695 0.688763 0
M  V30 7 C 5.286832 -0.117076 0.887381 0
M  V30 8 C 3.966445 -0.137630 0.480067 0
M  V30 9 C 3.104520 1.052212 0.652524 0
M  V30 10 C 3.655584 2.294354 0.578796 0
M  V30 11 N 2.843585 3.374235 0.739982 0
M  V30 12 C 1.533390 3.247538 0.966363 0
M  V30 13 N 0.513404 4.098863 1.159290 0
M  V30 14 N -0.600771 3.425943 1.341478 0
M  V30 15 C -0.414754 2.095051 1.285352 0
M  V30 16 C -1.439882 1.083962 1.445453 0
M  V30 17 C -2.773751 1.368512 1.679679 0
M  V30 18 C -3.499415 0.218793 1.784910 0
M  V30 19 C -4.845781 0.102917 2.006737 0
M  V30 20 C -5.844203 1.074588 2.237240 0
M  V30 21 C -5.787291 2.388075 2.448531 0
M  V30 22 C -6.759663 3.278853 2.689856 0
M  V30 23 C -8.097485 2.559268 2.701327 0
M  V30 24 S -7.577226 0.771929 2.356189 0
M  V30 25 N -5.291442 -1.179166 2.050637 0
M  V30 26 C -4.483684 -2.232120 1.892124 0
M  V30 27 C -3.141265 -2.073157 1.672923 0
M  V30 28 C -2.617546 -0.812956 1.614650 0
M  V30 29 N -1.420389 -0.246998 1.418805 0
M  V30 30 C 0.925246 2.013402 1.050300 0
M  V30 31 C 1.752164 0.934713 0.886492 0
M  V30 32 C 3.467108 -1.268928 -0.084435 0
M  V30 33 C 2.059098 -5.244300 -1.968034 0
M  V30 34 C 0.586359 -5.161531 -2.391235 0
M  V30 35 C 1.043064 -4.814461 -3.810601 0
M  V30 36 C 2.379291 -5.426893 -3.432451 0
M  V30 37 H 4.369098 -4.436425 -0.967303 0
M  V30 38 H 6.191133 -3.194575 0.036958 0
M  V30 39 H 5.729483 0.758810 1.341372 0
M  V30 40 H 4.688378 2.492201 0.402087 0
M  V30 41 H 0.551548 5.140665 1.171234 0
M  V30 42 H -3.120320 2.370632 1.748532 0
M  V30 43 H -4.992335 3.096721 2.501989 0
M  V30 44 H -7.282166 4.175381 2.888519 0
M  V30 45 H -9.290551 2.375929 2.787077 0
M  V30 46 H -4.872988 -3.233460 1.933997 0
M  V30 47 H -2.461924 -2.899335 1.541683 0
M  V30 48 H -0.621959 -0.880914 1.270563 0
M  V30 49 H 1.403166 -0.076327 0.929141 0
M  V30 50 H 2.443460 -1.240574 -0.383924 0
M  V30 51 H 2.163043 -6.132946 -1.324082 0
M  V30 52 H 0.020553 -6.099927 -2.313412 0
M  V30 53 H 0.022028 -4.326044 -1.973332 0
M  V30 54 H 1.062793 -3.730079 -4.036247 0
M  V30 55 H 0.468174 -5.380437 -4.561786 0
M  V30 56 H 2.522908 -6.458225 -3.770677 0
M  V30 57 H 3.180328 -4.779211 -3.801478 0
M  V30 END ATOM
M  V30 BEGIN BOND
M  V30 1 2 1 2
M  V30 2 1 2 3
M  V30 3 1 3 4
M  V30 4 2 4 5
M  V30 5 1 5 6
M  V30 6 2 6 7
M  V30 7 1 7 8
M  V30 8 1 8 9
M  V30 9 2 9 10
M  V30 10 1 10 11
M  V30 11 2 11 12
M  V30 12 1 12 13
M  V30 13 1 13 14
M  V30 14 2 14 15
M  V30 15 1 15 16
M  V30 16 2 16 17
M  V30 17 1 17 18
M  V30 18 2 18 19
M  V30 19 1 19 20
M  V30 20 2 20 21
M  V30 21 1 21 22
M  V30 22 2 22 23
M  V30 23 1 23 24
M  V30 24 1 19 25
M  V30 25 2 25 26
M  V30 26 1 26 27
M  V30 27 2 27 28
M  V30 28 1 28 29
M  V30 29 1 15 30
M  V30 30 2 30 31
M  V30 31 2 8 32
M  V30 32 1 2 33
M  V30 33 1 33 34
M  V30 34 1 34 35
M  V30 35 1 35 36
M  V30 36 1 32 4
M  V30 37 1 36 33
M  V30 38 1 31 9
M  V30 39 1 30 12
M  V30 40 1 29 16
M  V30 41 1 28 18
M  V30 42 1 24 20
M  V30 43 1 3 37
M  V30 44 1 5 38
M  V30 45 1 7 39
M  V30 46 1 10 40
M  V30 47 1 13 41
M  V30 48 1 17 42
M  V30 49 1 21 43
M  V30 50 1 22 44
M  V30 51 1 23 45
M  V30 52 1 26 46
M  V30 53 1 27 47
M  V30 54 1 29 48
M  V30 55 1 31 49
M  V30 56 1 32 50
M  V30 57 1 33 51
M  V30 58 1 34 52
M  V30 59 1 34 53
M  V30 60 1 35 54
M  V30 61 1 35 55
M  V30 62 1 36 56
M  V30 63 1 36 57
M  V30 END BOND
M  V30 END CTAB
M  END
>  <Dataset>  (429) 
ChEMBL_Kinases

>  <Ligand_Instance>  (429) 
nan

>  <PDB_ID>  (429) 
nan

>  <Standardized_SMILES>  (429) 
O=C(Nc1cncc(-c2cnc3[nH]nc(-c4cc5c(-c6cccs6)nccc5[nH]4)c3c2)c1)C1CCC1

>  <Name>  (429) 
nan

>  <Pocket>  (429) 
nan

>  <ATP_Site>  (429) 
nan

>  <Peripheral>  (429) 
nan

>  <Num_H_Atoms_ProtBoundConf>  (429) 
nan

>  <Num_Resolved_Atoms>  (429) 
nan

>  <Num_Not_Resolved_Atoms>  (429) 
nan

$$$$
CHEMBL270995
     RDKit          3D

  0  0  0  0  0  0  0  0  0  0999 V3000
M  V30 BEGIN CTAB
M  V30 COUNTS 56 59 0 0 0
M  V30 BEGIN ATOM
M  V30 1 C 5.551790 -5.699305 -2.028547 0
M  V30 2 C 5.089390 -4.282139 -1.893412 0
M  V30 3 C 4.393875 -3.790249 -0.807155 0
M  V30 4 C 4.163354 -2.451713 -1.082562 0
M  V30 5 C 3.534605 -1.416537 -0.420226 0
M  V30 6 F 2.997425 -1.703063 0.787316 0
M  V30 7 C 3.429579 -0.131068 -0.911131 0
M  V30 8 O 2.866967 0.868032 -0.357234 0
M  V30 9 C 2.304380 1.867066 0.196628 0
M  V30 10 N 3.080576 2.948112 0.486149 0
M  V30 11 C 2.629814 4.057114 1.061924 0
M  V30 12 N 1.327727 4.108991 1.375323 0
M  V30 13 N 0.522477 3.096312 1.121448 0
M  V30 14 C -0.807581 2.984015 1.367612 0
M  V30 15 C -1.214435 1.730057 0.919150 0
M  V30 16 O -2.443455 1.085929 0.914140 0
M  V30 17 C -3.636553 1.641302 1.416175 0
M  V30 18 C -4.797726 0.675210 1.253959 0 CFG=1
M  V30 19 C -4.965208 0.363937 -0.205916 0
M  V30 20 O -4.454327 -0.489456 1.981290 0
M  V30 21 C -5.194759 -0.996437 3.037643 0
M  V30 22 O -6.229194 -0.306013 3.297244 0
M  V30 23 C -4.595276 -2.220617 3.602937 0 CFG=2
M  V30 24 C -4.464595 -3.257211 2.524068 0
M  V30 25 N -5.420288 -2.698812 4.694072 0
M  V30 26 C -0.092312 1.108505 0.404004 0
M  V30 27 C 0.007961 -0.254225 -0.205083 0
M  V30 28 C 0.972922 1.972266 0.539135 0
M  V30 29 C 4.011389 0.092770 -2.162505 0
M  V30 30 C 4.668855 -0.892818 -2.907493 0
M  V30 31 C 4.706327 -2.134700 -2.309182 0
M  V30 32 N 5.257083 -3.269032 -2.766864 0
M  V30 33 H 5.556331 -6.034862 -3.087281 0
M  V30 34 H 4.846823 -6.392250 -1.494574 0
M  V30 35 H 6.556232 -5.782591 -1.563281 0
M  V30 36 H 4.066095 -4.277046 0.092862 0
M  V30 37 H 3.239162 4.917567 1.293919 0
M  V30 38 H -1.532890 3.669973 1.823231 0
M  V30 39 H -3.531216 2.031482 2.444847 0
M  V30 40 H -3.883684 2.552638 0.799062 0
M  V30 41 H -5.724095 1.129811 1.629107 0
M  V30 42 H -4.702661 -0.713156 -0.367380 0
M  V30 43 H -4.301182 1.007985 -0.805254 0
M  V30 44 H -6.038633 0.483735 -0.502738 0
M  V30 45 H -3.579244 -2.040097 4.021571 0
M  V30 46 H -4.961444 -4.219183 2.747243 0
M  V30 47 H -4.888601 -2.881395 1.567332 0
M  V30 48 H -3.384129 -3.465665 2.286043 0
M  V30 49 H -4.891613 -3.375297 5.286252 0
M  V30 50 H -6.254406 -3.215706 4.319462 0
M  V30 51 H 0.438773 -0.912301 0.566160 0
M  V30 52 H 0.551348 -0.251463 -1.168516 0
M  V30 53 H -1.023899 -0.628234 -0.479588 0
M  V30 54 H 3.993801 1.075928 -2.658184 0
M  V30 55 H 5.105432 -0.678502 -3.872039 0
M  V30 56 H 5.766418 -3.413460 -3.678317 0
M  V30 END ATOM
M  V30 BEGIN BOND
M  V30 1 1 1 2
M  V30 2 2 2 3
M  V30 3 1 3 4
M  V30 4 2 4 5
M  V30 5 1 5 6
M  V30 6 1 5 7
M  V30 7 1 7 8
M  V30 8 1 8 9
M  V30 9 2 9 10
M  V30 10 1 10 11
M  V30 11 2 11 12
M  V30 12 1 12 13
M  V30 13 1 13 14
M  V30 14 2 14 15
M  V30 15 1 15 16
M  V30 16 1 16 17
M  V30 17 1 17 18
M  V30 18 1 18 19
M  V30 19 1 18 20
M  V30 20 1 20 21
M  V30 21 2 21 22
M  V30 22 1 21 23
M  V30 23 1 23 24
M  V30 24 1 23 25
M  V30 25 1 15 26
M  V30 26 1 26 27
M  V30 27 2 26 28
M  V30 28 2 7 29
M  V30 29 1 29 30
M  V30 30 2 30 31
M  V30 31 1 31 32
M  V30 32 1 32 2
M  V30 33 1 31 4
M  V30 34 1 28 9
M  V30 35 1 28 13
M  V30 36 1 1 33
M  V30 37 1 1 34
M  V30 38 1 1 35
M  V30 39 1 3 36
M  V30 40 1 11 37
M  V30 41 1 14 38
M  V30 42 1 17 39
M  V30 43 1 17 40
M  V30 44 1 18 41 CFG=1
M  V30 45 1 19 42
M  V30 46 1 19 43
M  V30 47 1 19 44
M  V30 48 1 23 45 CFG=1
M  V30 49 1 24 46
M  V30 50 1 24 47
M  V30 51 1 24 48
M  V30 52 1 25 49
M  V30 53 1 25 50
M  V30 54 1 27 51
M  V30 55 1 27 52
M  V30 56 1 27 53
M  V30 57 1 29 54
M  V30 58 1 30 55
M  V30 59 1 32 56
M  V30 END BOND
M  V30 END CTAB
M  END
>  <Dataset>  (430) 
ChEMBL_Kinases

>  <Ligand_Instance>  (430) 
nan

>  <PDB_ID>  (430) 
nan

>  <Standardized_SMILES>  (430) 
Cc1cc2c(F)c(Oc3ncnn4cc(OC[C@@H](C)OC(=O)[C@H](C)N)c(C)c34)ccc2[nH]1

>  <Name>  (430) 
BRIVANIB ALANINATE

>  <Pocket>  (430) 
nan

>  <ATP_Site>  (430) 
nan

>  <Peripheral>  (430) 
nan

>  <Num_H_Atoms_ProtBoundConf>  (430) 
nan

>  <Num_Resolved_Atoms>  (430) 
nan

>  <Num_Not_Resolved_Atoms>  (430) 
nan

$$$$
CHEMBL4754837
     RDKit          3D

  0  0  0  0  0  0  0  0  0  0999 V3000
M  V30 BEGIN CTAB
M  V30 COUNTS 68 73 0 0 0
M  V30 BEGIN ATOM
M  V30 1 C 6.421013 -4.996105 5.295585 0
M  V30 2 C 6.633297 -4.389105 3.916682 0
M  V30 3 N 6.388779 -2.976094 3.971510 0
M  V30 4 C 6.575704 -2.320078 2.671529 0
M  V30 5 C 6.303911 -0.847075 2.817564 0
M  V30 6 C 7.403547 -0.072305 3.147300 0
M  V30 7 N 7.221891 1.255230 3.292619 0
M  V30 8 C 5.975899 1.772542 3.110546 0
M  V30 9 C 4.877672 1.006065 2.782284 0
M  V30 10 C 3.580468 1.654866 2.608885 0
M  V30 11 C 3.394243 2.764248 3.410397 0
M  V30 12 N 2.224525 3.422719 3.313602 0
M  V30 13 C 1.264254 3.016629 2.464419 0
M  V30 14 N 0.033976 3.458553 2.158202 0
M  V30 15 N -0.524165 2.707175 1.245078 0
M  V30 16 C 0.296263 1.689631 0.861500 0
M  V30 17 C -0.014984 0.683277 -0.126978 0
M  V30 18 C -1.235412 0.673882 -0.800678 0
M  V30 19 C -1.306943 -0.368551 -1.690385 0
M  V30 20 C -2.259317 -0.821105 -2.576328 0
M  V30 21 C -3.536030 -0.136946 -2.712916 0
M  V30 22 C -3.794522 1.208585 -2.842652 0
M  V30 23 C -5.077886 1.693911 -2.955315 0
M  V30 24 F -5.152960 3.042446 -3.074844 0
M  V30 25 C -6.154819 0.841206 -2.942108 0
M  V30 26 C -5.911781 -0.506655 -2.813326 0
M  V30 27 C -7.143404 -1.357274 -2.809903 0
M  V30 28 N -7.614494 -1.513469 -1.448336 0
M  V30 29 S -9.040409 -2.492031 -1.396801 0
M  V30 30 C -10.304762 -1.677799 -2.325604 0
M  V30 31 O -8.685606 -3.830382 -2.004359 0
M  V30 32 O -9.510294 -2.647774 0.018826 0
M  V30 33 C -4.644221 -0.992359 -2.701298 0
M  V30 34 N -2.008919 -1.910628 -3.324260 0
M  V30 35 C -0.843020 -2.589984 -3.241199 0
M  V30 36 C 0.114940 -2.140673 -2.355441 0
M  V30 37 C -0.120058 -1.038831 -1.588994 0
M  V30 38 N 0.588555 -0.378023 -0.663270 0
M  V30 39 C 1.399380 1.918945 1.644933 0
M  V30 40 C 2.591800 1.240665 1.737739 0
M  V30 41 C 5.026496 -0.355039 2.625570 0
M  V30 42 H 5.339981 -4.870178 5.592004 0
M  V30 43 H 7.074484 -4.523957 6.056453 0
M  V30 44 H 6.648166 -6.080648 5.298341 0
M  V30 45 H 5.970821 -4.919214 3.219025 0
M  V30 46 H 7.685765 -4.619076 3.651806 0
M  V30 47 H 6.985015 -2.560131 4.716546 0
M  V30 48 H 7.571250 -2.491640 2.247256 0
M  V30 49 H 5.788125 -2.759144 2.021336 0
M  V30 50 H 8.384723 -0.484352 3.289880 0
M  V30 51 H 5.947418 2.849319 3.252865 0
M  V30 52 H 4.063352 3.196643 4.123529 0
M  V30 53 H -0.466617 4.285425 2.559587 0
M  V30 54 H -2.065906 1.357408 -0.692041 0
M  V30 55 H -2.924495 1.826600 -2.852193 0
M  V30 56 H -7.114722 1.311543 -3.035689 0
M  V30 57 H -7.948016 -0.933169 -3.435275 0
M  V30 58 H -6.825644 -2.367365 -3.161640 0
M  V30 59 H -6.917275 -1.934568 -0.827072 0
M  V30 60 H -10.635636 -2.372312 -3.149600 0
M  V30 61 H -11.229389 -1.539656 -1.714641 0
M  V30 62 H -9.949493 -0.723381 -2.744657 0
M  V30 63 H -4.606758 -2.086932 -2.605577 0
M  V30 64 H -0.592767 -3.471397 -3.820216 0
M  V30 65 H 1.046218 -2.650297 -2.262549 0
M  V30 66 H 1.538403 -0.692096 -0.400956 0
M  V30 67 H 2.788934 0.374115 1.139410 0
M  V30 68 H 4.194231 -0.994691 2.369061 0
M  V30 END ATOM
M  V30 BEGIN BOND
M  V30 1 1 1 2
M  V30 2 1 2 3
M  V30 3 1 3 4
M  V30 4 1 4 5
M  V30 5 2 5 6
M  V30 6 1 6 7
M  V30 7 2 7 8
M  V30 8 1 8 9
M  V30 9 1 9 10
M  V30 10 2 10 11
M  V30 11 1 11 12
M  V30 12 2 12 13
M  V30 13 1 13 14
M  V30 14 1 14 15
M  V30 15 2 15 16
M  V30 16 1 16 17
M  V30 17 2 17 18
M  V30 18 1 18 19
M  V30 19 2 19 20
M  V30 20 1 20 21
M  V30 21 2 21 22
M  V30 22 1 22 23
M  V30 23 1 23 24
M  V30 24 2 23 25
M  V30 25 1 25 26
M  V30 26 1 26 27
M  V30 27 1 27 28
M  V30 28 1 28 29
M  V30 29 1 29 30
M  V30 30 2 29 31
M  V30 31 2 29 32
M  V30 32 2 26 33
M  V30 33 1 20 34
M  V30 34 2 34 35
M  V30 35 1 35 36
M  V30 36 2 36 37
M  V30 37 1 37 38
M  V30 38 1 16 39
M  V30 39 2 39 40
M  V30 40 2 9 41
M  V30 41 1 41 5
M  V30 42 1 40 10
M  V30 43 1 39 13
M  V30 44 1 38 17
M  V30 45 1 37 19
M  V30 46 1 33 21
M  V30 47 1 1 42
M  V30 48 1 1 43
M  V30 49 1 1 44
M  V30 50 1 2 45
M  V30 51 1 2 46
M  V30 52 1 3 47
M  V30 53 1 4 48
M  V30 54 1 4 49
M  V30 55 1 6 50
M  V30 56 1 8 51
M  V30 57 1 11 52
M  V30 58 1 14 53
M  V30 59 1 18 54
M  V30 60 1 22 55
M  V30 61 1 25 56
M  V30 62 1 27 57
M  V30 63 1 27 58
M  V30 64 1 28 59
M  V30 65 1 30 60
M  V30 66 1 30 61
M  V30 67 1 30 62
M  V30 68 1 33 63
M  V30 69 1 35 64
M  V30 70 1 36 65
M  V30 71 1 38 66
M  V30 72 1 40 67
M  V30 73 1 41 68
M  V30 END BOND
M  V30 END CTAB
M  END
>  <Dataset>  (431) 
ChEMBL_Kinases

>  <Ligand_Instance>  (431) 
nan

>  <PDB_ID>  (431) 
nan

>  <Standardized_SMILES>  (431) 
CCNCc1cncc(-c2cnc3[nH]nc(-c4cc5c(-c6cc(F)cc(CNS(C)(=O)=O)c6)nccc5[nH]4)c3c2)c1

>  <Name>  (431) 
nan

>  <Pocket>  (431) 
nan

>  <ATP_Site>  (431) 
nan

>  <Peripheral>  (431) 
nan

>  <Num_H_Atoms_ProtBoundConf>  (431) 
nan

>  <Num_Resolved_Atoms>  (431) 
nan

>  <Num_Not_Resolved_Atoms>  (431) 
nan

$$$$
CHEMBL434337
     RDKit          3D

  0  0  0  0  0  0  0  0  0  0999 V3000
M  V30 BEGIN CTAB
M  V30 COUNTS 43 47 0 0 0
M  V30 BEGIN ATOM
M  V30 1 C -2.084506 -7.164850 0.543737 0
M  V30 2 C -1.314283 -5.902751 0.248828 0
M  V30 3 C -1.486694 -5.098606 -0.883191 0
M  V30 4 C -0.715661 -3.968138 -1.014197 0
M  V30 5 C 0.204431 -3.630321 -0.060242 0
M  V30 6 C 1.019530 -2.530461 -0.058176 0
M  V30 7 C 1.267919 -1.376185 -0.885389 0
M  V30 8 C 0.891816 -1.097668 -2.179042 0
M  V30 9 C 1.195093 0.046873 -2.865553 0
M  V30 10 N 1.922680 0.983021 -2.230323 0
M  V30 11 C 2.334070 0.774122 -0.941904 0
M  V30 12 N 3.103972 1.719651 -0.172738 0
M  V30 13 C 2.334256 2.420073 0.795133 0
M  V30 14 C 2.917456 3.361090 1.617486 0
M  V30 15 C 2.272046 4.100779 2.612868 0
M  V30 16 C 0.928085 3.875904 2.797101 0
M  V30 17 C 0.294602 2.941945 1.997291 0
M  V30 18 C 0.997148 2.249788 1.034685 0
M  V30 19 O -1.060537 2.752612 2.223241 0
M  V30 20 C -1.640575 2.736093 3.511965 0
M  V30 21 C -0.891387 3.668546 4.432489 0
M  V30 22 O 0.040545 4.441328 3.685432 0
M  V30 23 N 1.986180 -0.374483 -0.360642 0
M  V30 24 C 1.700391 -2.703232 1.137447 0
M  V30 25 N 1.277806 -3.824840 1.738799 0
M  V30 26 N 0.351187 -4.414090 1.013479 0
M  V30 27 N -0.386231 -5.522420 1.169161 0
M  V30 28 H -1.412267 -7.983573 0.828889 0
M  V30 29 H -2.729158 -6.968050 1.428208 0
M  V30 30 H -2.724004 -7.359795 -0.333832 0
M  V30 31 H -2.235159 -5.437197 -1.591492 0
M  V30 32 H -0.907133 -3.406477 -1.891607 0
M  V30 33 H 0.329371 -1.823112 -2.722153 0
M  V30 34 H 0.862359 0.190230 -3.881564 0
M  V30 35 H 4.120252 1.941198 -0.245920 0
M  V30 36 H 3.975949 3.616411 1.552120 0
M  V30 37 H 2.706834 4.836138 3.260070 0
M  V30 38 H 0.486937 1.504765 0.398736 0
M  V30 39 H -2.712325 3.067244 3.415936 0
M  V30 40 H -1.691845 1.706156 3.931103 0
M  V30 41 H -1.641105 4.344232 4.909999 0
M  V30 42 H -0.386531 3.082716 5.239998 0
M  V30 43 H 2.473451 -2.154047 1.682558 0
M  V30 END ATOM
M  V30 BEGIN BOND
M  V30 1 1 1 2
M  V30 2 1 2 3
M  V30 3 2 3 4
M  V30 4 1 4 5
M  V30 5 2 5 6
M  V30 6 1 6 7
M  V30 7 2 7 8
M  V30 8 1 8 9
M  V30 9 2 9 10
M  V30 10 1 10 11
M  V30 11 1 11 12
M  V30 12 1 12 13
M  V30 13 2 13 14
M  V30 14 1 14 15
M  V30 15 2 15 16
M  V30 16 1 16 17
M  V30 17 2 17 18
M  V30 18 1 17 19
M  V30 19 1 19 20
M  V30 20 1 20 21
M  V30 21 1 21 22
M  V30 22 2 11 23
M  V30 23 1 6 24
M  V30 24 2 24 25
M  V30 25 1 25 26
M  V30 26 1 26 27
M  V30 27 2 27 2
M  V30 28 1 26 5
M  V30 29 1 23 7
M  V30 30 1 18 13
M  V30 31 1 22 16
M  V30 32 1 1 28
M  V30 33 1 1 29
M  V30 34 1 1 30
M  V30 35 1 3 31
M  V30 36 1 4 32
M  V30 37 1 8 33
M  V30 38 1 9 34
M  V30 39 1 12 35
M  V30 40 1 14 36
M  V30 41 1 15 37
M  V30 42 1 18 38
M  V30 43 1 20 39
M  V30 44 1 20 40
M  V30 45 1 21 41
M  V30 46 1 21 42
M  V30 47 1 24 43
M  V30 END BOND
M  V30 END CTAB
M  END
>  <Dataset>  (432) 
ChEMBL_Kinases

>  <Ligand_Instance>  (432) 
nan

>  <PDB_ID>  (432) 
nan

>  <Standardized_SMILES>  (432) 
Cc1ccc2c(-c3ccnc(Nc4ccc5c(c4)OCCO5)n3)cnn2n1

>  <Name>  (432) 
nan

>  <Pocket>  (432) 
nan

>  <ATP_Site>  (432) 
nan

>  <Peripheral>  (432) 
nan

>  <Num_H_Atoms_ProtBoundConf>  (432) 
nan

>  <Num_Resolved_Atoms>  (432) 
nan

>  <Num_Not_Resolved_Atoms>  (432) 
nan

$$$$
CHEMBL4754669
     RDKit          3D

  0  0  0  0  0  0  0  0  0  0999 V3000
M  V30 BEGIN CTAB
M  V30 COUNTS 56 62 0 0 0
M  V30 BEGIN ATOM
M  V30 1 O 4.037089 -3.016006 -0.843595 0
M  V30 2 C 3.803779 -3.402243 0.330706 0
M  V30 3 N 3.871355 -2.405521 1.332889 0
M  V30 4 C 4.174069 -1.034627 1.128463 0
M  V30 5 C 5.481271 -0.637934 1.188988 0
M  V30 6 N 5.779167 0.640490 1.000046 0
M  V30 7 C 4.826812 1.583938 0.745671 0
M  V30 8 C 3.506349 1.267257 0.670217 0
M  V30 9 C 2.432533 2.206561 0.404925 0
M  V30 10 C 2.674455 3.532661 0.203107 0
M  V30 11 C 1.637241 4.411832 -0.048072 0
M  V30 12 C 0.335103 3.969992 -0.100550 0
M  V30 13 N -0.855029 4.568779 -0.319011 0
M  V30 14 N -1.802117 3.652756 -0.256044 0
M  V30 15 C -1.251838 2.436320 0.004736 0
M  V30 16 C -1.908633 1.129677 0.162480 0
M  V30 17 N -3.242372 0.989222 0.055528 0
M  V30 18 C -3.591159 -0.298232 0.240164 0
M  V30 19 C -4.763641 -1.022449 0.248200 0
M  V30 20 C -6.027584 -0.322815 0.005265 0
M  V30 21 C -7.285537 -0.767182 -0.043071 0
M  V30 22 C -8.325441 0.052595 -0.284370 0
M  V30 23 C -7.936723 1.457866 -0.484502 0
M  V30 24 Cl -9.223244 2.760956 -0.832156 0
M  V30 25 S -6.067590 1.406165 -0.291914 0
M  V30 26 C -4.815262 -2.383920 0.474553 0
M  V30 27 C -3.569949 -2.973556 0.696993 0
M  V30 28 N -2.412249 -2.293067 0.694931 0
M  V30 29 C -2.405822 -0.971480 0.470926 0
M  V30 30 N -1.391980 -0.069425 0.417024 0
M  V30 31 C 0.113506 2.615808 0.108023 0
M  V30 32 N 1.164803 1.813296 0.347538 0
M  V30 33 C 3.194680 -0.078259 0.869226 0
M  V30 34 C 3.462214 -4.721832 0.906027 0
M  V30 35 C 3.373577 -5.839530 -0.122204 0
M  V30 36 C 2.151964 -6.344652 0.636227 0
M  V30 37 C 2.014565 -4.948726 1.209376 0
M  V30 38 H 3.733308 -2.423545 2.347583 0
M  V30 39 H 6.274203 -1.348274 1.388006 0
M  V30 40 H 5.125879 2.595359 0.602459 0
M  V30 41 H 3.652109 3.956126 0.226872 0
M  V30 42 H 1.759114 5.485031 -0.218601 0
M  V30 43 H -0.980375 5.587749 -0.504578 0
M  V30 44 H -7.453149 -1.823304 0.119632 0
M  V30 45 H -9.371445 -0.195618 -0.345304 0
M  V30 46 H -5.735922 -2.939886 0.478688 0
M  V30 47 H -3.532139 -4.050104 0.883661 0
M  V30 48 H -0.366260 -0.247432 0.547933 0
M  V30 49 H 2.149356 -0.408712 0.823128 0
M  V30 50 H 4.086812 -4.975987 1.790658 0
M  V30 51 H 3.106036 -5.409627 -1.111841 0
M  V30 52 H 4.233225 -6.536249 -0.107894 0
M  V30 53 H 1.310754 -6.667255 -0.007162 0
M  V30 54 H 2.470361 -7.080332 1.413001 0
M  V30 55 H 1.284152 -4.392279 0.596407 0
M  V30 56 H 1.719124 -4.896242 2.273457 0
M  V30 END ATOM
M  V30 BEGIN BOND
M  V30 1 2 1 2
M  V30 2 1 2 3
M  V30 3 1 3 4
M  V30 4 2 4 5
M  V30 5 1 5 6
M  V30 6 2 6 7
M  V30 7 1 7 8
M  V30 8 1 8 9
M  V30 9 2 9 10
M  V30 10 1 10 11
M  V30 11 2 11 12
M  V30 12 1 12 13
M  V30 13 1 13 14
M  V30 14 2 14 15
M  V30 15 1 15 16
M  V30 16 2 16 17
M  V30 17 1 17 18
M  V30 18 2 18 19
M  V30 19 1 19 20
M  V30 20 2 20 21
M  V30 21 1 21 22
M  V30 22 2 22 23
M  V30 23 1 23 24
M  V30 24 1 23 25
M  V30 25 1 19 26
M  V30 26 2 26 27
M  V30 27 1 27 28
M  V30 28 2 28 29
M  V30 29 1 29 30
M  V30 30 1 15 31
M  V30 31 2 31 32
M  V30 32 2 8 33
M  V30 33 1 2 34
M  V30 34 1 34 35
M  V30 35 1 35 36
M  V30 36 1 36 37
M  V30 37 1 33 4
M  V30 38 1 37 34
M  V30 39 1 32 9
M  V30 40 1 31 12
M  V30 41 1 30 16
M  V30 42 1 29 18
M  V30 43 1 25 20
M  V30 44 1 3 38
M  V30 45 1 5 39
M  V30 46 1 7 40
M  V30 47 1 10 41
M  V30 48 1 11 42
M  V30 49 1 13 43
M  V30 50 1 21 44
M  V30 51 1 22 45
M  V30 52 1 26 46
M  V30 53 1 27 47
M  V30 54 1 30 48
M  V30 55 1 33 49
M  V30 56 1 34 50
M  V30 57 1 35 51
M  V30 58 1 35 52
M  V30 59 1 36 53
M  V30 60 1 36 54
M  V30 61 1 37 55
M  V30 62 1 37 56
M  V30 END BOND
M  V30 END CTAB
M  END
>  <Dataset>  (433) 
ChEMBL_Kinases

>  <Ligand_Instance>  (433) 
nan

>  <PDB_ID>  (433) 
nan

>  <Standardized_SMILES>  (433) 
O=C(Nc1cncc(-c2ccc3[nH]nc(-c4nc5c(-c6ccc(Cl)s6)ccnc5[nH]4)c3n2)c1)C1CCC1

>  <Name>  (433) 
nan

>  <Pocket>  (433) 
nan

>  <ATP_Site>  (433) 
nan

>  <Peripheral>  (433) 
nan

>  <Num_H_Atoms_ProtBoundConf>  (433) 
nan

>  <Num_Resolved_Atoms>  (433) 
nan

>  <Num_Not_Resolved_Atoms>  (433) 
nan

$$$$
CHEMBL4754606
     RDKit          3D

  0  0  0  0  0  0  0  0  0  0999 V3000
M  V30 BEGIN CTAB
M  V30 COUNTS 58 62 0 0 0
M  V30 BEGIN ATOM
M  V30 1 C 3.874539 -0.527725 8.863142 0
M  V30 2 C 3.499188 -0.371465 7.435109 0
M  V30 3 C 3.409823 -1.485090 6.623960 0
M  V30 4 C 3.055270 -1.257124 5.309253 0
M  V30 5 C 2.794011 0.016972 4.793511 0
M  V30 6 N 2.433446 0.197876 3.435574 0
M  V30 7 C 3.439235 0.408697 2.474030 0
M  V30 8 O 4.537427 0.381342 3.132636 0
M  V30 9 C 3.516399 0.628046 1.052487 0
M  V30 10 N 4.742025 0.783888 0.523955 0
M  V30 11 N 4.625805 0.975976 -0.794713 0
M  V30 12 C 3.345472 0.957789 -1.198404 0
M  V30 13 C 2.681692 1.098127 -2.396831 0
M  V30 14 C 1.304236 1.011360 -2.384580 0
M  V30 15 C 0.628037 0.788968 -1.189716 0
M  V30 16 C -0.842948 0.695580 -1.170028 0
M  V30 17 C -1.494959 1.132913 -0.011538 0
M  V30 18 N -2.833632 1.114839 0.166937 0
M  V30 19 C -3.612052 0.650511 -0.819437 0
M  V30 20 C -3.026695 0.204859 -1.986720 0
M  V30 21 C -3.789327 -0.330465 -3.138199 0
M  V30 22 N -4.008995 -1.723209 -3.139386 0
M  V30 23 C -4.712570 -2.319750 -2.087443 0
M  V30 24 C -4.307780 -3.728314 -1.736415 0
M  V30 25 C -3.070511 -4.170452 -2.480581 0
M  V30 26 C -3.306149 -3.944815 -3.937232 0
M  V30 27 C -3.513117 -2.495571 -4.200842 0
M  V30 28 C -1.654605 0.221407 -2.174487 0
M  V30 29 C 1.301187 0.650243 0.001360 0
M  V30 30 C 2.669040 0.737857 -0.020431 0
M  V30 31 C 2.905290 1.085726 5.673554 0
M  V30 32 N 3.249987 0.880286 6.958475 0
M  V30 33 H 3.350104 -1.428093 9.244388 0
M  V30 34 H 4.969804 -0.641224 9.002512 0
M  V30 35 H 3.523585 0.348385 9.461950 0
M  V30 36 H 3.605137 -2.483653 6.991040 0
M  V30 37 H 2.962039 -2.091452 4.597525 0
M  V30 38 H 1.486213 0.199890 3.008316 0
M  V30 39 H 5.459425 1.119730 -1.404391 0
M  V30 40 H 3.272703 1.269721 -3.290675 0
M  V30 41 H 0.777943 1.120890 -3.324110 0
M  V30 42 H -0.983870 1.537116 0.874349 0
M  V30 43 H -4.688394 0.620728 -0.717609 0
M  V30 44 H -3.289939 -0.059111 -4.110980 0
M  V30 45 H -4.797276 0.165234 -3.224536 0
M  V30 46 H -5.821912 -2.242489 -2.252375 0
M  V30 47 H -4.552120 -1.727751 -1.143749 0
M  V30 48 H -4.130582 -3.886777 -0.655906 0
M  V30 49 H -5.153945 -4.384690 -2.026267 0
M  V30 50 H -2.192847 -3.656715 -2.091224 0
M  V30 51 H -2.960131 -5.257765 -2.315540 0
M  V30 52 H -2.422290 -4.300322 -4.532438 0
M  V30 53 H -4.161787 -4.561858 -4.274055 0
M  V30 54 H -2.523480 -2.047655 -4.511509 0
M  V30 55 H -4.150890 -2.370392 -5.119236 0
M  V30 56 H -1.135677 -0.112336 -3.062397 0
M  V30 57 H 0.760494 0.480256 0.906277 0
M  V30 58 H 2.703530 2.083199 5.280906 0
M  V30 END ATOM
M  V30 BEGIN BOND
M  V30 1 1 1 2
M  V30 2 2 2 3
M  V30 3 1 3 4
M  V30 4 2 4 5
M  V30 5 1 5 6
M  V30 6 1 6 7
M  V30 7 2 7 8
M  V30 8 1 7 9
M  V30 9 2 9 10
M  V30 10 1 10 11
M  V30 11 1 11 12
M  V30 12 2 12 13
M  V30 13 1 13 14
M  V30 14 2 14 15
M  V30 15 1 15 16
M  V30 16 2 16 17
M  V30 17 1 17 18
M  V30 18 2 18 19
M  V30 19 1 19 20
M  V30 20 1 20 21
M  V30 21 1 21 22
M  V30 22 1 22 23
M  V30 23 1 23 24
M  V30 24 1 24 25
M  V30 25 1 25 26
M  V30 26 1 26 27
M  V30 27 2 20 28
M  V30 28 1 15 29
M  V30 29 2 29 30
M  V30 30 1 5 31
M  V30 31 2 31 32
M  V30 32 1 32 2
M  V30 33 1 30 9
M  V30 34 1 30 12
M  V30 35 1 28 16
M  V30 36 1 27 22
M  V30 37 1 1 33
M  V30 38 1 1 34
M  V30 39 1 1 35
M  V30 40 1 3 36
M  V30 41 1 4 37
M  V30 42 1 6 38
M  V30 43 1 11 39
M  V30 44 1 13 40
M  V30 45 1 14 41
M  V30 46 1 17 42
M  V30 47 1 19 43
M  V30 48 1 21 44
M  V30 49 1 21 45
M  V30 50 1 23 46
M  V30 51 1 23 47
M  V30 52 1 24 48
M  V30 53 1 24 49
M  V30 54 1 25 50
M  V30 55 1 25 51
M  V30 56 1 26 52
M  V30 57 1 26 53
M  V30 58 1 27 54
M  V30 59 1 27 55
M  V30 60 1 28 56
M  V30 61 1 29 57
M  V30 62 1 31 58
M  V30 END BOND
M  V30 END CTAB
M  END
>  <Dataset>  (434) 
ChEMBL_Kinases

>  <Ligand_Instance>  (434) 
nan

>  <PDB_ID>  (434) 
nan

>  <Standardized_SMILES>  (434) 
Cc1ccc(NC(=O)c2n[nH]c3ccc(-c4cncc(CN5CCCCC5)c4)cc23)cn1

>  <Name>  (434) 
nan

>  <Pocket>  (434) 
nan

>  <ATP_Site>  (434) 
nan

>  <Peripheral>  (434) 
nan

>  <Num_H_Atoms_ProtBoundConf>  (434) 
nan

>  <Num_Resolved_Atoms>  (434) 
nan

>  <Num_Not_Resolved_Atoms>  (434) 
nan

$$$$
CHEMBL4754584
     RDKit          3D

  0  0  0  0  0  0  0  0  0  0999 V3000
M  V30 BEGIN CTAB
M  V30 COUNTS 51 54 0 0 0
M  V30 BEGIN ATOM
M  V30 1 C 0.970287 -1.171640 3.600607 0
M  V30 2 N 2.087718 -0.790396 4.443191 0
M  V30 3 C 2.384857 0.605313 4.251305 0
M  V30 4 C 3.874200 0.714868 4.159074 0
M  V30 5 C 4.233782 -0.580829 3.463482 0 CFG=2
M  V30 6 N 3.833342 -0.554857 2.062547 0
M  V30 7 C 4.684723 -0.769184 0.959659 0
M  V30 8 O 5.919119 -1.016186 0.995855 0
M  V30 9 C 4.070672 -0.698182 -0.389037 0
M  V30 10 C 2.841937 -0.466315 -0.784386 0
M  V30 11 C 2.506953 -0.450435 -2.106570 0
M  V30 12 N 1.194685 -0.206993 -2.636075 0
M  V30 13 C 0.218583 -1.104706 -2.406501 0
M  V30 14 C -0.911071 -0.584683 -3.041748 0
M  V30 15 N -2.177920 -1.268245 -3.022084 0
M  V30 16 C -3.036995 -0.931353 -1.928923 0
M  V30 17 O -2.557151 -0.070156 -1.123866 0
M  V30 18 N -4.333101 -1.442687 -1.655145 0
M  V30 19 C -5.026118 -0.971787 -0.504660 0
M  V30 20 C -5.882407 0.098344 -0.376035 0
M  V30 21 C -6.447435 0.372270 0.853247 0
M  V30 22 C -6.165388 -0.411235 1.952157 0
M  V30 23 C -5.308058 -1.492166 1.848533 0
M  V30 24 C -4.744558 -1.761282 0.611791 0
M  V30 25 Cl -3.674913 -3.160012 0.615176 0
M  V30 26 C -0.572786 0.614370 -3.634454 0
M  V30 27 N 0.735512 0.808073 -3.358743 0
M  V30 28 C 3.552021 -0.694965 -2.984412 0
M  V30 29 S 5.016404 -0.945488 -1.850946 0
M  V30 30 C 3.286389 -1.544455 4.145478 0
M  V30 31 H 1.267011 -1.937424 2.873268 0
M  V30 32 H 0.448501 -0.315612 3.147866 0
M  V30 33 H 0.206957 -1.631913 4.294007 0
M  V30 34 H 2.004292 1.167522 5.121203 0
M  V30 35 H 1.939255 1.014724 3.321968 0
M  V30 36 H 4.170590 1.598930 3.567693 0
M  V30 37 H 4.371109 0.685234 5.153303 0
M  V30 38 H 5.290231 -0.787194 3.624943 0
M  V30 39 H 2.812338 -0.355507 1.905911 0
M  V30 40 H 2.086451 -0.283762 -0.001569 0
M  V30 41 H 0.252145 -2.044111 -1.853663 0
M  V30 42 H -2.581943 -1.981218 -3.683559 0
M  V30 43 H -4.640985 -2.145635 -2.374547 0
M  V30 44 H -6.023332 0.633442 -1.305381 0
M  V30 45 H -7.109087 1.224773 0.884835 0
M  V30 46 H -6.622958 -0.176401 2.913197 0
M  V30 47 H -5.126614 -2.067088 2.743165 0
M  V30 48 H -1.249408 1.242880 -4.198161 0
M  V30 49 H 3.495285 -0.727619 -4.115272 0
M  V30 50 H 3.014839 -2.392750 3.471394 0
M  V30 51 H 3.669742 -1.972983 5.075536 0
M  V30 END ATOM
M  V30 BEGIN BOND
M  V30 1 1 1 2
M  V30 2 1 2 3
M  V30 3 1 3 4
M  V30 4 1 4 5
M  V30 5 1 5 6
M  V30 6 1 6 7
M  V30 7 2 7 8
M  V30 8 1 7 9
M  V30 9 2 9 10
M  V30 10 1 10 11
M  V30 11 1 11 12
M  V30 12 1 12 13
M  V30 13 2 13 14
M  V30 14 1 14 15
M  V30 15 1 15 16
M  V30 16 2 16 17
M  V30 17 1 16 18
M  V30 18 1 18 19
M  V30 19 2 19 20
M  V30 20 1 20 21
M  V30 21 2 21 22
M  V30 22 1 22 23
M  V30 23 2 23 24
M  V30 24 1 24 25
M  V30 25 1 14 26
M  V30 26 2 26 27
M  V30 27 2 11 28
M  V30 28 1 28 29
M  V30 29 1 5 30
M  V30 30 1 30 2
M  V30 31 1 29 9
M  V30 32 1 27 12
M  V30 33 1 24 19
M  V30 34 1 1 31
M  V30 35 1 1 32
M  V30 36 1 1 33
M  V30 37 1 3 34
M  V30 38 1 3 35
M  V30 39 1 4 36
M  V30 40 1 4 37
M  V30 41 1 5 38 CFG=3
M  V30 42 1 6 39
M  V30 43 1 10 40
M  V30 44 1 13 41
M  V30 45 1 15 42
M  V30 46 1 18 43
M  V30 47 1 20 44
M  V30 48 1 21 45
M  V30 49 1 22 46
M  V30 50 1 23 47
M  V30 51 1 26 48
M  V30 52 1 28 49
M  V30 53 1 30 50
M  V30 54 1 30 51
M  V30 END BOND
M  V30 END CTAB
M  END
>  <Dataset>  (435) 
ChEMBL_Kinases

>  <Ligand_Instance>  (435) 
nan

>  <PDB_ID>  (435) 
nan

>  <Standardized_SMILES>  (435) 
CN1CC[C@H](NC(=O)c2cc(-n3cc(NC(=O)Nc4ccccc4Cl)cn3)cs2)C1

>  <Name>  (435) 
nan

>  <Pocket>  (435) 
nan

>  <ATP_Site>  (435) 
nan

>  <Peripheral>  (435) 
nan

>  <Num_H_Atoms_ProtBoundConf>  (435) 
nan

>  <Num_Resolved_Atoms>  (435) 
nan

>  <Num_Not_Resolved_Atoms>  (435) 
nan

$$$$
CHEMBL265559
     RDKit          3D

  0  0  0  0  0  0  0  0  0  0999 V3000
M  V30 BEGIN CTAB
M  V30 COUNTS 60 63 0 0 0
M  V30 BEGIN ATOM
M  V30 1 O 5.492666 -1.997204 2.089524 0
M  V30 2 C 4.263278 -2.019720 1.850857 0
M  V30 3 N 3.390986 -1.055712 2.401104 0
M  V30 4 C 3.807707 0.039968 3.280934 0
M  V30 5 C 2.970846 0.153451 4.518880 0
M  V30 6 N 3.015982 1.565152 4.881325 0
M  V30 7 C 3.347445 2.293068 3.679838 0
M  V30 8 C 3.368740 1.307050 2.544585 0
M  V30 9 O 2.038264 1.081912 2.138575 0
M  V30 10 C 1.586208 1.166845 0.853212 0
M  V30 11 O 2.540021 1.477796 0.081304 0
M  V30 12 C 0.198634 0.924341 0.484516 0
M  V30 13 C -0.679740 0.596830 1.487985 0
M  V30 14 C -2.010484 0.357158 1.170530 0
M  V30 15 O -2.820897 0.030256 2.275790 0
M  V30 16 C -2.489731 0.433358 -0.111332 0
M  V30 17 C -3.886296 0.245753 -0.370027 0
M  V30 18 O -4.516787 0.534540 0.710436 0
M  V30 19 C -4.817242 -0.135925 -1.369045 0
M  V30 20 C -6.108724 0.337616 -1.297807 0
M  V30 21 O -6.523322 1.233198 -0.293766 0
M  V30 22 C -7.066410 -0.050208 -2.220598 0
M  V30 23 C -6.768190 -0.914350 -3.232977 0
M  V30 24 C -5.505856 -1.427505 -3.365169 0
M  V30 25 C -4.608977 -1.001173 -2.415185 0
M  V30 26 C -3.341609 -1.694049 -2.570883 0
M  V30 27 O -2.964566 -2.500597 -3.447063 0
M  V30 28 O -2.060056 -2.139496 -2.374219 0
M  V30 29 C -1.566214 0.766747 -1.068308 0
M  V30 30 O -1.828883 0.912686 -2.420741 0
M  V30 31 C -0.234621 1.015190 -0.819238 0
M  V30 32 C 3.783160 -3.086839 0.980536 0
M  V30 33 C 4.698246 -3.995686 0.478650 0
M  V30 34 C 4.291075 -5.035993 -0.358813 0
M  V30 35 C 2.953529 -5.173876 -0.701870 0
M  V30 36 O 2.506792 -6.204615 -1.539462 0
M  V30 37 C 2.029346 -4.274236 -0.208389 0
M  V30 38 C 2.465106 -3.258043 0.616537 0
M  V30 39 H 2.368028 -1.065014 2.209446 0
M  V30 40 H 4.886461 0.043415 3.478337 0
M  V30 41 H 1.920291 -0.095969 4.269286 0
M  V30 42 H 3.335258 -0.436443 5.376195 0
M  V30 43 H 2.157714 1.906058 5.326133 0
M  V30 44 H 4.398427 2.695855 3.760713 0
M  V30 45 H 2.725720 3.184786 3.497435 0
M  V30 46 H 4.051359 1.566732 1.728143 0
M  V30 47 H -0.324522 0.531101 2.501507 0
M  V30 48 H -3.118254 0.787527 2.895219 0
M  V30 49 H -7.430433 1.050928 0.110010 0
M  V30 50 H -8.054906 0.346809 -2.119794 0
M  V30 51 H -7.565904 -1.154593 -3.896237 0
M  V30 52 H -5.323554 -2.101490 -4.176302 0
M  V30 53 H -1.561466 -2.101021 -1.475021 0
M  V30 54 H -1.308005 0.423346 -3.157779 0
M  V30 55 H 0.534140 1.278377 -1.528187 0
M  V30 56 H 5.753925 -3.933870 0.714902 0
M  V30 57 H 4.958121 -5.770641 -0.777633 0
M  V30 58 H 1.878586 -6.043764 -2.316894 0
M  V30 59 H 0.992743 -4.393564 -0.483416 0
M  V30 60 H 1.733520 -2.571215 0.988581 0
M  V30 END ATOM
M  V30 BEGIN BOND
M  V30 1 2 1 2
M  V30 2 1 2 3
M  V30 3 1 3 4
M  V30 4 1 4 5
M  V30 5 1 5 6
M  V30 6 1 6 7
M  V30 7 1 7 8
M  V30 8 1 8 9
M  V30 9 1 9 10
M  V30 10 2 10 11
M  V30 11 1 10 12
M  V30 12 2 12 13
M  V30 13 1 13 14
M  V30 14 1 14 15
M  V30 15 2 14 16
M  V30 16 1 16 17
M  V30 17 2 17 18
M  V30 18 1 17 19
M  V30 19 2 19 20
M  V30 20 1 20 21
M  V30 21 1 20 22
M  V30 22 2 22 23
M  V30 23 1 23 24
M  V30 24 2 24 25
M  V30 25 1 25 26
M  V30 26 2 26 27
M  V30 27 1 26 28
M  V30 28 1 16 29
M  V30 29 1 29 30
M  V30 30 2 29 31
M  V30 31 1 2 32
M  V30 32 2 32 33
M  V30 33 1 33 34
M  V30 34 2 34 35
M  V30 35 1 35 36
M  V30 36 1 35 37
M  V30 37 2 37 38
M  V30 38 1 8 4
M  V30 39 1 31 12
M  V30 40 1 38 32
M  V30 41 1 25 19
M  V30 42 1 3 39
M  V30 43 1 4 40
M  V30 44 1 5 41
M  V30 45 1 5 42
M  V30 46 1 6 43
M  V30 47 1 7 44
M  V30 48 1 7 45
M  V30 49 1 8 46
M  V30 50 1 13 47
M  V30 51 1 15 48
M  V30 52 1 21 49
M  V30 53 1 22 50
M  V30 54 1 23 51
M  V30 55 1 24 52
M  V30 56 1 28 53
M  V30 57 1 30 54
M  V30 58 1 31 55
M  V30 59 1 33 56
M  V30 60 1 34 57
M  V30 61 1 36 58
M  V30 62 1 37 59
M  V30 63 1 38 60
M  V30 END BOND
M  V30 END CTAB
M  END
>  <Dataset>  (436) 
ChEMBL_Kinases

>  <Ligand_Instance>  (436) 
nan

>  <PDB_ID>  (436) 
nan

>  <Standardized_SMILES>  (436) 
O=C(NC1CNCC1OC(=O)c1cc(O)c(C(=O)c2c(O)cccc2C(=O)O)c(O)c1)c1ccc(O)cc1

>  <Name>  (436) 
nan

>  <Pocket>  (436) 
nan

>  <ATP_Site>  (436) 
nan

>  <Peripheral>  (436) 
nan

>  <Num_H_Atoms_ProtBoundConf>  (436) 
nan

>  <Num_Resolved_Atoms>  (436) 
nan

>  <Num_Not_Resolved_Atoms>  (436) 
nan

$$$$
CHEMBL43612
     RDKit          3D

  0  0  0  0  0  0  0  0  0  0999 V3000
M  V30 BEGIN CTAB
M  V30 COUNTS 19 20 0 0 0
M  V30 BEGIN ATOM
M  V30 1 O -1.173871 -1.381376 2.844332 0
M  V30 2 C -0.119441 -0.850451 2.470569 0
M  V30 3 C 0.985496 -0.583594 3.385074 0
M  V30 4 C 2.153970 -0.029130 3.123757 0
M  V30 5 C 2.345195 0.360608 1.731964 0
M  V30 6 O 3.417554 0.894856 1.377552 0
M  V30 7 C 1.304850 0.141595 0.725431 0
M  V30 8 C 1.484847 0.513405 -0.607010 0
M  V30 9 O 2.703426 1.098950 -0.912473 0
M  V30 10 C 0.459283 0.275434 -1.499659 0
M  V30 11 C -0.728864 -0.302836 -1.168673 0
M  V30 12 C -0.922741 -0.680620 0.164103 0
M  V30 13 C 0.084545 -0.452532 1.066307 0
M  V30 14 H 0.802736 -0.891021 4.421740 0
M  V30 15 H 2.883330 0.109528 3.896577 0
M  V30 16 H 2.812285 2.089463 -0.915558 0
M  V30 17 H 0.631319 0.576365 -2.527510 0
M  V30 18 H -1.475473 -0.456075 -1.908845 0
M  V30 19 H -1.849947 -1.140942 0.463251 0
M  V30 END ATOM
M  V30 BEGIN BOND
M  V30 1 2 1 2
M  V30 2 1 2 3
M  V30 3 2 3 4
M  V30 4 1 4 5
M  V30 5 2 5 6
M  V30 6 1 5 7
M  V30 7 2 7 8
M  V30 8 1 8 9
M  V30 9 1 8 10
M  V30 10 2 10 11
M  V30 11 1 11 12
M  V30 12 2 12 13
M  V30 13 1 13 2
M  V30 14 1 13 7
M  V30 15 1 3 14
M  V30 16 1 4 15
M  V30 17 1 9 16
M  V30 18 1 10 17
M  V30 19 1 11 18
M  V30 20 1 12 19
M  V30 END BOND
M  V30 END CTAB
M  END
>  <Dataset>  (437) 
ChEMBL_Kinases

>  <Ligand_Instance>  (437) 
nan

>  <PDB_ID>  (437) 
nan

>  <Standardized_SMILES>  (437) 
O=C1C=CC(=O)c2c(O)cccc21

>  <Name>  (437) 
JUGLONE

>  <Pocket>  (437) 
nan

>  <ATP_Site>  (437) 
nan

>  <Peripheral>  (437) 
nan

>  <Num_H_Atoms_ProtBoundConf>  (437) 
nan

>  <Num_Resolved_Atoms>  (437) 
nan

>  <Num_Not_Resolved_Atoms>  (437) 
nan

$$$$
CHEMBL437331
     RDKit          3D

  0  0  0  0  0  0  0  0  0  0999 V3000
M  V30 BEGIN CTAB
M  V30 COUNTS 47 49 0 0 0
M  V30 BEGIN ATOM
M  V30 1 C 1.559742 -1.420123 2.101623 0
M  V30 2 C 2.228588 -0.850340 0.854281 0
M  V30 3 C 1.704859 -1.646232 -0.314610 0
M  V30 4 O 2.162120 -2.962583 -0.209089 0
M  V30 5 N 1.750390 0.502368 0.747509 0
M  V30 6 C 2.271520 1.403114 0.044738 0
M  V30 7 N 3.302682 0.642611 -0.467626 0
M  V30 8 C 1.887693 2.764479 -0.143127 0
M  V30 9 C 2.698719 3.407952 -0.977497 0
M  V30 10 O 3.841339 3.198188 -1.741236 0
M  V30 11 N 2.500661 4.795950 -1.343165 0
M  V30 12 S 0.977232 5.111661 -0.337037 0
M  V30 13 C 0.857228 3.513138 0.340214 0
M  V30 14 N -0.025179 2.875305 1.258822 0
M  V30 15 C -0.948165 1.829487 1.208267 0
M  V30 16 C -1.323204 1.204161 0.034025 0
M  V30 17 C -2.201244 0.139570 0.020093 0
M  V30 18 C -2.691215 -0.271769 1.266315 0
M  V30 19 O -3.581908 -1.331473 1.480521 0
M  V30 20 C -3.001733 -2.590785 1.742908 0
M  V30 21 C -2.700883 -3.095053 2.984304 0
M  V30 22 C -2.135604 -4.338679 3.121726 0
M  V30 23 C -1.902915 -5.014533 1.945844 0
M  V30 24 C -2.190262 -4.542974 0.680652 0
M  V30 25 C -2.759496 -3.288514 0.560281 0
M  V30 26 C -2.331030 0.341339 2.447504 0
M  V30 27 C -1.452553 1.400269 2.414731 0
M  V30 28 H 2.120467 -2.255153 2.520217 0
M  V30 29 H 1.423138 -0.614450 2.847839 0
M  V30 30 H 0.526033 -1.701858 1.789982 0
M  V30 31 H 3.338415 -0.923778 0.936933 0
M  V30 32 H 2.056114 -1.267664 -1.289138 0
M  V30 33 H 0.610451 -1.660854 -0.327237 0
M  V30 34 H 2.153048 -3.361787 -1.129681 0
M  V30 35 H 4.320615 0.504522 -0.282652 0
M  V30 36 H 4.021824 0.051033 -0.894483 0
M  V30 37 H 3.922731 2.315889 -2.276831 0
M  V30 38 H 0.148097 3.411458 2.145404 0
M  V30 39 H -0.919618 1.553354 -0.902756 0
M  V30 40 H -2.538544 -0.393347 -0.835781 0
M  V30 41 H -2.922086 -2.481984 3.849446 0
M  V30 42 H -1.898463 -4.738442 4.087366 0
M  V30 43 H -1.451782 -6.011685 2.019301 0
M  V30 44 H -1.975149 -5.147705 -0.208480 0
M  V30 45 H -2.975826 -2.933000 -0.427582 0
M  V30 46 H -2.699860 0.044275 3.424882 0
M  V30 47 H -1.166904 1.890369 3.353874 0
M  V30 END ATOM
M  V30 BEGIN BOND
M  V30 1 1 1 2
M  V30 2 1 2 3
M  V30 3 1 3 4
M  V30 4 1 2 5
M  V30 5 2 5 6
M  V30 6 1 6 7
M  V30 7 1 6 8
M  V30 8 1 8 9
M  V30 9 1 9 10
M  V30 10 2 9 11
M  V30 11 1 11 12
M  V30 12 1 12 13
M  V30 13 1 13 14
M  V30 14 1 14 15
M  V30 15 2 15 16
M  V30 16 1 16 17
M  V30 17 2 17 18
M  V30 18 1 18 19
M  V30 19 1 19 20
M  V30 20 2 20 21
M  V30 21 1 21 22
M  V30 22 2 22 23
M  V30 23 1 23 24
M  V30 24 2 24 25
M  V30 25 1 18 26
M  V30 26 2 26 27
M  V30 27 2 13 8
M  V30 28 1 27 15
M  V30 29 1 25 20
M  V30 30 1 1 28
M  V30 31 1 1 29
M  V30 32 1 1 30
M  V30 33 1 2 31
M  V30 34 1 3 32
M  V30 35 1 3 33
M  V30 36 1 4 34
M  V30 37 1 7 35
M  V30 38 1 7 36
M  V30 39 1 10 37
M  V30 40 1 14 38
M  V30 41 1 16 39
M  V30 42 1 17 40
M  V30 43 1 21 41
M  V30 44 1 22 42
M  V30 45 1 23 43
M  V30 46 1 24 44
M  V30 47 1 25 45
M  V30 48 1 26 46
M  V30 49 1 27 47
M  V30 END BOND
M  V30 END CTAB
M  END
>  <Dataset>  (438) 
ChEMBL_Kinases

>  <Ligand_Instance>  (438) 
nan

>  <PDB_ID>  (438) 
nan

>  <Standardized_SMILES>  (438) 
CC(CO)/N=C(\N)c1c(O)nsc1Nc1ccc(Oc2ccccc2)cc1

>  <Name>  (438) 
nan

>  <Pocket>  (438) 
nan

>  <ATP_Site>  (438) 
nan

>  <Peripheral>  (438) 
nan

>  <Num_H_Atoms_ProtBoundConf>  (438) 
nan

>  <Num_Resolved_Atoms>  (438) 
nan

>  <Num_Not_Resolved_Atoms>  (438) 
nan

$$$$
CHEMBL4754511
     RDKit          3D

  0  0  0  0  0  0  0  0  0  0999 V3000
M  V30 BEGIN CTAB
M  V30 COUNTS 72 77 0 0 0
M  V30 BEGIN ATOM
M  V30 1 C 2.957294 -3.561435 4.665388 0
M  V30 2 C 3.066111 -3.902342 3.182824 0
M  V30 3 C 2.211089 -5.124316 2.910393 0
M  V30 4 N 2.645142 -2.768106 2.392255 0
M  V30 5 C 3.303829 -1.515350 2.420020 0
M  V30 6 C 4.409385 -1.306144 3.179574 0
M  V30 7 N 4.967071 -0.092356 3.162023 0
M  V30 8 C 4.437110 0.869200 2.414042 0
M  V30 9 C 3.332010 0.789846 1.608519 0
M  V30 10 C 2.889887 1.909805 0.813974 0
M  V30 11 C 3.776148 3.000484 0.822209 0
M  V30 12 C 3.529946 4.105204 0.027950 0
M  V30 13 C 2.372603 3.979112 -0.711878 0
M  V30 14 N 1.921690 4.876596 -1.588959 0
M  V30 15 N 0.850073 4.392385 -2.092913 0
M  V30 16 C 0.501576 3.164797 -1.607386 0
M  V30 17 C -0.656109 2.448096 -2.086736 0
M  V30 18 N -1.402428 1.360611 -1.850042 0
M  V30 19 C -2.434792 1.362812 -2.681780 0
M  V30 20 C -3.521326 0.586820 -2.968998 0
M  V30 21 C -3.911566 -0.588149 -2.269157 0
M  V30 22 C -5.309866 -0.627256 -2.062791 0
M  V30 23 C -6.086091 -1.606471 -1.500233 0
M  V30 24 F -7.434865 -1.534740 -1.352710 0
M  V30 25 C -5.427353 -2.729236 -1.061392 0
M  V30 26 C -4.062609 -2.786175 -1.211896 0
M  V30 27 N -3.514088 -4.019451 -0.807572 0
M  V30 28 C -2.074098 -3.852789 -0.517153 0
M  V30 29 C -2.170850 -3.221530 0.881560 0
M  V30 30 N -0.922247 -2.810195 1.438752 0
M  V30 31 C -0.482653 -1.606808 0.701035 0
M  V30 32 C -1.161729 -2.411508 2.806258 0
M  V30 33 C -3.377128 -1.746362 -1.791878 0
M  V30 34 C -4.421550 0.954327 -4.003074 0
M  V30 35 N -4.308613 2.070103 -4.782829 0
M  V30 36 C -3.230989 2.866495 -4.509705 0
M  V30 37 C -2.378900 2.463089 -3.488979 0
M  V30 38 N -1.278496 3.140995 -3.121437 0
M  V30 39 C 1.504967 2.920331 -0.719936 0
M  V30 40 N 1.762078 1.880769 0.043993 0
M  V30 41 C 2.820271 -0.486594 1.681972 0
M  V30 42 H 3.900699 -3.816100 5.169800 0
M  V30 43 H 2.114510 -4.152383 5.121664 0
M  V30 44 H 2.719493 -2.512959 4.848012 0
M  V30 45 H 4.130409 -4.081653 2.923030 0
M  V30 46 H 2.089074 -5.300064 1.826501 0
M  V30 47 H 1.222935 -4.962203 3.424382 0
M  V30 48 H 2.703910 -5.986518 3.406687 0
M  V30 49 H 1.826105 -2.919965 1.791603 0
M  V30 50 H 4.823354 -2.115629 3.780179 0
M  V30 51 H 5.020505 1.776123 2.535613 0
M  V30 52 H 4.708603 3.169256 1.376951 0
M  V30 53 H 4.163266 4.986182 -0.025548 0
M  V30 54 H 2.221025 5.815652 -1.935133 0
M  V30 55 H -5.970778 0.219980 -2.361301 0
M  V30 56 H -6.015264 -3.520332 -0.615895 0
M  V30 57 H -4.033696 -4.892682 -0.734493 0
M  V30 58 H -1.508686 -3.306513 -1.227527 0
M  V30 59 H -1.620223 -4.869602 -0.363487 0
M  V30 60 H -2.861442 -2.339445 0.852901 0
M  V30 61 H -2.612660 -3.977771 1.566544 0
M  V30 62 H -1.354686 -1.186319 0.124002 0
M  V30 63 H 0.352057 -1.885964 0.046438 0
M  V30 64 H -0.202795 -0.853623 1.449149 0
M  V30 65 H -1.112129 -3.320029 3.443348 0
M  V30 66 H -0.466163 -1.611705 3.157197 0
M  V30 67 H -2.198798 -2.017632 2.903962 0
M  V30 68 H -2.319908 -1.728091 -1.951968 0
M  V30 69 H -5.301932 0.341621 -4.262983 0
M  V30 70 H -3.170161 3.732136 -5.134524 0
M  V30 71 H -1.035573 4.059413 -3.639224 0
M  V30 72 H 1.981286 -0.505879 1.011445 0
M  V30 END ATOM
M  V30 BEGIN BOND
M  V30 1 1 1 2
M  V30 2 1 2 3
M  V30 3 1 2 4
M  V30 4 1 4 5
M  V30 5 2 5 6
M  V30 6 1 6 7
M  V30 7 2 7 8
M  V30 8 1 8 9
M  V30 9 1 9 10
M  V30 10 2 10 11
M  V30 11 1 11 12
M  V30 12 2 12 13
M  V30 13 1 13 14
M  V30 14 1 14 15
M  V30 15 2 15 16
M  V30 16 1 16 17
M  V30 17 2 17 18
M  V30 18 1 18 19
M  V30 19 2 19 20
M  V30 20 1 20 21
M  V30 21 2 21 22
M  V30 22 1 22 23
M  V30 23 1 23 24
M  V30 24 2 23 25
M  V30 25 1 25 26
M  V30 26 1 26 27
M  V30 27 1 27 28
M  V30 28 1 28 29
M  V30 29 1 29 30
M  V30 30 1 30 31
M  V30 31 1 30 32
M  V30 32 2 26 33
M  V30 33 1 20 34
M  V30 34 2 34 35
M  V30 35 1 35 36
M  V30 36 2 36 37
M  V30 37 1 37 38
M  V30 38 1 16 39
M  V30 39 2 39 40
M  V30 40 2 9 41
M  V30 41 1 41 5
M  V30 42 1 40 10
M  V30 43 1 39 13
M  V30 44 1 38 17
M  V30 45 1 37 19
M  V30 46 1 33 21
M  V30 47 1 1 42
M  V30 48 1 1 43
M  V30 49 1 1 44
M  V30 50 1 2 45
M  V30 51 1 3 46
M  V30 52 1 3 47
M  V30 53 1 3 48
M  V30 54 1 4 49
M  V30 55 1 6 50
M  V30 56 1 8 51
M  V30 57 1 11 52
M  V30 58 1 12 53
M  V30 59 1 14 54
M  V30 60 1 22 55
M  V30 61 1 25 56
M  V30 62 1 27 57
M  V30 63 1 28 58
M  V30 64 1 28 59
M  V30 65 1 29 60
M  V30 66 1 29 61
M  V30 67 1 31 62
M  V30 68 1 31 63
M  V30 69 1 31 64
M  V30 70 1 32 65
M  V30 71 1 32 66
M  V30 72 1 32 67
M  V30 73 1 33 68
M  V30 74 1 34 69
M  V30 75 1 36 70
M  V30 76 1 38 71
M  V30 77 1 41 72
M  V30 END BOND
M  V30 END CTAB
M  END
>  <Dataset>  (439) 
ChEMBL_Kinases

>  <Ligand_Instance>  (439) 
nan

>  <PDB_ID>  (439) 
nan

>  <Standardized_SMILES>  (439) 
CC(C)Nc1cncc(-c2ccc3[nH]nc(-c4nc5c(-c6cc(F)cc(NCCN(C)C)c6)cncc5[nH]4)c3n2)c1

>  <Name>  (439) 
nan

>  <Pocket>  (439) 
nan

>  <ATP_Site>  (439) 
nan

>  <Peripheral>  (439) 
nan

>  <Num_H_Atoms_ProtBoundConf>  (439) 
nan

>  <Num_Resolved_Atoms>  (439) 
nan

>  <Num_Not_Resolved_Atoms>  (439) 
nan

$$$$
CHEMBL4754499
     RDKit          3D

  0  0  0  0  0  0  0  0  0  0999 V3000
M  V30 BEGIN CTAB
M  V30 COUNTS 48 51 0 0 0
M  V30 BEGIN ATOM
M  V30 1 C -1.216761 -7.804199 0.259313 0
M  V30 2 C 0.245136 -7.466833 0.351020 0
M  V30 3 N 1.302677 -8.318624 0.358376 0
M  V30 4 N 2.425468 -7.588045 0.454203 0
M  V30 5 C 2.122727 -6.279841 0.509396 0
M  V30 6 C 2.881676 -5.133805 0.609278 0
M  V30 7 C 2.214597 -3.934291 0.640279 0
M  V30 8 C 0.850025 -3.774270 0.580232 0
M  V30 9 C 0.131688 -2.509927 0.612182 0
M  V30 10 C 0.706435 -1.238840 0.709595 0
M  V30 11 C -0.013734 -0.027471 0.738630 0
M  V30 12 O 0.848151 0.965039 0.835200 0
M  V30 13 C 1.087995 2.269960 0.920160 0
M  V30 14 C 0.524594 3.022390 2.094751 0 CFG=2
M  V30 15 N 1.004429 2.415939 3.311097 0
M  V30 16 C -0.926319 3.322643 2.056148 0
M  V30 17 C -1.294559 4.174626 0.878500 0
M  V30 18 C -1.660197 3.774932 -0.386270 0
M  V30 19 C -1.976875 4.671575 -1.380453 0
M  V30 20 C -1.942759 6.029884 -1.155306 0
M  V30 21 C -1.587299 6.513471 0.081500 0
M  V30 22 C -1.284693 5.569255 1.024619 0
M  V30 23 C -1.376854 -0.197589 0.660710 0
M  V30 24 N -1.940066 -1.415050 0.566838 0
M  V30 25 N -1.223310 -2.523147 0.543275 0
M  V30 26 C 0.131593 -4.945533 0.481040 0
M  V30 27 C 0.749976 -6.176008 0.445915 0
M  V30 28 H -1.825823 -7.217118 0.977558 0
M  V30 29 H -1.617618 -7.553772 -0.755271 0
M  V30 30 H -1.307341 -8.896223 0.446955 0
M  V30 31 H 3.394004 -7.997758 0.480895 0
M  V30 32 H 3.962192 -5.180920 0.661123 0
M  V30 33 H 2.833700 -3.060124 0.718489 0
M  V30 34 H 1.794711 -1.354326 0.758143 0
M  V30 35 H 0.849726 2.798677 -0.046051 0
M  V30 36 H 2.218861 2.432998 1.009826 0
M  V30 37 H 1.041463 4.042313 2.084347 0
M  V30 38 H 2.025042 2.554784 3.403432 0
M  V30 39 H 0.857501 1.375816 3.202009 0
M  V30 40 H -1.126298 3.971713 2.971309 0
M  V30 41 H -1.617266 2.491378 2.171411 0
M  V30 42 H -1.682563 2.716864 -0.556976 0
M  V30 43 H -2.255402 4.247298 -2.353215 0
M  V30 44 H -2.192443 6.730085 -1.939656 0
M  V30 45 H -1.538194 7.560944 0.331699 0
M  V30 46 H -0.998525 5.947143 2.018870 0
M  V30 47 H -1.909192 0.731596 0.680605 0
M  V30 48 H -0.946251 -4.904823 0.428995 0
M  V30 END ATOM
M  V30 BEGIN BOND
M  V30 1 1 1 2
M  V30 2 2 2 3
M  V30 3 1 3 4
M  V30 4 1 4 5
M  V30 5 2 5 6
M  V30 6 1 6 7
M  V30 7 2 7 8
M  V30 8 1 8 9
M  V30 9 2 9 10
M  V30 10 1 10 11
M  V30 11 1 11 12
M  V30 12 1 12 13
M  V30 13 1 13 14
M  V30 14 1 14 15
M  V30 15 1 14 16
M  V30 16 1 16 17
M  V30 17 2 17 18
M  V30 18 1 18 19
M  V30 19 2 19 20
M  V30 20 1 20 21
M  V30 21 2 21 22
M  V30 22 2 11 23
M  V30 23 1 23 24
M  V30 24 2 24 25
M  V30 25 1 8 26
M  V30 26 2 26 27
M  V30 27 1 27 2
M  V30 28 1 27 5
M  V30 29 1 25 9
M  V30 30 1 22 17
M  V30 31 1 1 28
M  V30 32 1 1 29
M  V30 33 1 1 30
M  V30 34 1 4 31
M  V30 35 1 6 32
M  V30 36 1 7 33
M  V30 37 1 10 34
M  V30 38 1 13 35
M  V30 39 1 13 36
M  V30 40 1 14 37 CFG=3
M  V30 41 1 15 38
M  V30 42 1 15 39
M  V30 43 1 16 40
M  V30 44 1 16 41
M  V30 45 1 18 42
M  V30 46 1 19 43
M  V30 47 1 20 44
M  V30 48 1 21 45
M  V30 49 1 22 46
M  V30 50 1 23 47
M  V30 51 1 26 48
M  V30 END BOND
M  V30 END CTAB
M  END
>  <Dataset>  (440) 
ChEMBL_Kinases

>  <Ligand_Instance>  (440) 
nan

>  <PDB_ID>  (440) 
nan

>  <Standardized_SMILES>  (440) 
Cc1n[nH]c2ccc(-c3cc(OC[C@H](N)Cc4ccccc4)cnn3)cc12

>  <Name>  (440) 
nan

>  <Pocket>  (440) 
nan

>  <ATP_Site>  (440) 
nan

>  <Peripheral>  (440) 
nan

>  <Num_H_Atoms_ProtBoundConf>  (440) 
nan

>  <Num_Resolved_Atoms>  (440) 
nan

>  <Num_Not_Resolved_Atoms>  (440) 
nan

$$$$
CHEMBL4762016
     RDKit          3D

  0  0  0  0  0  0  0  0  0  0999 V3000
M  V30 BEGIN CTAB
M  V30 COUNTS 54 59 0 0 0
M  V30 BEGIN ATOM
M  V30 1 N 2.844759 -1.147547 -3.656573 0
M  V30 2 C 3.456538 -0.342308 -2.653601 0
M  V30 3 C 4.820428 -0.138218 -2.664965 0
M  V30 4 N 5.383405 0.631054 -1.701213 0
M  V30 5 C 4.612732 1.189195 -0.742626 0
M  V30 6 C 3.226154 1.016598 -0.681827 0
M  V30 7 C 2.505579 1.672305 0.404836 0
M  V30 8 C 3.024476 2.878601 0.854691 0
M  V30 9 C 2.397939 3.557872 1.878958 0
M  V30 10 C 1.274567 3.028787 2.433326 0
M  V30 11 N 0.459061 3.430528 3.413120 0
M  V30 12 N -0.511403 2.551997 3.582725 0
M  V30 13 C -0.411552 1.518609 2.740060 0
M  V30 14 C -1.323334 0.395572 2.680691 0
M  V30 15 C -1.457125 -0.750097 1.949174 0
M  V30 16 C -2.553595 -1.498970 2.319641 0
M  V30 17 C -3.042582 -2.709126 1.839321 0
M  V30 18 N -2.380497 -3.385054 0.784275 0
M  V30 19 C -1.035356 -3.907259 0.666292 0
M  V30 20 C -0.396120 -3.522956 -0.626598 0
M  V30 21 C -1.137797 -2.519564 -1.446604 0
M  V30 22 C -2.621371 -2.699792 -1.482377 0
M  V30 23 C -3.146940 -3.633255 -0.444500 0
M  V30 24 C -4.187616 -3.186094 2.450915 0
M  V30 25 C -4.750086 -2.452571 3.464456 0
M  V30 26 N -4.241289 -1.280280 3.900213 0
M  V30 27 C -3.117305 -0.762475 3.336382 0
M  V30 28 N -2.387671 0.340538 3.535271 0
M  V30 29 C 0.716911 1.839145 2.028111 0
M  V30 30 C 1.366031 1.187778 1.005395 0
M  V30 31 C 2.659904 0.226342 -1.674583 0
M  V30 32 H 2.245905 -0.484975 -4.223512 0
M  V30 33 H 2.968835 -2.185866 -3.797346 0
M  V30 34 H 5.470100 -0.571720 -3.420128 0
M  V30 35 H 5.116529 1.793892 0.002078 0
M  V30 36 H 3.916415 3.374811 0.470171 0
M  V30 37 H 2.769856 4.514001 2.269220 0
M  V30 38 H 0.494368 4.283143 4.009295 0
M  V30 39 H -0.796928 -1.043838 1.177514 0
M  V30 40 H -1.137727 -5.013171 0.682400 0
M  V30 41 H -0.395270 -3.669480 1.548923 0
M  V30 42 H -0.130257 -4.394689 -1.261506 0
M  V30 43 H 0.597437 -3.050190 -0.381561 0
M  V30 44 H -0.778354 -2.628592 -2.508673 0
M  V30 45 H -0.822668 -1.474663 -1.182175 0
M  V30 46 H -3.090817 -1.703813 -1.304185 0
M  V30 47 H -2.994594 -3.042969 -2.484659 0
M  V30 48 H -2.988449 -4.690987 -0.785035 0
M  V30 49 H -4.222592 -3.476807 -0.274592 0
M  V30 50 H -4.608132 -4.133043 2.107471 0
M  V30 51 H -5.648129 -2.813107 3.953763 0
M  V30 52 H -2.701589 0.997405 4.283507 0
M  V30 53 H 0.979275 0.254042 0.644424 0
M  V30 54 H 1.600896 0.107809 -1.609085 0
M  V30 END ATOM
M  V30 BEGIN BOND
M  V30 1 1 1 2
M  V30 2 2 2 3
M  V30 3 1 3 4
M  V30 4 2 4 5
M  V30 5 1 5 6
M  V30 6 1 6 7
M  V30 7 2 7 8
M  V30 8 1 8 9
M  V30 9 2 9 10
M  V30 10 1 10 11
M  V30 11 1 11 12
M  V30 12 2 12 13
M  V30 13 1 13 14
M  V30 14 2 14 15
M  V30 15 1 15 16
M  V30 16 2 16 17
M  V30 17 1 17 18
M  V30 18 1 18 19
M  V30 19 1 19 20
M  V30 20 1 20 21
M  V30 21 1 21 22
M  V30 22 1 22 23
M  V30 23 1 17 24
M  V30 24 2 24 25
M  V30 25 1 25 26
M  V30 26 2 26 27
M  V30 27 1 27 28
M  V30 28 1 13 29
M  V30 29 2 29 30
M  V30 30 2 6 31
M  V30 31 1 31 2
M  V30 32 1 30 7
M  V30 33 1 29 10
M  V30 34 1 28 14
M  V30 35 1 27 16
M  V30 36 1 23 18
M  V30 37 1 1 32
M  V30 38 1 1 33
M  V30 39 1 3 34
M  V30 40 1 5 35
M  V30 41 1 8 36
M  V30 42 1 9 37
M  V30 43 1 11 38
M  V30 44 1 15 39
M  V30 45 1 19 40
M  V30 46 1 19 41
M  V30 47 1 20 42
M  V30 48 1 20 43
M  V30 49 1 21 44
M  V30 50 1 21 45
M  V30 51 1 22 46
M  V30 52 1 22 47
M  V30 53 1 23 48
M  V30 54 1 23 49
M  V30 55 1 24 50
M  V30 56 1 25 51
M  V30 57 1 28 52
M  V30 58 1 30 53
M  V30 59 1 31 54
M  V30 END BOND
M  V30 END CTAB
M  END
>  <Dataset>  (441) 
ChEMBL_Kinases

>  <Ligand_Instance>  (441) 
nan

>  <PDB_ID>  (441) 
nan

>  <Standardized_SMILES>  (441) 
Nc1cncc(-c2ccc3[nH]nc(-c4cc5c(N6CCCCC6)ccnc5[nH]4)c3c2)c1

>  <Name>  (441) 
nan

>  <Pocket>  (441) 
nan

>  <ATP_Site>  (441) 
nan

>  <Peripheral>  (441) 
nan

>  <Num_H_Atoms_ProtBoundConf>  (441) 
nan

>  <Num_Resolved_Atoms>  (441) 
nan

>  <Num_Not_Resolved_Atoms>  (441) 
nan

$$$$
CHEMBL4754457
     RDKit          3D

  0  0  0  0  0  0  0  0  0  0999 V3000
M  V30 BEGIN CTAB
M  V30 COUNTS 55 60 0 0 0
M  V30 BEGIN ATOM
M  V30 1 C 3.309800 -4.676903 5.480176 0
M  V30 2 C 4.153516 -4.239344 4.482612 0
M  V30 3 C 3.732574 -3.269101 3.585359 0
M  V30 4 N 4.258179 -2.625877 2.529947 0
M  V30 5 C 3.405008 -1.738589 1.978394 0
M  V30 6 C 3.791537 -0.948720 0.832189 0
M  V30 7 N 4.995092 -1.023872 0.231731 0
M  V30 8 N 5.085892 -0.197971 -0.786685 0
M  V30 9 C 3.938294 0.480334 -0.924222 0
M  V30 10 C 3.550969 1.441995 -1.828810 0
M  V30 11 C 2.254708 1.947473 -1.679841 0
M  V30 12 C 1.439356 1.497995 -0.687796 0
M  V30 13 C 0.070490 2.048123 -0.545849 0
M  V30 14 C -0.282930 3.342537 -0.862642 0
M  V30 15 N -1.551177 3.754690 -0.704134 0
M  V30 16 C -2.533185 2.960355 -0.240769 0
M  V30 17 C -2.202544 1.643409 0.087944 0
M  V30 18 C -3.189956 0.657180 0.610102 0
M  V30 19 N -3.835889 -0.091872 -0.426439 0
M  V30 20 C -2.933457 -0.862732 -1.255966 0
M  V30 21 C -3.761985 -1.372609 -2.430718 0
M  V30 22 C -5.229164 -1.455487 -2.061367 0
M  V30 23 C -5.287466 -2.055851 -0.665415 0
M  V30 24 C -4.758077 -0.999071 0.276902 0
M  V30 25 C -0.888910 1.183811 -0.066142 0
M  V30 26 C 1.892434 0.531762 0.184624 0
M  V30 27 C 3.137761 0.002920 0.092219 0
M  V30 28 C 2.298734 -1.871932 2.768783 0
M  V30 29 C 2.451908 -2.802781 3.772629 0
M  V30 30 C 1.593033 -3.230398 4.767405 0
M  V30 31 N 2.068968 -4.179708 5.608731 0
M  V30 32 H 3.669439 -5.433856 6.162304 0
M  V30 33 H 5.151479 -4.630544 4.369135 0
M  V30 34 H 5.240688 -2.887486 2.273086 0
M  V30 35 H 5.948385 -0.129029 -1.361488 0
M  V30 36 H 4.199768 1.783442 -2.599407 0
M  V30 37 H 1.877065 2.701019 -2.346138 0
M  V30 38 H 0.500446 3.995559 -1.238381 0
M  V30 39 H -3.562883 3.260789 -0.101315 0
M  V30 40 H -2.670541 -0.055242 1.298871 0
M  V30 41 H -3.982859 1.142264 1.210462 0
M  V30 42 H -2.479569 -1.674564 -0.669493 0
M  V30 43 H -2.188998 -0.168584 -1.673986 0
M  V30 44 H -3.422484 -2.406561 -2.644072 0
M  V30 45 H -3.709795 -0.696961 -3.305799 0
M  V30 46 H -5.742123 -0.478072 -2.048559 0
M  V30 47 H -5.733377 -2.158182 -2.754580 0
M  V30 48 H -4.673658 -2.977919 -0.667246 0
M  V30 49 H -6.307012 -2.302518 -0.374509 0
M  V30 50 H -4.179000 -1.525380 1.073341 0
M  V30 51 H -5.527449 -0.389911 0.756616 0
M  V30 52 H -0.651375 0.164302 0.191600 0
M  V30 53 H 1.230203 0.195529 0.958026 0
M  V30 54 H 1.390415 -1.313633 2.634877 0
M  V30 55 H 0.594807 -2.805165 4.840953 0
M  V30 END ATOM
M  V30 BEGIN BOND
M  V30 1 2 1 2
M  V30 2 1 2 3
M  V30 3 1 3 4
M  V30 4 1 4 5
M  V30 5 1 5 6
M  V30 6 2 6 7
M  V30 7 1 7 8
M  V30 8 1 8 9
M  V30 9 2 9 10
M  V30 10 1 10 11
M  V30 11 2 11 12
M  V30 12 1 12 13
M  V30 13 2 13 14
M  V30 14 1 14 15
M  V30 15 2 15 16
M  V30 16 1 16 17
M  V30 17 1 17 18
M  V30 18 1 18 19
M  V30 19 1 19 20
M  V30 20 1 20 21
M  V30 21 1 21 22
M  V30 22 1 22 23
M  V30 23 1 23 24
M  V30 24 2 17 25
M  V30 25 1 12 26
M  V30 26 2 26 27
M  V30 27 2 5 28
M  V30 28 1 28 29
M  V30 29 1 29 30
M  V30 30 2 30 31
M  V30 31 1 31 1
M  V30 32 2 29 3
M  V30 33 1 27 6
M  V30 34 1 27 9
M  V30 35 1 25 13
M  V30 36 1 24 19
M  V30 37 1 1 32
M  V30 38 1 2 33
M  V30 39 1 4 34
M  V30 40 1 8 35
M  V30 41 1 10 36
M  V30 42 1 11 37
M  V30 43 1 14 38
M  V30 44 1 16 39
M  V30 45 1 18 40
M  V30 46 1 18 41
M  V30 47 1 20 42
M  V30 48 1 20 43
M  V30 49 1 21 44
M  V30 50 1 21 45
M  V30 51 1 22 46
M  V30 52 1 22 47
M  V30 53 1 23 48
M  V30 54 1 23 49
M  V30 55 1 24 50
M  V30 56 1 24 51
M  V30 57 1 25 52
M  V30 58 1 26 53
M  V30 59 1 28 54
M  V30 60 1 30 55
M  V30 END BOND
M  V30 END CTAB
M  END
>  <Dataset>  (442) 
ChEMBL_Kinases

>  <Ligand_Instance>  (442) 
nan

>  <PDB_ID>  (442) 
nan

>  <Standardized_SMILES>  (442) 
c1cc2[nH]c(-c3n[nH]c4ccc(-c5cncc(CN6CCCCC6)c5)cc34)cc2cn1

>  <Name>  (442) 
nan

>  <Pocket>  (442) 
nan

>  <ATP_Site>  (442) 
nan

>  <Peripheral>  (442) 
nan

>  <Num_H_Atoms_ProtBoundConf>  (442) 
nan

>  <Num_Resolved_Atoms>  (442) 
nan

>  <Num_Not_Resolved_Atoms>  (442) 
nan

$$$$
CHEMBL260163
     RDKit          3D

  0  0  0  0  0  0  0  0  0  0999 V3000
M  V30 BEGIN CTAB
M  V30 COUNTS 37 40 0 0 0
M  V30 BEGIN ATOM
M  V30 1 O -0.115786 -2.467652 3.686454 0
M  V30 2 C -1.243113 -2.919117 3.359726 0
M  V30 3 N -1.513636 -3.381168 2.042102 0
M  V30 4 C -0.334062 -3.230509 1.255736 0
M  V30 5 N 0.746793 -4.011053 0.962314 0
M  V30 6 N 1.562080 -3.343640 0.162272 0
M  V30 7 C 1.052873 -2.104396 -0.100993 0
M  V30 8 C 1.622973 -1.128640 -0.893315 0
M  V30 9 C 0.893509 0.063634 -0.999956 0
M  V30 10 C 1.444596 1.133428 -1.827062 0
M  V30 11 C 2.208620 0.859115 -2.951204 0
M  V30 12 C 2.682745 1.956706 -3.664860 0
M  V30 13 C 2.399822 3.247956 -3.263554 0
M  V30 14 O 2.923991 4.289227 -4.050230 0
M  V30 15 C 1.631472 3.516033 -2.132795 0
M  V30 16 C 1.147321 2.432110 -1.404606 0
M  V30 17 C -0.304309 0.165467 -0.323456 0
M  V30 18 C -0.846612 -0.830646 0.461327 0
M  V30 19 C -0.140453 -2.034705 0.587716 0
M  V30 20 C -2.234730 -2.914333 4.480782 0
M  V30 21 C -2.170631 -1.641551 5.387452 0
M  V30 22 C -1.762990 -2.981366 5.875547 0
M  V30 23 H -2.470182 -3.743670 1.839434 0
M  V30 24 H 2.446962 -3.850453 -0.139056 0
M  V30 25 H 2.558737 -1.285820 -1.386287 0
M  V30 26 H 2.374486 -0.175775 -3.183254 0
M  V30 27 H 3.279978 1.742748 -4.542818 0
M  V30 28 H 3.215456 5.157653 -3.622819 0
M  V30 29 H 1.449261 4.534992 -1.875920 0
M  V30 30 H 0.552223 2.623819 -0.528341 0
M  V30 31 H -0.878056 1.095782 -0.404757 0
M  V30 32 H -1.787559 -0.732660 0.984085 0
M  V30 33 H -3.232351 -3.297105 4.257212 0
M  V30 34 H -3.161888 -1.202151 5.590340 0
M  V30 35 H -1.353378 -0.926104 5.132420 0
M  V30 36 H -0.672757 -3.152898 6.002179 0
M  V30 37 H -2.373760 -3.419682 6.671154 0
M  V30 END ATOM
M  V30 BEGIN BOND
M  V30 1 2 1 2
M  V30 2 1 2 3
M  V30 3 1 3 4
M  V30 4 2 4 5
M  V30 5 1 5 6
M  V30 6 1 6 7
M  V30 7 2 7 8
M  V30 8 1 8 9
M  V30 9 1 9 10
M  V30 10 2 10 11
M  V30 11 1 11 12
M  V30 12 2 12 13
M  V30 13 1 13 14
M  V30 14 1 13 15
M  V30 15 2 15 16
M  V30 16 2 9 17
M  V30 17 1 17 18
M  V30 18 2 18 19
M  V30 19 1 2 20
M  V30 20 1 20 21
M  V30 21 1 21 22
M  V30 22 1 19 4
M  V30 23 1 22 20
M  V30 24 1 19 7
M  V30 25 1 16 10
M  V30 26 1 3 23
M  V30 27 1 6 24
M  V30 28 1 8 25
M  V30 29 1 11 26
M  V30 30 1 12 27
M  V30 31 1 14 28
M  V30 32 1 15 29
M  V30 33 1 16 30
M  V30 34 1 17 31
M  V30 35 1 18 32
M  V30 36 1 20 33
M  V30 37 1 21 34
M  V30 38 1 21 35
M  V30 39 1 22 36
M  V30 40 1 22 37
M  V30 END BOND
M  V30 END CTAB
M  END
>  <Dataset>  (443) 
ChEMBL_Kinases

>  <Ligand_Instance>  (443) 
nan

>  <PDB_ID>  (443) 
nan

>  <Standardized_SMILES>  (443) 
O=C(Nc1n[nH]c2cc(-c3ccc(O)cc3)ccc12)C1CC1

>  <Name>  (443) 
nan

>  <Pocket>  (443) 
nan

>  <ATP_Site>  (443) 
nan

>  <Peripheral>  (443) 
nan

>  <Num_H_Atoms_ProtBoundConf>  (443) 
nan

>  <Num_Resolved_Atoms>  (443) 
nan

>  <Num_Not_Resolved_Atoms>  (443) 
nan

$$$$
CHEMBL4754321
     RDKit          3D

  0  0  0  0  0  0  0  0  0  0999 V3000
M  V30 BEGIN CTAB
M  V30 COUNTS 61 66 0 0 0
M  V30 BEGIN ATOM
M  V30 1 C 5.058641 -4.827845 6.550496 0
M  V30 2 C 4.899718 -4.345713 5.102991 0
M  V30 3 C 5.940146 -3.301789 4.894645 0
M  V30 4 C 3.497475 -3.881333 4.871373 0
M  V30 5 C 3.289018 -3.401218 3.473038 0
M  V30 6 O 3.997602 -3.290783 2.426405 0
M  V30 7 N 1.933556 -2.969701 3.336070 0
M  V30 8 C 1.374413 -2.444611 2.122797 0
M  V30 9 C 0.784390 -3.333450 1.215503 0
M  V30 10 N 0.222446 -2.975528 0.040790 0
M  V30 11 C 0.225470 -1.665430 -0.291006 0
M  V30 12 C 0.795526 -0.723875 0.564224 0
M  V30 13 C 0.791586 0.697592 0.190981 0
M  V30 14 C 1.780439 1.611029 0.557993 0
M  V30 15 C 1.677086 2.926297 0.151869 0
M  V30 16 C 0.629063 3.396525 -0.612097 0
M  V30 17 N 0.342384 4.617076 -1.105981 0
M  V30 18 N -0.811148 4.504056 -1.782646 0
M  V30 19 C -1.252885 3.244272 -1.724438 0
M  V30 20 C -2.468080 2.708512 -2.329146 0
M  V30 21 N -2.935102 1.469712 -2.291022 0
M  V30 22 C -4.093614 1.330355 -2.964065 0
M  V30 23 C -4.904948 0.207512 -3.166938 0
M  V30 24 C -4.511617 -1.058166 -2.594613 0
M  V30 25 C -3.173685 -1.417146 -2.742795 0
M  V30 26 C -2.773452 -2.640049 -2.194910 0
M  V30 27 C -3.675246 -3.461650 -1.530427 0
M  V30 28 N -4.974746 -3.094899 -1.396135 0
M  V30 29 C -5.351329 -1.915117 -1.927129 0
M  V30 30 C -6.035982 0.431184 -3.917924 0
M  V30 31 N -6.337859 1.635020 -4.417835 0
M  V30 32 C -5.526587 2.699155 -4.199625 0
M  V30 33 C -4.366378 2.587635 -3.460061 0
M  V30 34 N -3.370484 3.399168 -3.062533 0
M  V30 35 C -0.357965 2.497061 -0.981694 0
M  V30 36 C -0.259816 1.163750 -0.574041 0
M  V30 37 C 1.362782 -1.119463 1.758700 0
M  V30 38 H 4.060615 -5.126813 6.944496 0
M  V30 39 H 5.729283 -5.691776 6.631212 0
M  V30 40 H 5.443933 -4.024287 7.203779 0
M  V30 41 H 5.110418 -5.199171 4.429296 0
M  V30 42 H 5.546083 -2.370790 5.403874 0
M  V30 43 H 6.096246 -2.988425 3.840447 0
M  V30 44 H 6.879065 -3.506333 5.449789 0
M  V30 45 H 3.286822 -3.070422 5.604944 0
M  V30 46 H 2.773120 -4.690307 5.095896 0
M  V30 47 H 1.121136 -2.939482 4.014730 0
M  V30 48 H 0.738724 -4.404979 1.403816 0
M  V30 49 H -0.207034 -1.293052 -1.219635 0
M  V30 50 H 2.596787 1.218565 1.159395 0
M  V30 51 H 2.473879 3.612682 0.461274 0
M  V30 52 H 0.877363 5.509434 -1.011528 0
M  V30 53 H -2.464324 -0.788597 -3.256114 0
M  V30 54 H -1.725198 -2.925459 -2.308774 0
M  V30 55 H -3.358098 -4.404422 -1.110133 0
M  V30 56 H -6.385171 -1.632624 -1.815631 0
M  V30 57 H -6.660236 -0.452513 -4.068936 0
M  V30 58 H -5.756712 3.696680 -4.601883 0
M  V30 59 H -3.335868 4.420024 -3.308357 0
M  V30 60 H -1.092879 0.555899 -0.925245 0
M  V30 61 H 1.803410 -0.422593 2.427903 0
M  V30 END ATOM
M  V30 BEGIN BOND
M  V30 1 1 1 2
M  V30 2 1 2 3
M  V30 3 1 2 4
M  V30 4 1 4 5
M  V30 5 2 5 6
M  V30 6 1 5 7
M  V30 7 1 7 8
M  V30 8 2 8 9
M  V30 9 1 9 10
M  V30 10 2 10 11
M  V30 11 1 11 12
M  V30 12 1 12 13
M  V30 13 2 13 14
M  V30 14 1 14 15
M  V30 15 2 15 16
M  V30 16 1 16 17
M  V30 17 1 17 18
M  V30 18 2 18 19
M  V30 19 1 19 20
M  V30 20 2 20 21
M  V30 21 1 21 22
M  V30 22 2 22 23
M  V30 23 1 23 24
M  V30 24 2 24 25
M  V30 25 1 25 26
M  V30 26 2 26 27
M  V30 27 1 27 28
M  V30 28 2 28 29
M  V30 29 1 23 30
M  V30 30 2 30 31
M  V30 31 1 31 32
M  V30 32 2 32 33
M  V30 33 1 33 34
M  V30 34 1 19 35
M  V30 35 2 35 36
M  V30 36 2 12 37
M  V30 37 1 37 8
M  V30 38 1 36 13
M  V30 39 1 35 16
M  V30 40 1 34 20
M  V30 41 1 33 22
M  V30 42 1 29 24
M  V30 43 1 1 38
M  V30 44 1 1 39
M  V30 45 1 1 40
M  V30 46 1 2 41
M  V30 47 1 3 42
M  V30 48 1 3 43
M  V30 49 1 3 44
M  V30 50 1 4 45
M  V30 51 1 4 46
M  V30 52 1 7 47
M  V30 53 1 9 48
M  V30 54 1 11 49
M  V30 55 1 14 50
M  V30 56 1 15 51
M  V30 57 1 17 52
M  V30 58 1 25 53
M  V30 59 1 26 54
M  V30 60 1 27 55
M  V30 61 1 29 56
M  V30 62 1 30 57
M  V30 63 1 32 58
M  V30 64 1 34 59
M  V30 65 1 36 60
M  V30 66 1 37 61
M  V30 END BOND
M  V30 END CTAB
M  END
>  <Dataset>  (444) 
ChEMBL_Kinases

>  <Ligand_Instance>  (444) 
nan

>  <PDB_ID>  (444) 
nan

>  <Standardized_SMILES>  (444) 
CC(C)CC(=O)Nc1cncc(-c2ccc3[nH]nc(-c4nc5c(-c6cccnc6)cncc5[nH]4)c3c2)c1

>  <Name>  (444) 
nan

>  <Pocket>  (444) 
nan

>  <ATP_Site>  (444) 
nan

>  <Peripheral>  (444) 
nan

>  <Num_H_Atoms_ProtBoundConf>  (444) 
nan

>  <Num_Resolved_Atoms>  (444) 
nan

>  <Num_Not_Resolved_Atoms>  (444) 
nan

$$$$
CHEMBL4754308
     RDKit          3D

  0  0  0  0  0  0  0  0  0  0999 V3000
M  V30 BEGIN CTAB
M  V30 COUNTS 58 63 0 0 0
M  V30 BEGIN ATOM
M  V30 1 C 5.776013 -1.346992 1.943391 0
M  V30 2 C 4.647952 -0.395618 1.575014 0
M  V30 3 C 3.960142 0.030192 2.855384 0
M  V30 4 N 5.223462 0.777824 0.956351 0
M  V30 5 C 4.460646 1.878076 0.464518 0
M  V30 6 C 5.041566 3.003510 -0.125951 0
M  V30 7 N 4.294438 4.024399 -0.582758 0
M  V30 8 C 2.956022 4.042685 -0.508936 0
M  V30 9 C 2.310190 2.963193 0.062880 0
M  V30 10 C 0.835223 2.922925 0.172171 0
M  V30 11 C 0.107819 4.086057 0.342963 0
M  V30 12 C -1.266862 4.022940 0.441538 0
M  V30 13 C -1.896879 2.798426 0.368197 0
M  V30 14 N -3.177624 2.394076 0.425464 0
M  V30 15 N -3.260974 1.090277 0.302441 0
M  V30 16 C -2.042367 0.521154 0.153315 0
M  V30 17 C -1.776626 -0.893593 -0.006863 0
M  V30 18 C -2.805862 -1.825793 -0.021120 0
M  V30 19 C -2.331926 -3.105203 -0.183403 0
M  V30 20 C -2.891591 -4.362828 -0.267094 0
M  V30 21 C -4.340512 -4.508159 -0.164568 0
M  V30 22 C -5.248030 -3.976774 0.729614 0
M  V30 23 C -6.581406 -4.290846 0.573454 0
M  V30 24 C -7.049419 -5.109787 -0.432714 0
M  V30 25 N -6.159866 -5.627129 -1.304183 0
M  V30 26 C -4.830033 -5.338867 -1.182058 0
M  V30 27 C -2.099348 -5.502555 -0.441941 0
M  V30 28 C -0.735288 -5.336073 -0.528941 0
M  V30 29 C -0.160615 -4.086142 -0.446997 0
M  V30 30 C -0.964885 -2.980821 -0.274837 0
M  V30 31 N -0.705785 -1.670242 -0.164840 0
M  V30 32 C -1.212283 1.614632 0.198651 0
M  V30 33 C 0.150646 1.730720 0.106235 0
M  V30 34 C 3.091049 1.917132 0.529989 0
M  V30 35 H 6.678081 -0.777187 2.256583 0
M  V30 36 H 6.071746 -2.002423 1.083634 0
M  V30 37 H 5.439018 -1.982376 2.787815 0
M  V30 38 H 3.920575 -0.907994 0.951641 0
M  V30 39 H 3.920678 1.147581 2.913924 0
M  V30 40 H 2.902410 -0.314456 2.858009 0
M  V30 41 H 4.488309 -0.375748 3.753995 0
M  V30 42 H 6.275984 0.871752 0.838684 0
M  V30 43 H 6.124367 3.026765 -0.204517 0
M  V30 44 H 2.336106 4.865458 -0.875867 0
M  V30 45 H 0.604845 5.064264 0.401886 0
M  V30 46 H -1.894216 4.912421 0.577642 0
M  V30 47 H -4.025819 2.990390 0.549099 0
M  V30 48 H -3.873973 -1.655912 0.074274 0
M  V30 49 H -4.776155 -3.366417 1.460785 0
M  V30 50 H -7.244530 -3.838964 1.312146 0
M  V30 51 H -8.129436 -5.313900 -0.491561 0
M  V30 52 H -4.245670 -5.836934 -1.967424 0
M  V30 53 H -2.507931 -6.488785 -0.510000 0
M  V30 54 H -0.111740 -6.216188 -0.664818 0
M  V30 55 H 0.911382 -3.957221 -0.515306 0
M  V30 56 H 0.264158 -1.318062 -0.203446 0
M  V30 57 H 0.766306 0.866768 -0.026418 0
M  V30 58 H 2.533127 1.108515 0.962137 0
M  V30 END ATOM
M  V30 BEGIN BOND
M  V30 1 1 1 2
M  V30 2 1 2 3
M  V30 3 1 2 4
M  V30 4 1 4 5
M  V30 5 2 5 6
M  V30 6 1 6 7
M  V30 7 2 7 8
M  V30 8 1 8 9
M  V30 9 1 9 10
M  V30 10 2 10 11
M  V30 11 1 11 12
M  V30 12 2 12 13
M  V30 13 1 13 14
M  V30 14 1 14 15
M  V30 15 2 15 16
M  V30 16 1 16 17
M  V30 17 2 17 18
M  V30 18 1 18 19
M  V30 19 2 19 20
M  V30 20 1 20 21
M  V30 21 2 21 22
M  V30 22 1 22 23
M  V30 23 2 23 24
M  V30 24 1 24 25
M  V30 25 2 25 26
M  V30 26 1 20 27
M  V30 27 2 27 28
M  V30 28 1 28 29
M  V30 29 2 29 30
M  V30 30 1 30 31
M  V30 31 1 16 32
M  V30 32 2 32 33
M  V30 33 2 9 34
M  V30 34 1 34 5
M  V30 35 1 33 10
M  V30 36 1 32 13
M  V30 37 1 31 17
M  V30 38 1 30 19
M  V30 39 1 26 21
M  V30 40 1 1 35
M  V30 41 1 1 36
M  V30 42 1 1 37
M  V30 43 1 2 38
M  V30 44 1 3 39
M  V30 45 1 3 40
M  V30 46 1 3 41
M  V30 47 1 4 42
M  V30 48 1 6 43
M  V30 49 1 8 44
M  V30 50 1 11 45
M  V30 51 1 12 46
M  V30 52 1 14 47
M  V30 53 1 18 48
M  V30 54 1 22 49
M  V30 55 1 23 50
M  V30 56 1 24 51
M  V30 57 1 26 52
M  V30 58 1 27 53
M  V30 59 1 28 54
M  V30 60 1 29 55
M  V30 61 1 31 56
M  V30 62 1 33 57
M  V30 63 1 34 58
M  V30 END BOND
M  V30 END CTAB
M  END
>  <Dataset>  (445) 
ChEMBL_Kinases

>  <Ligand_Instance>  (445) 
nan

>  <PDB_ID>  (445) 
nan

>  <Standardized_SMILES>  (445) 
CC(C)Nc1cncc(-c2ccc3[nH]nc(-c4cc5c(-c6cccnc6)cccc5[nH]4)c3c2)c1

>  <Name>  (445) 
nan

>  <Pocket>  (445) 
nan

>  <ATP_Site>  (445) 
nan

>  <Peripheral>  (445) 
nan

>  <Num_H_Atoms_ProtBoundConf>  (445) 
nan

>  <Num_Resolved_Atoms>  (445) 
nan

>  <Num_Not_Resolved_Atoms>  (445) 
nan

$$$$
CHEMBL4754274
     RDKit          3D

  0  0  0  0  0  0  0  0  0  0999 V3000
M  V30 BEGIN CTAB
M  V30 COUNTS 52 56 0 0 0
M  V30 BEGIN ATOM
M  V30 1 C 3.848860 1.611543 6.486371 0
M  V30 2 C 4.044471 1.678843 4.989643 0
M  V30 3 C 5.304005 0.928843 4.646054 0
M  V30 4 C 2.827974 1.074054 4.316335 0
M  V30 5 C 2.940498 1.101351 2.852402 0
M  V30 6 O 4.031785 1.649827 2.568646 0
M  V30 7 N 2.076112 0.641438 1.843949 0
M  V30 8 C 2.268222 0.710998 0.447516 0
M  V30 9 C 3.336699 1.263379 -0.211804 0
M  V30 10 N 3.481667 1.302375 -1.547613 0
M  V30 11 C 2.519003 0.764315 -2.353328 0
M  V30 12 C 1.413219 0.190400 -1.748988 0
M  V30 13 C 0.416063 -0.376029 -2.645594 0
M  V30 14 C -0.745488 -0.988123 -2.229911 0
M  V30 15 C -1.689288 -1.527236 -3.071639 0
M  V30 16 C -2.886256 -2.166694 -2.859461 0
M  V30 17 C -3.576841 -2.497744 -1.656522 0
M  V30 18 C -3.399750 -2.353736 -0.314274 0
M  V30 19 C -4.433289 -2.886545 0.430464 0
M  V30 20 C -4.650052 -2.955119 1.793796 0
M  V30 21 C -5.789322 -3.554764 2.287354 0
M  V30 22 C -6.638738 -4.049662 1.318074 0
M  V30 23 N -6.416343 -3.976786 -0.013036 0
M  V30 24 C -5.308386 -3.394060 -0.506316 0
M  V30 25 N -4.770461 -3.146206 -1.712133 0
M  V30 26 N -3.301741 -2.436010 -4.104674 0
M  V30 27 N -2.455487 -2.011195 -5.022532 0
M  V30 28 C -1.415964 -1.428107 -4.435801 0
M  V30 29 C -0.263028 -0.821208 -4.865649 0
M  V30 30 N 0.630375 -0.307488 -3.974246 0
M  V30 31 C 1.306892 0.173414 -0.375503 0
M  V30 32 H 2.809960 1.871050 6.698630 0
M  V30 33 H 4.000578 0.559882 6.862718 0
M  V30 34 H 4.583780 2.222966 7.037618 0
M  V30 35 H 4.158163 2.757678 4.746186 0
M  V30 36 H 6.064191 1.542143 4.121699 0
M  V30 37 H 5.795070 0.601106 5.580883 0
M  V30 38 H 5.038313 0.014638 4.075610 0
M  V30 39 H 2.641041 0.084998 4.760148 0
M  V30 40 H 1.963700 1.712268 4.599596 0
M  V30 41 H 1.226171 0.217699 2.238556 0
M  V30 42 H 4.137372 1.707473 0.323915 0
M  V30 43 H 2.696651 0.827904 -3.434371 0
M  V30 44 H -0.915188 -1.042870 -1.192924 0
M  V30 45 H -2.561846 -1.883647 0.129684 0
M  V30 46 H -3.906884 -2.527867 2.481213 0
M  V30 47 H -5.958029 -3.608577 3.335628 0
M  V30 48 H -7.552452 -4.531376 1.701515 0
M  V30 49 H -5.341072 -3.484584 -2.529423 0
M  V30 50 H -2.602603 -2.127219 -6.047583 0
M  V30 51 H -0.056958 -0.747690 -5.922277 0
M  V30 52 H 0.438972 -0.276588 0.085086 0
M  V30 END ATOM
M  V30 BEGIN BOND
M  V30 1 1 1 2
M  V30 2 1 2 3
M  V30 3 1 2 4
M  V30 4 1 4 5
M  V30 5 2 5 6
M  V30 6 1 5 7
M  V30 7 1 7 8
M  V30 8 2 8 9
M  V30 9 1 9 10
M  V30 10 2 10 11
M  V30 11 1 11 12
M  V30 12 1 12 13
M  V30 13 2 13 14
M  V30 14 1 14 15
M  V30 15 1 15 16
M  V30 16 1 16 17
M  V30 17 2 17 18
M  V30 18 1 18 19
M  V30 19 2 19 20
M  V30 20 1 20 21
M  V30 21 2 21 22
M  V30 22 1 22 23
M  V30 23 2 23 24
M  V30 24 1 24 25
M  V30 25 2 16 26
M  V30 26 1 26 27
M  V30 27 1 27 28
M  V30 28 1 28 29
M  V30 29 2 29 30
M  V30 30 2 12 31
M  V30 31 1 31 8
M  V30 32 1 30 13
M  V30 33 2 28 15
M  V30 34 1 25 17
M  V30 35 1 24 19
M  V30 36 1 1 32
M  V30 37 1 1 33
M  V30 38 1 1 34
M  V30 39 1 2 35
M  V30 40 1 3 36
M  V30 41 1 3 37
M  V30 42 1 3 38
M  V30 43 1 4 39
M  V30 44 1 4 40
M  V30 45 1 7 41
M  V30 46 1 9 42
M  V30 47 1 11 43
M  V30 48 1 14 44
M  V30 49 1 18 45
M  V30 50 1 20 46
M  V30 51 1 21 47
M  V30 52 1 22 48
M  V30 53 1 25 49
M  V30 54 1 27 50
M  V30 55 1 29 51
M  V30 56 1 31 52
M  V30 END BOND
M  V30 END CTAB
M  END
>  <Dataset>  (446) 
ChEMBL_Kinases

>  <Ligand_Instance>  (446) 
nan

>  <PDB_ID>  (446) 
nan

>  <Standardized_SMILES>  (446) 
CC(C)CC(=O)Nc1cncc(-c2cc3c(-c4cc5cccnc5[nH]4)n[nH]c3cn2)c1

>  <Name>  (446) 
nan

>  <Pocket>  (446) 
nan

>  <ATP_Site>  (446) 
nan

>  <Peripheral>  (446) 
nan

>  <Num_H_Atoms_ProtBoundConf>  (446) 
nan

>  <Num_Resolved_Atoms>  (446) 
nan

>  <Num_Not_Resolved_Atoms>  (446) 
nan

$$$$
CHEMBL4754230
     RDKit          3D

  0  0  0  0  0  0  0  0  0  0999 V3000
M  V30 BEGIN CTAB
M  V30 COUNTS 71 77 0 0 0
M  V30 BEGIN ATOM
M  V30 1 C 1.392358 -0.095568 0.719077 0
M  V30 2 N 1.416435 0.032168 -0.691252 0
M  V30 3 C 1.122362 -1.166759 -1.440867 0
M  V30 4 C 0.631743 -0.745642 -2.808212 0
M  V30 5 N 1.046461 0.600759 -3.044601 0
M  V30 6 C 0.411784 1.803165 -3.479771 0
M  V30 7 N 0.873267 2.491787 -4.516532 0
M  V30 8 C 0.306184 3.640856 -4.930132 0
M  V30 9 C -0.805820 4.092824 -4.218873 0
M  V30 10 C -1.286590 3.373201 -3.137530 0
M  V30 11 N -2.330000 3.588751 -2.301966 0
M  V30 12 C -2.453460 2.627869 -1.374276 0
M  V30 13 C -3.474222 2.594825 -0.335944 0
M  V30 14 N -4.401053 3.594894 -0.250148 0
M  V30 15 N -5.221657 3.330568 0.763322 0
M  V30 16 C -4.798182 2.173022 1.294305 0
M  V30 17 C -5.267038 1.402892 2.367519 0
M  V30 18 C -4.598250 0.235258 2.658616 0
M  V30 19 C -3.510387 -0.255402 2.000637 0
M  V30 20 C -2.927330 -1.520040 2.419155 0
M  V30 21 C -3.466838 -2.186252 3.478283 0
M  V30 22 N -2.943333 -3.387139 3.864490 0
M  V30 23 C -1.901098 -3.947747 3.233956 0
M  V30 24 C -1.286744 -3.339441 2.142640 0
M  V30 25 C -0.172606 -3.981538 1.458868 0
M  V30 26 N 1.131590 -3.766165 1.954835 0
M  V30 27 C 1.436970 -4.272717 3.250154 0
M  V30 28 C 2.818451 -4.905573 3.285384 0
M  V30 29 C 3.852468 -3.934995 2.815101 0
M  V30 30 C 3.495098 -3.314795 1.480097 0
M  V30 31 C 2.193359 -3.886830 1.004902 0
M  V30 32 C -1.860638 -2.109014 1.784277 0
M  V30 33 N -3.089245 0.509733 0.980040 0
M  V30 34 C -3.682276 1.648782 0.637173 0
M  V30 35 C -1.424556 1.752889 -1.640772 0
M  V30 36 C -0.689563 2.183687 -2.718869 0
M  V30 37 C 2.486874 0.737796 -2.753293 0
M  V30 38 C 2.607697 0.677944 -1.217531 0
M  V30 39 H 0.409674 0.338089 1.066092 0
M  V30 40 H 2.145290 0.560267 1.241399 0
M  V30 41 H 1.405026 -1.117615 1.120617 0
M  V30 42 H 2.053891 -1.780397 -1.598994 0
M  V30 43 H 0.352883 -1.744242 -0.928086 0
M  V30 44 H -0.499302 -0.770093 -2.751312 0
M  V30 45 H 0.927991 -1.462794 -3.597526 0
M  V30 46 H 0.747735 4.134484 -5.781764 0
M  V30 47 H -1.257183 5.000087 -4.546538 0
M  V30 48 H -2.930622 4.456443 -2.446447 0
M  V30 49 H -6.031891 3.897997 1.088551 0
M  V30 50 H -6.138208 1.798469 2.890889 0
M  V30 51 H -5.103831 -0.227335 3.517769 0
M  V30 52 H -4.295578 -1.881413 4.089378 0
M  V30 53 H -1.587836 -4.898377 3.639334 0
M  V30 54 H -0.342146 -5.096998 1.401542 0
M  V30 55 H -0.221089 -3.658796 0.379312 0
M  V30 56 H 1.350302 -3.575009 4.078849 0
M  V30 57 H 0.742704 -5.140381 3.452637 0
M  V30 58 H 3.054611 -5.238067 4.296195 0
M  V30 59 H 2.857197 -5.822222 2.626273 0
M  V30 60 H 4.004084 -3.149292 3.607137 0
M  V30 61 H 4.838564 -4.444969 2.745523 0
M  V30 62 H 4.270597 -3.625341 0.722887 0
M  V30 63 H 3.547098 -2.233548 1.558436 0
M  V30 64 H 2.376010 -4.991073 0.833524 0
M  V30 65 H 1.855019 -3.512153 0.043404 0
M  V30 66 H -1.416483 -1.585441 0.933061 0
M  V30 67 H -1.205492 0.855160 -1.101967 0
M  V30 68 H 2.899256 1.680440 -3.100961 0
M  V30 69 H 3.070656 -0.121875 -3.145633 0
M  V30 70 H 3.548825 0.220204 -0.932982 0
M  V30 71 H 2.577313 1.728304 -0.863270 0
M  V30 END ATOM
M  V30 BEGIN BOND
M  V30 1 1 1 2
M  V30 2 1 2 3
M  V30 3 1 3 4
M  V30 4 1 4 5
M  V30 5 1 5 6
M  V30 6 2 6 7
M  V30 7 1 7 8
M  V30 8 2 8 9
M  V30 9 1 9 10
M  V30 10 1 10 11
M  V30 11 1 11 12
M  V30 12 1 12 13
M  V30 13 2 13 14
M  V30 14 1 14 15
M  V30 15 1 15 16
M  V30 16 2 16 17
M  V30 17 1 17 18
M  V30 18 2 18 19
M  V30 19 1 19 20
M  V30 20 2 20 21
M  V30 21 1 21 22
M  V30 22 2 22 23
M  V30 23 1 23 24
M  V30 24 1 24 25
M  V30 25 1 25 26
M  V30 26 1 26 27
M  V30 27 1 27 28
M  V30 28 1 28 29
M  V30 29 1 29 30
M  V30 30 1 30 31
M  V30 31 2 24 32
M  V30 32 1 19 33
M  V30 33 2 33 34
M  V30 34 2 12 35
M  V30 35 1 35 36
M  V30 36 1 5 37
M  V30 37 1 37 38
M  V30 38 1 38 2
M  V30 39 1 36 6
M  V30 40 2 36 10
M  V30 41 1 34 13
M  V30 42 1 34 16
M  V30 43 1 32 20
M  V30 44 1 31 26
M  V30 45 1 1 39
M  V30 46 1 1 40
M  V30 47 1 1 41
M  V30 48 1 3 42
M  V30 49 1 3 43
M  V30 50 1 4 44
M  V30 51 1 4 45
M  V30 52 1 8 46
M  V30 53 1 9 47
M  V30 54 1 11 48
M  V30 55 1 15 49
M  V30 56 1 17 50
M  V30 57 1 18 51
M  V30 58 1 21 52
M  V30 59 1 23 53
M  V30 60 1 25 54
M  V30 61 1 25 55
M  V30 62 1 27 56
M  V30 63 1 27 57
M  V30 64 1 28 58
M  V30 65 1 28 59
M  V30 66 1 29 60
M  V30 67 1 29 61
M  V30 68 1 30 62
M  V30 69 1 30 63
M  V30 70 1 31 64
M  V30 71 1 31 65
M  V30 72 1 32 66
M  V30 73 1 35 67
M  V30 74 1 37 68
M  V30 75 1 37 69
M  V30 76 1 38 70
M  V30 77 1 38 71
M  V30 END BOND
M  V30 END CTAB
M  END
>  <Dataset>  (447) 
ChEMBL_Kinases

>  <Ligand_Instance>  (447) 
nan

>  <PDB_ID>  (447) 
nan

>  <Standardized_SMILES>  (447) 
CN1CCN(c2nccc3[nH]c(-c4n[nH]c5ccc(-c6cncc(CN7CCCCC7)c6)nc45)cc23)CC1

>  <Name>  (447) 
nan

>  <Pocket>  (447) 
nan

>  <ATP_Site>  (447) 
nan

>  <Peripheral>  (447) 
nan

>  <Num_H_Atoms_ProtBoundConf>  (447) 
nan

>  <Num_Resolved_Atoms>  (447) 
nan

>  <Num_Not_Resolved_Atoms>  (447) 
nan

$$$$
CHEMBL4754156
     RDKit          3D

  0  0  0  0  0  0  0  0  0  0999 V3000
M  V30 BEGIN CTAB
M  V30 COUNTS 59 65 0 0 0
M  V30 BEGIN ATOM
M  V30 1 C 1.936510 -3.655093 1.936525 0
M  V30 2 C 2.607620 -2.742615 0.972322 0
M  V30 3 C 3.035545 -1.449397 1.180405 0
M  V30 4 N 3.590337 -1.023154 0.008090 0
M  V30 5 C 4.104722 0.299277 0.029128 0
M  V30 6 C 5.444486 0.404959 -0.195744 0
M  V30 7 N 5.961331 1.663335 -0.162083 0
M  V30 8 C 5.172366 2.730934 0.082151 0
M  V30 9 C 3.821519 2.582913 0.304600 0
M  V30 10 N 2.800212 3.436242 0.571863 0
M  V30 11 C 1.621356 2.774892 0.714667 0
M  V30 12 C 0.398530 3.491140 1.028823 0
M  V30 13 N 0.337186 4.821982 1.206328 0
M  V30 14 N -0.885006 5.216792 1.491171 0
M  V30 15 C -1.610794 4.103440 1.491970 0
M  V30 16 C -2.971413 3.872084 1.725437 0
M  V30 17 C -3.454251 2.584691 1.655888 0
M  V30 18 C -2.691932 1.480843 1.368642 0
M  V30 19 C -3.336935 0.182559 1.295289 0
M  V30 20 C -4.673667 0.058737 1.562679 0
M  V30 21 N -5.314927 -1.118220 1.488007 0
M  V30 22 C -4.676094 -2.246426 1.144158 0
M  V30 23 C -3.325529 -2.215776 0.856041 0
M  V30 24 N -2.730759 -3.432363 0.500024 0
M  V30 25 C -1.422662 -3.777685 0.066240 0
M  V30 26 O -0.607656 -2.827708 -0.032506 0
M  V30 27 C -1.017153 -5.186248 -0.261441 0
M  V30 28 C -1.946987 -5.768792 -1.334461 0
M  V30 29 C -1.146367 -4.985790 -2.350194 0
M  V30 30 C 0.033908 -5.134859 -1.378760 0
M  V30 31 C -2.715260 -0.994742 0.946182 0
M  V30 32 N -1.393547 1.735752 1.151193 0
M  V30 33 C -0.864648 2.969774 1.206010 0
M  V30 34 N 1.902992 1.475760 0.533623 0
M  V30 35 C 3.226531 1.328307 0.284555 0
M  V30 36 C 3.520081 -2.000952 -0.910331 0
M  V30 37 N 2.923529 -3.025490 -0.302098 0
M  V30 38 H 1.865584 -4.665450 1.485422 0
M  V30 39 H 2.520848 -3.723076 2.878992 0
M  V30 40 H 0.910702 -3.336770 2.199670 0
M  V30 41 H 2.889314 -0.986689 2.152756 0
M  V30 42 H 6.079159 -0.439075 -0.390688 0
M  V30 43 H 5.608083 3.718419 0.103456 0
M  V30 44 H 3.035752 4.475125 0.634454 0
M  V30 45 H -1.201439 6.193939 1.674229 0
M  V30 46 H -3.566512 4.760656 1.952580 0
M  V30 47 H -4.518984 2.603469 1.863561 0
M  V30 48 H -5.338277 0.850837 1.851958 0
M  V30 49 H -5.265172 -3.174484 1.103653 0
M  V30 50 H -3.315223 -4.318837 0.539805 0
M  V30 51 H -0.791474 -5.833367 0.581114 0
M  V30 52 H -1.812779 -6.843914 -1.487649 0
M  V30 53 H -2.995059 -5.419370 -1.193584 0
M  V30 54 H -1.525268 -3.942014 -2.404246 0
M  V30 55 H -0.996249 -5.466024 -3.325999 0
M  V30 56 H 0.503125 -6.099812 -1.564063 0
M  V30 57 H 0.671843 -4.236236 -1.352907 0
M  V30 58 H -1.657747 -0.934975 0.728761 0
M  V30 59 H 3.915469 -1.826394 -1.896121 0
M  V30 END ATOM
M  V30 BEGIN BOND
M  V30 1 1 1 2
M  V30 2 2 2 3
M  V30 3 1 3 4
M  V30 4 1 4 5
M  V30 5 2 5 6
M  V30 6 1 6 7
M  V30 7 2 7 8
M  V30 8 1 8 9
M  V30 9 1 9 10
M  V30 10 1 10 11
M  V30 11 1 11 12
M  V30 12 2 12 13
M  V30 13 1 13 14
M  V30 14 1 14 15
M  V30 15 2 15 16
M  V30 16 1 16 17
M  V30 17 2 17 18
M  V30 18 1 18 19
M  V30 19 2 19 20
M  V30 20 1 20 21
M  V30 21 2 21 22
M  V30 22 1 22 23
M  V30 23 1 23 24
M  V30 24 1 24 25
M  V30 25 2 25 26
M  V30 26 1 25 27
M  V30 27 1 27 28
M  V30 28 1 28 29
M  V30 29 1 29 30
M  V30 30 2 23 31
M  V30 31 1 18 32
M  V30 32 2 32 33
M  V30 33 2 11 34
M  V30 34 1 34 35
M  V30 35 1 4 36
M  V30 36 2 36 37
M  V30 37 1 37 2
M  V30 38 1 35 5
M  V30 39 2 35 9
M  V30 40 1 33 12
M  V30 41 1 33 15
M  V30 42 1 31 19
M  V30 43 1 30 27
M  V30 44 1 1 38
M  V30 45 1 1 39
M  V30 46 1 1 40
M  V30 47 1 3 41
M  V30 48 1 6 42
M  V30 49 1 8 43
M  V30 50 1 10 44
M  V30 51 1 14 45
M  V30 52 1 16 46
M  V30 53 1 17 47
M  V30 54 1 20 48
M  V30 55 1 22 49
M  V30 56 1 24 50
M  V30 57 1 27 51
M  V30 58 1 28 52
M  V30 59 1 28 53
M  V30 60 1 29 54
M  V30 61 1 29 55
M  V30 62 1 30 56
M  V30 63 1 30 57
M  V30 64 1 31 58
M  V30 65 1 36 59
M  V30 END BOND
M  V30 END CTAB
M  END
>  <Dataset>  (448) 
ChEMBL_Kinases

>  <Ligand_Instance>  (448) 
nan

>  <PDB_ID>  (448) 
nan

>  <Standardized_SMILES>  (448) 
Cc1cn(-c2cncc3[nH]c(-c4n[nH]c5ccc(-c6cncc(NC(=O)C7CCC7)c6)nc45)nc23)cn1

>  <Name>  (448) 
nan

>  <Pocket>  (448) 
nan

>  <ATP_Site>  (448) 
nan

>  <Peripheral>  (448) 
nan

>  <Num_H_Atoms_ProtBoundConf>  (448) 
nan

>  <Num_Resolved_Atoms>  (448) 
nan

>  <Num_Not_Resolved_Atoms>  (448) 
nan

$$$$
CHEMBL4754110
     RDKit          3D

  0  0  0  0  0  0  0  0  0  0999 V3000
M  V30 BEGIN CTAB
M  V30 COUNTS 47 52 0 0 0
M  V30 BEGIN ATOM
M  V30 1 C 0.428223 -5.087113 0.839733 0
M  V30 2 C 1.637618 -4.399221 0.669755 0
M  V30 3 C 3.002407 -4.590230 0.496428 0
M  V30 4 C 3.899738 -3.574000 0.361325 0
M  V30 5 C 3.437290 -2.257450 0.396931 0
M  V30 6 C 4.175924 -1.003495 0.279034 0
M  V30 7 C 5.533131 -1.065363 0.100587 0
M  V30 8 N 6.125935 0.127353 0.003909 0
M  V30 9 C 5.487606 1.307591 0.070078 0
M  V30 10 C 4.120933 1.334839 0.250327 0
M  V30 11 N 3.241637 2.362631 0.351048 0
M  V30 12 C 2.010933 1.846530 0.521894 0
M  V30 13 C 0.824626 2.686722 0.666796 0
M  V30 14 N 0.856720 4.031391 0.642673 0
M  V30 15 N -0.375740 4.511836 0.799257 0
M  V30 16 C -1.259377 3.506535 0.931396 0
M  V30 17 C -2.627157 3.487696 1.113458 0
M  V30 18 C -3.190710 2.219275 1.207381 0
M  V30 19 C -2.429119 1.071945 1.123300 0
M  V30 20 C -3.016797 -0.258089 1.221540 0
M  V30 21 C -2.186294 -1.355028 1.127680 0
M  V30 22 N -2.636316 -2.638654 1.207871 0
M  V30 23 C -3.942177 -2.911249 1.386538 0
M  V30 24 C -4.831099 -1.834977 1.488606 0
M  V30 25 N -6.246088 -2.001995 1.679913 0
M  V30 26 C -4.357441 -0.521198 1.404742 0
M  V30 27 N -1.093911 1.137097 0.944805 0
M  V30 28 C -0.501816 2.356858 0.847769 0
M  V30 29 N 2.135789 0.508156 0.525853 0
M  V30 30 C 3.421297 0.148276 0.361134 0
M  V30 31 S 1.582059 -2.498303 0.641716 0
M  V30 32 H -0.421109 -4.529983 0.343722 0
M  V30 33 H 0.430954 -6.073979 0.366684 0
M  V30 34 H 0.083679 -5.219817 1.908169 0
M  V30 35 H 3.213534 -5.645397 0.488670 0
M  V30 36 H 4.949285 -3.776890 0.229174 0
M  V30 37 H 5.994179 -2.036072 0.054716 0
M  V30 38 H 6.044565 2.244496 -0.017911 0
M  V30 39 H 3.566177 3.367022 0.292698 0
M  V30 40 H -0.678382 5.531153 0.824690 0
M  V30 41 H -3.228100 4.381473 1.179731 0
M  V30 42 H -4.258741 2.176870 1.349920 0
M  V30 43 H -1.119359 -1.254864 0.983384 0
M  V30 44 H -4.349092 -3.914246 1.456440 0
M  V30 45 H -7.036798 -1.613266 1.121813 0
M  V30 46 H -6.798404 -2.530277 2.394562 0
M  V30 47 H -5.030125 0.301143 1.481660 0
M  V30 END ATOM
M  V30 BEGIN BOND
M  V30 1 1 1 2
M  V30 2 2 2 3
M  V30 3 1 3 4
M  V30 4 2 4 5
M  V30 5 1 5 6
M  V30 6 2 6 7
M  V30 7 1 7 8
M  V30 8 2 8 9
M  V30 9 1 9 10
M  V30 10 1 10 11
M  V30 11 1 11 12
M  V30 12 1 12 13
M  V30 13 2 13 14
M  V30 14 1 14 15
M  V30 15 1 15 16
M  V30 16 2 16 17
M  V30 17 1 17 18
M  V30 18 2 18 19
M  V30 19 1 19 20
M  V30 20 2 20 21
M  V30 21 1 21 22
M  V30 22 2 22 23
M  V30 23 1 23 24
M  V30 24 1 24 25
M  V30 25 2 24 26
M  V30 26 1 19 27
M  V30 27 2 27 28
M  V30 28 2 12 29
M  V30 29 1 29 30
M  V30 30 1 5 31
M  V30 31 1 31 2
M  V30 32 1 30 6
M  V30 33 2 30 10
M  V30 34 1 28 13
M  V30 35 1 28 16
M  V30 36 1 26 20
M  V30 37 1 1 32
M  V30 38 1 1 33
M  V30 39 1 1 34
M  V30 40 1 3 35
M  V30 41 1 4 36
M  V30 42 1 7 37
M  V30 43 1 9 38
M  V30 44 1 11 39
M  V30 45 1 15 40
M  V30 46 1 17 41
M  V30 47 1 18 42
M  V30 48 1 21 43
M  V30 49 1 23 44
M  V30 50 1 25 45
M  V30 51 1 25 46
M  V30 52 1 26 47
M  V30 END BOND
M  V30 END CTAB
M  END
>  <Dataset>  (449) 
ChEMBL_Kinases

>  <Ligand_Instance>  (449) 
nan

>  <PDB_ID>  (449) 
nan

>  <Standardized_SMILES>  (449) 
Cc1ccc(-c2cncc3[nH]c(-c4n[nH]c5ccc(-c6cncc(N)c6)nc45)nc23)s1

>  <Name>  (449) 
nan

>  <Pocket>  (449) 
nan

>  <ATP_Site>  (449) 
nan

>  <Peripheral>  (449) 
nan

>  <Num_H_Atoms_ProtBoundConf>  (449) 
nan

>  <Num_Resolved_Atoms>  (449) 
nan

>  <Num_Not_Resolved_Atoms>  (449) 
nan

$$$$
CHEMBL4754087
     RDKit          3D

  0  0  0  0  0  0  0  0  0  0999 V3000
M  V30 BEGIN CTAB
M  V30 COUNTS 53 56 0 0 0
M  V30 BEGIN ATOM
M  V30 1 C 3.478684 -3.516332 6.637052 0
M  V30 2 C 4.360015 -2.328097 6.315193 0
M  V30 3 C 5.551881 -2.822122 5.556618 0
M  V30 4 N 3.630617 -1.353827 5.505747 0
M  V30 5 C 3.384626 -1.522591 4.173590 0
M  V30 6 C 2.680768 -0.400445 3.780009 0
M  V30 7 C 2.227197 -0.199731 2.413803 0
M  V30 8 O 2.486465 -1.080911 1.562125 0
M  V30 9 N 1.502103 0.952856 2.001399 0
M  V30 10 C 1.179862 0.889506 0.592013 0
M  V30 11 C -0.003396 0.308541 0.127614 0
M  V30 12 C -0.200066 0.306805 -1.231804 0
M  V30 13 C -1.388464 -0.282131 -1.624705 0
M  V30 14 C -1.705537 -0.347828 -2.966051 0
M  V30 15 C -2.906306 -0.928575 -3.556588 0
M  V30 16 C -2.866190 -1.759207 -4.666796 0
M  V30 17 N -4.155315 -2.080946 -4.899700 0
M  V30 18 C -4.923485 -1.488223 -3.995739 0
M  V30 19 N -4.174701 -0.760298 -3.141256 0
M  V30 20 C -4.652706 0.019570 -2.032421 0
M  V30 21 C -5.016311 -0.800115 -0.830458 0
M  V30 22 C -5.840249 0.877400 -2.421331 0
M  V30 23 C -0.788830 0.194538 -3.853986 0
M  V30 24 C 0.398731 0.783199 -3.463250 0
M  V30 25 C 0.701027 0.841697 -2.128489 0
M  V30 26 C 1.856447 1.404132 -1.609246 0
M  V30 27 N 2.079919 1.421093 -0.267259 0
M  V30 28 C 2.521492 0.413098 4.882707 0
M  V30 29 N 3.112645 -0.192085 5.931554 0
M  V30 30 H 2.761705 -3.204083 7.434504 0
M  V30 31 H 2.909158 -3.846971 5.757753 0
M  V30 32 H 4.119239 -4.351717 6.986300 0
M  V30 33 H 4.668902 -1.807916 7.242337 0
M  V30 34 H 5.181317 -3.363729 4.640029 0
M  V30 35 H 6.156322 -1.961355 5.225393 0
M  V30 36 H 6.121394 -3.552109 6.132895 0
M  V30 37 H 3.704117 -2.383710 3.603119 0
M  V30 38 H 1.304137 1.669663 2.745438 0
M  V30 39 H -0.686567 -0.099135 0.836474 0
M  V30 40 H -2.119943 -0.712234 -0.952337 0
M  V30 41 H -2.009865 -2.090549 -5.236616 0
M  V30 42 H -6.008960 -1.548639 -3.912039 0
M  V30 43 H -3.863555 0.751343 -1.712298 0
M  V30 44 H -6.120384 -0.779567 -0.671531 0
M  V30 45 H -4.750161 -1.878882 -0.916375 0
M  V30 46 H -4.600567 -0.353592 0.117080 0
M  V30 47 H -5.553086 1.925924 -2.645162 0
M  V30 48 H -6.555306 0.928419 -1.578008 0
M  V30 49 H -6.361971 0.491192 -3.318191 0
M  V30 50 H -0.931440 0.200401 -4.936221 0
M  V30 51 H 1.111528 1.204789 -4.151938 0
M  V30 52 H 2.570310 1.827274 -2.311329 0
M  V30 53 H 2.008819 1.372230 4.897979 0
M  V30 END ATOM
M  V30 BEGIN BOND
M  V30 1 1 1 2
M  V30 2 1 2 3
M  V30 3 1 2 4
M  V30 4 1 4 5
M  V30 5 2 5 6
M  V30 6 1 6 7
M  V30 7 2 7 8
M  V30 8 1 7 9
M  V30 9 1 9 10
M  V30 10 2 10 11
M  V30 11 1 11 12
M  V30 12 2 12 13
M  V30 13 1 13 14
M  V30 14 1 14 15
M  V30 15 2 15 16
M  V30 16 1 16 17
M  V30 17 2 17 18
M  V30 18 1 18 19
M  V30 19 1 19 20
M  V30 20 1 20 21
M  V30 21 1 20 22
M  V30 22 2 14 23
M  V30 23 1 23 24
M  V30 24 2 24 25
M  V30 25 1 25 26
M  V30 26 2 26 27
M  V30 27 1 6 28
M  V30 28 2 28 29
M  V30 29 1 29 4
M  V30 30 1 27 10
M  V30 31 1 25 12
M  V30 32 1 19 15
M  V30 33 1 1 30
M  V30 34 1 1 31
M  V30 35 1 1 32
M  V30 36 1 2 33
M  V30 37 1 3 34
M  V30 38 1 3 35
M  V30 39 1 3 36
M  V30 40 1 5 37
M  V30 41 1 9 38
M  V30 42 1 11 39
M  V30 43 1 13 40
M  V30 44 1 16 41
M  V30 45 1 18 42
M  V30 46 1 20 43
M  V30 47 1 21 44
M  V30 48 1 21 45
M  V30 49 1 21 46
M  V30 50 1 22 47
M  V30 51 1 22 48
M  V30 52 1 22 49
M  V30 53 1 23 50
M  V30 54 1 24 51
M  V30 55 1 26 52
M  V30 56 1 28 53
M  V30 END BOND
M  V30 END CTAB
M  END
>  <Dataset>  (450) 
ChEMBL_Kinases

>  <Ligand_Instance>  (450) 
nan

>  <PDB_ID>  (450) 
nan

>  <Standardized_SMILES>  (450) 
CC(C)n1cc(C(=O)Nc2cc3cc(-c4cncn4C(C)C)ccc3cn2)cn1

>  <Name>  (450) 
nan

>  <Pocket>  (450) 
nan

>  <ATP_Site>  (450) 
nan

>  <Peripheral>  (450) 
nan

>  <Num_H_Atoms_ProtBoundConf>  (450) 
nan

>  <Num_Resolved_Atoms>  (450) 
nan

>  <Num_Not_Resolved_Atoms>  (450) 
nan

$$$$
CHEMBL440566
     RDKit          3D

  0  0  0  0  0  0  0  0  0  0999 V3000
M  V30 BEGIN CTAB
M  V30 COUNTS 37 40 0 0 0
M  V30 BEGIN ATOM
M  V30 1 Cl -0.114731 -4.285273 1.984078 0
M  V30 2 C 1.349192 -4.792386 1.151412 0
M  V30 3 C 1.300382 -6.093827 0.705571 0
M  V30 4 C 2.333650 -6.685066 0.038883 0
M  V30 5 C 3.477100 -5.914426 -0.187249 0
M  V30 6 C 3.545273 -4.608754 0.251506 0
M  V30 7 C 2.492680 -4.024005 0.924259 0
M  V30 8 N 2.428180 -2.699415 1.433448 0
M  V30 9 C 1.538434 -1.646943 1.119359 0
M  V30 10 C 1.590412 -0.446226 1.796589 0
M  V30 11 C 0.720274 0.566968 1.475180 0
M  V30 12 C -0.210090 0.450918 0.505760 0
M  V30 13 C -1.131470 1.368047 0.084264 0
M  V30 14 C -1.504397 2.713072 0.421827 0
M  V30 15 C -2.535874 3.287331 -0.285681 0
M  V30 16 C -3.019646 4.562619 -0.092798 0
M  V30 17 C -2.456450 5.359809 0.872881 0
M  V30 18 C -1.427090 4.853089 1.613555 0
M  V30 19 C -1.011359 3.573938 1.352222 0
M  V30 20 N -1.771520 0.689676 -0.894940 0
M  V30 21 N -1.277112 -0.520058 -1.043220 0
M  V30 22 C -0.276236 -0.737828 -0.179150 0
M  V30 23 C 0.588297 -1.767775 0.127968 0
M  V30 24 H 0.445541 -6.771750 0.838079 0
M  V30 25 H 2.394861 -7.692383 -0.349736 0
M  V30 26 H 4.342744 -6.330270 -0.717158 0
M  V30 27 H 4.414532 -3.966922 0.099702 0
M  V30 28 H 3.176272 -2.539155 2.142887 0
M  V30 29 H 2.346986 -0.371346 2.574730 0
M  V30 30 H 0.855465 1.441512 2.063569 0
M  V30 31 H -3.093911 2.784552 -1.092748 0
M  V30 32 H -3.828982 4.993630 -0.658153 0
M  V30 33 H -2.823423 6.361269 1.036964 0
M  V30 34 H -0.979913 5.460934 2.367183 0
M  V30 35 H -0.204044 3.259120 1.976165 0
M  V30 36 H -2.552563 0.876639 -1.560359 0
M  V30 37 H 0.476186 -2.665738 -0.453879 0
M  V30 END ATOM
M  V30 BEGIN BOND
M  V30 1 1 1 2
M  V30 2 2 2 3
M  V30 3 1 3 4
M  V30 4 2 4 5
M  V30 5 1 5 6
M  V30 6 2 6 7
M  V30 7 1 7 8
M  V30 8 1 8 9
M  V30 9 1 9 10
M  V30 10 2 10 11
M  V30 11 1 11 12
M  V30 12 2 12 13
M  V30 13 1 13 14
M  V30 14 2 14 15
M  V30 15 1 15 16
M  V30 16 2 16 17
M  V30 17 1 17 18
M  V30 18 2 18 19
M  V30 19 1 13 20
M  V30 20 1 20 21
M  V30 21 2 21 22
M  V30 22 1 22 23
M  V30 23 1 7 2
M  V30 24 2 23 9
M  V30 25 1 22 12
M  V30 26 1 19 14
M  V30 27 1 3 24
M  V30 28 1 4 25
M  V30 29 1 5 26
M  V30 30 1 6 27
M  V30 31 1 8 28
M  V30 32 1 10 29
M  V30 33 1 11 30
M  V30 34 1 15 31
M  V30 35 1 16 32
M  V30 36 1 17 33
M  V30 37 1 18 34
M  V30 38 1 19 35
M  V30 39 1 20 36
M  V30 40 1 23 37
M  V30 END BOND
M  V30 END CTAB
M  END
>  <Dataset>  (451) 
ChEMBL_Kinases

>  <Ligand_Instance>  (451) 
nan

>  <PDB_ID>  (451) 
nan

>  <Standardized_SMILES>  (451) 
Clc1ccccc1Nc1ccc2c(-c3ccccc3)[nH]nc2c1

>  <Name>  (451) 
nan

>  <Pocket>  (451) 
nan

>  <ATP_Site>  (451) 
nan

>  <Peripheral>  (451) 
nan

>  <Num_H_Atoms_ProtBoundConf>  (451) 
nan

>  <Num_Resolved_Atoms>  (451) 
nan

>  <Num_Not_Resolved_Atoms>  (451) 
nan

$$$$
CHEMBL441702
     RDKit          3D

  0  0  0  0  0  0  0  0  0  0999 V3000
M  V30 BEGIN CTAB
M  V30 COUNTS 50 54 0 0 0
M  V30 BEGIN ATOM
M  V30 1 C 1.421504 -1.247131 -2.582489 0
M  V30 2 C 0.829196 -2.030106 -1.473005 0
M  V30 3 C 0.932672 -1.705970 -0.195614 0
M  V30 4 C 1.686042 -0.502463 0.086706 0
M  V30 5 O 2.227942 0.225629 -0.813275 0
M  V30 6 N 1.980205 0.108090 1.341170 0
M  V30 7 C 2.767021 1.291725 1.073517 0
M  V30 8 C 4.133718 1.081845 1.051334 0
M  V30 9 C 4.979751 2.163758 0.800779 0
M  V30 10 C 4.372826 3.391056 0.588999 0
M  V30 11 N 4.923861 4.594709 0.328286 0
M  V30 12 N 3.998960 5.538921 0.186528 0
M  V30 13 C 2.776567 4.956038 0.356970 0
M  V30 14 C 2.997511 3.614893 0.608853 0
M  V30 15 C 2.182818 2.528662 0.858803 0
M  V30 16 C 0.325600 -2.456993 0.958571 0
M  V30 17 C -1.064000 -2.001459 1.245640 0
M  V30 18 C -1.471294 -0.701140 1.306522 0
M  V30 19 C -2.744849 -0.265140 1.580408 0
M  V30 20 C -3.724616 -1.201946 1.820260 0
M  V30 21 C -5.012019 -0.796943 2.097833 0
M  V30 22 C -6.032906 -1.695990 2.345970 0
M  V30 23 C -5.685750 -3.030418 2.299261 0
M  V30 24 C -4.397574 -3.441261 2.021650 0
M  V30 25 C -3.397830 -2.541437 1.778210 0
M  V30 26 C -2.097979 -2.905576 1.496974 0
M  V30 27 C 0.334052 -3.915809 0.574765 0
M  V30 28 C -0.431778 -4.046638 -0.697574 0
M  V30 29 O -1.462031 -4.691459 -1.082909 0
M  V30 30 N 0.116896 -3.252598 -1.770411 0
M  V30 31 H 0.977431 -0.236803 -2.706220 0
M  V30 32 H 1.169122 -1.759998 -3.559447 0
M  V30 33 H 2.530337 -1.255554 -2.567937 0
M  V30 34 H 1.588794 -0.388992 2.197423 0
M  V30 35 H 4.577321 0.113176 1.220114 0
M  V30 36 H 6.048421 2.064676 0.770732 0
M  V30 37 H 5.952415 4.843125 0.232178 0
M  V30 38 H 1.783048 5.398718 0.316393 0
M  V30 39 H 1.120051 2.634083 0.887341 0
M  V30 40 H 0.954023 -2.260848 1.856345 0
M  V30 41 H -0.768608 0.090375 1.128881 0
M  V30 42 H -3.015398 0.779225 1.616792 0
M  V30 43 H -5.314386 0.253850 2.141080 0
M  V30 44 H -7.058631 -1.438699 2.568626 0
M  V30 45 H -6.417802 -3.824233 2.480605 0
M  V30 46 H -4.141776 -4.504218 1.989057 0
M  V30 47 H -1.946692 -3.960417 1.492478 0
M  V30 48 H 1.409086 -4.151067 0.334507 0
M  V30 49 H -0.033859 -4.587214 1.378552 0
M  V30 50 H 0.024108 -3.515474 -2.800966 0
M  V30 END ATOM
M  V30 BEGIN BOND
M  V30 1 1 1 2
M  V30 2 2 2 3
M  V30 3 1 3 4
M  V30 4 2 4 5
M  V30 5 1 4 6
M  V30 6 1 6 7
M  V30 7 2 7 8
M  V30 8 1 8 9
M  V30 9 2 9 10
M  V30 10 1 10 11
M  V30 11 1 11 12
M  V30 12 2 12 13
M  V30 13 1 13 14
M  V30 14 2 14 15
M  V30 15 1 3 16
M  V30 16 1 16 17
M  V30 17 2 17 18
M  V30 18 1 18 19
M  V30 19 2 19 20
M  V30 20 1 20 21
M  V30 21 2 21 22
M  V30 22 1 22 23
M  V30 23 2 23 24
M  V30 24 1 24 25
M  V30 25 2 25 26
M  V30 26 1 16 27
M  V30 27 1 27 28
M  V30 28 2 28 29
M  V30 29 1 28 30
M  V30 30 1 30 2
M  V30 31 1 15 7
M  V30 32 1 26 17
M  V30 33 1 14 10
M  V30 34 1 25 20
M  V30 35 1 1 31
M  V30 36 1 1 32
M  V30 37 1 1 33
M  V30 38 1 6 34
M  V30 39 1 8 35
M  V30 40 1 9 36
M  V30 41 1 11 37
M  V30 42 1 13 38
M  V30 43 1 15 39
M  V30 44 1 16 40
M  V30 45 1 18 41
M  V30 46 1 19 42
M  V30 47 1 21 43
M  V30 48 1 22 44
M  V30 49 1 23 45
M  V30 50 1 24 46
M  V30 51 1 26 47
M  V30 52 1 27 48
M  V30 53 1 27 49
M  V30 54 1 30 50
M  V30 END BOND
M  V30 END CTAB
M  END
>  <Dataset>  (452) 
ChEMBL_Kinases

>  <Ligand_Instance>  (452) 
nan

>  <PDB_ID>  (452) 
nan

>  <Standardized_SMILES>  (452) 
CC1=C(C(=O)Nc2ccc3[nH]ncc3c2)C(c2ccc3ccccc3c2)CC(=O)N1

>  <Name>  (452) 
GSK-270822A

>  <Pocket>  (452) 
nan

>  <ATP_Site>  (452) 
nan

>  <Peripheral>  (452) 
nan

>  <Num_H_Atoms_ProtBoundConf>  (452) 
nan

>  <Num_Resolved_Atoms>  (452) 
nan

>  <Num_Not_Resolved_Atoms>  (452) 
nan

$$$$
CHEMBL4753975
     RDKit          3D

  0  0  0  0  0  0  0  0  0  0999 V3000
M  V30 BEGIN CTAB
M  V30 COUNTS 46 51 0 0 0
M  V30 BEGIN ATOM
M  V30 1 C -1.635311 -1.635336 5.671388 0
M  V30 2 N -0.436507 -2.046549 4.991622 0
M  V30 3 C 0.174008 -1.450358 3.961634 0
M  V30 4 C 1.303187 -2.145126 3.582659 0
M  V30 5 C 2.300396 -1.925140 2.540368 0
M  V30 6 C 3.611367 -2.349129 2.768998 0
M  V30 7 N 4.557947 -2.162687 1.830697 0
M  V30 8 C 4.276181 -1.568902 0.655610 0
M  V30 9 N 5.034699 -1.272191 -0.425445 0
M  V30 10 N 4.268889 -0.676027 -1.339291 0
M  V30 11 C 3.009583 -0.563232 -0.899912 0
M  V30 12 C 1.868011 0.027521 -1.595334 0
M  V30 13 N 0.616283 0.132519 -1.144061 0
M  V30 14 C -0.169236 0.742149 -2.077890 0
M  V30 15 C -1.517129 1.040402 -2.007008 0
M  V30 16 C -2.283411 0.695191 -0.815323 0
M  V30 17 C -1.652608 1.010845 0.381478 0
M  V30 18 C -2.220085 0.759782 1.610970 0
M  V30 19 C -3.464229 0.171988 1.682574 0
M  V30 20 C -4.094133 -0.143020 0.497731 0
M  V30 21 F -5.321929 -0.724356 0.485762 0
M  V30 22 C -3.526253 0.108159 -0.733395 0
M  V30 23 N -2.021691 1.652981 -3.101510 0
M  V30 24 C -1.314405 1.963034 -4.182862 0
M  V30 25 C 0.039482 1.651433 -4.227334 0
M  V30 26 C 0.658409 1.025338 -3.165225 0
M  V30 27 N 1.896845 0.570675 -2.826648 0
M  V30 28 C 2.996916 -1.123942 0.362434 0
M  V30 29 C 2.047411 -1.320865 1.325723 0
M  V30 30 C 1.332861 -3.224083 4.473295 0
M  V30 31 N 0.264999 -3.113349 5.295488 0
M  V30 32 H -1.958741 -0.614714 5.384592 0
M  V30 33 H -1.499972 -1.657130 6.778597 0
M  V30 34 H -2.469841 -2.308159 5.437377 0
M  V30 35 H -0.118403 -0.544526 3.443574 0
M  V30 36 H 3.833977 -2.829917 3.723455 0
M  V30 37 H 6.051156 -1.496203 -0.482593 0
M  V30 38 H -0.666279 1.478301 0.419735 0
M  V30 39 H -1.700173 1.019357 2.542636 0
M  V30 40 H -3.937192 -0.038334 2.642670 0
M  V30 41 H -3.969284 -0.115133 -1.696545 0
M  V30 42 H -1.743131 2.447089 -5.031485 0
M  V30 43 H 0.706847 1.864397 -5.069393 0
M  V30 44 H 2.690783 0.674231 -3.493539 0
M  V30 45 H 1.040239 -0.990194 1.139021 0
M  V30 46 H 2.027764 -4.043258 4.572606 0
M  V30 END ATOM
M  V30 BEGIN BOND
M  V30 1 1 1 2
M  V30 2 1 2 3
M  V30 3 2 3 4
M  V30 4 1 4 5
M  V30 5 2 5 6
M  V30 6 1 6 7
M  V30 7 2 7 8
M  V30 8 1 8 9
M  V30 9 1 9 10
M  V30 10 2 10 11
M  V30 11 1 11 12
M  V30 12 2 12 13
M  V30 13 1 13 14
M  V30 14 2 14 15
M  V30 15 1 15 16
M  V30 16 2 16 17
M  V30 17 1 17 18
M  V30 18 2 18 19
M  V30 19 1 19 20
M  V30 20 1 20 21
M  V30 21 2 20 22
M  V30 22 1 15 23
M  V30 23 2 23 24
M  V30 24 1 24 25
M  V30 25 2 25 26
M  V30 26 1 26 27
M  V30 27 1 11 28
M  V30 28 2 28 29
M  V30 29 1 4 30
M  V30 30 2 30 31
M  V30 31 1 31 2
M  V30 32 1 29 5
M  V30 33 1 28 8
M  V30 34 1 27 12
M  V30 35 1 26 14
M  V30 36 1 22 16
M  V30 37 1 1 32
M  V30 38 1 1 33
M  V30 39 1 1 34
M  V30 40 1 3 35
M  V30 41 1 6 36
M  V30 42 1 9 37
M  V30 43 1 17 38
M  V30 44 1 18 39
M  V30 45 1 19 40
M  V30 46 1 22 41
M  V30 47 1 24 42
M  V30 48 1 25 43
M  V30 49 1 27 44
M  V30 50 1 29 45
M  V30 51 1 30 46
M  V30 END BOND
M  V30 END CTAB
M  END
>  <Dataset>  (453) 
ChEMBL_Kinases

>  <Ligand_Instance>  (453) 
nan

>  <PDB_ID>  (453) 
nan

>  <Standardized_SMILES>  (453) 
Cn1cc(-c2cnc3[nH]nc(-c4nc5c(-c6cccc(F)c6)nccc5[nH]4)c3c2)cn1

>  <Name>  (453) 
nan

>  <Pocket>  (453) 
nan

>  <ATP_Site>  (453) 
nan

>  <Peripheral>  (453) 
nan

>  <Num_H_Atoms_ProtBoundConf>  (453) 
nan

>  <Num_Resolved_Atoms>  (453) 
nan

>  <Num_Not_Resolved_Atoms>  (453) 
nan

$$$$
CHEMBL4753972
     RDKit          3D

  0  0  0  0  0  0  0  0  0  0999 V3000
M  V30 BEGIN CTAB
M  V30 COUNTS 68 73 0 0 0
M  V30 BEGIN ATOM
M  V30 1 C 3.207374 -3.849833 -4.259649 0
M  V30 2 C 3.601343 -3.058048 -3.004662 0
M  V30 3 C 3.221382 -1.619246 -3.247363 0
M  V30 4 O 2.724966 -1.616793 -4.414011 0
M  V30 5 N 3.383303 -0.517840 -2.367889 0
M  V30 6 C 2.859034 0.619517 -3.086674 0
M  V30 7 C 3.662014 1.394496 -3.895000 0
M  V30 8 N 3.064988 2.415695 -4.508307 0
M  V30 9 C 1.732986 2.662000 -4.331910 0
M  V30 10 C 0.897174 1.888880 -3.516016 0
M  V30 11 C -0.498907 2.267005 -3.423445 0
M  V30 12 C -1.012725 2.844909 -4.590264 0
M  V30 13 C -2.353478 3.242865 -4.594771 0
M  V30 14 C -3.134390 3.062035 -3.467534 0
M  V30 15 N -4.415774 3.330635 -3.164369 0
M  V30 16 N -4.658583 2.952621 -1.931646 0
M  V30 17 C -3.575596 2.414764 -1.336486 0
M  V30 18 C -3.544761 1.910476 0.022786 0
M  V30 19 C -2.627996 1.341996 0.831860 0
M  V30 20 C -3.147746 1.050342 2.054159 0
M  V30 21 C -2.617232 0.479279 3.192367 0
M  V30 22 C -1.230366 0.032251 3.242927 0
M  V30 23 C -0.366882 0.349950 4.277742 0
M  V30 24 C 0.943143 -0.077315 4.334238 0
M  V30 25 F 1.783755 0.235943 5.348229 0
M  V30 26 C 1.450112 -0.875001 3.303708 0
M  V30 27 C 0.586405 -1.189461 2.274527 0
M  V30 28 C 1.122158 -2.049843 1.159424 0
M  V30 29 N 0.846596 -3.409074 1.583941 0
M  V30 30 S 1.359138 -4.605497 0.486443 0
M  V30 31 C 0.514922 -4.425927 -1.080919 0
M  V30 32 O 0.900572 -5.946449 1.037749 0
M  V30 33 O 2.842572 -4.606087 0.313691 0
M  V30 34 C -0.739047 -0.754183 2.222375 0
M  V30 35 C -3.422984 0.317472 4.302616 0
M  V30 36 N -4.709943 0.710527 4.277528 0
M  V30 37 C -5.216835 1.266022 3.161628 0
M  V30 38 C -4.456953 1.451129 2.025354 0
M  V30 39 N -4.656729 1.958807 0.797805 0
M  V30 40 C -2.635958 2.490721 -2.306669 0
M  V30 41 C -1.319915 2.118727 -2.353087 0
M  V30 42 C 1.511351 0.836083 -2.883358 0
M  V30 43 H 3.589967 -3.362253 -5.164345 0
M  V30 44 H 3.521659 -4.895139 -4.175226 0
M  V30 45 H 2.081555 -3.775166 -4.326259 0
M  V30 46 H 3.004191 -3.372570 -2.138516 0
M  V30 47 H 4.685984 -3.121972 -2.888295 0
M  V30 48 H 3.819436 -0.774451 -1.458011 0
M  V30 49 H 4.701925 1.116578 -3.967687 0
M  V30 50 H 1.408231 3.531468 -4.904160 0
M  V30 51 H -0.479981 3.028043 -5.523137 0
M  V30 52 H -2.798631 3.699387 -5.484926 0
M  V30 53 H -5.134693 3.768147 -3.779262 0
M  V30 54 H -1.628733 1.141386 0.575768 0
M  V30 55 H -0.720213 0.964964 5.093884 0
M  V30 56 H 2.462194 -1.249093 3.273946 0
M  V30 57 H 0.624991 -1.851332 0.207175 0
M  V30 58 H 2.209819 -1.952628 1.059440 0
M  V30 59 H -0.078309 -3.561627 1.991209 0
M  V30 60 H -0.542783 -4.727424 -0.962257 0
M  V30 61 H 0.946324 -5.162644 -1.805655 0
M  V30 62 H 0.572752 -3.412215 -1.490043 0
M  V30 63 H -1.306365 -1.077883 1.360631 0
M  V30 64 H -2.969596 -0.136069 5.180941 0
M  V30 65 H -6.247934 1.581912 3.137512 0
M  V30 66 H -5.627325 2.324181 0.588739 0
M  V30 67 H -0.877089 1.676543 -1.500972 0
M  V30 68 H 0.889202 0.230167 -2.252715 0
M  V30 END ATOM
M  V30 BEGIN BOND
M  V30 1 1 1 2
M  V30 2 1 2 3
M  V30 3 2 3 4
M  V30 4 1 3 5
M  V30 5 1 5 6
M  V30 6 2 6 7
M  V30 7 1 7 8
M  V30 8 2 8 9
M  V30 9 1 9 10
M  V30 10 1 10 11
M  V30 11 2 11 12
M  V30 12 1 12 13
M  V30 13 2 13 14
M  V30 14 1 14 15
M  V30 15 1 15 16
M  V30 16 2 16 17
M  V30 17 1 17 18
M  V30 18 2 18 19
M  V30 19 1 19 20
M  V30 20 2 20 21
M  V30 21 1 21 22
M  V30 22 2 22 23
M  V30 23 1 23 24
M  V30 24 1 24 25
M  V30 25 2 24 26
M  V30 26 1 26 27
M  V30 27 1 27 28
M  V30 28 1 28 29
M  V30 29 1 29 30
M  V30 30 1 30 31
M  V30 31 2 30 32
M  V30 32 2 30 33
M  V30 33 2 27 34
M  V30 34 1 21 35
M  V30 35 2 35 36
M  V30 36 1 36 37
M  V30 37 2 37 38
M  V30 38 1 38 39
M  V30 39 1 17 40
M  V30 40 2 40 41
M  V30 41 2 10 42
M  V30 42 1 42 6
M  V30 43 1 41 11
M  V30 44 1 40 14
M  V30 45 1 39 18
M  V30 46 1 38 20
M  V30 47 1 34 22
M  V30 48 1 1 43
M  V30 49 1 1 44
M  V30 50 1 1 45
M  V30 51 1 2 46
M  V30 52 1 2 47
M  V30 53 1 5 48
M  V30 54 1 7 49
M  V30 55 1 9 50
M  V30 56 1 12 51
M  V30 57 1 13 52
M  V30 58 1 15 53
M  V30 59 1 19 54
M  V30 60 1 23 55
M  V30 61 1 26 56
M  V30 62 1 28 57
M  V30 63 1 28 58
M  V30 64 1 29 59
M  V30 65 1 31 60
M  V30 66 1 31 61
M  V30 67 1 31 62
M  V30 68 1 34 63
M  V30 69 1 35 64
M  V30 70 1 37 65
M  V30 71 1 39 66
M  V30 72 1 41 67
M  V30 73 1 42 68
M  V30 END BOND
M  V30 END CTAB
M  END
>  <Dataset>  (454) 
ChEMBL_Kinases

>  <Ligand_Instance>  (454) 
nan

>  <PDB_ID>  (454) 
nan

>  <Standardized_SMILES>  (454) 
CCC(=O)Nc1cncc(-c2ccc3[nH]nc(-c4cc5c(-c6cc(F)cc(CNS(C)(=O)=O)c6)cncc5[nH]4)c3c2)c1

>  <Name>  (454) 
nan

>  <Pocket>  (454) 
nan

>  <ATP_Site>  (454) 
nan

>  <Peripheral>  (454) 
nan

>  <Num_H_Atoms_ProtBoundConf>  (454) 
nan

>  <Num_Resolved_Atoms>  (454) 
nan

>  <Num_Not_Resolved_Atoms>  (454) 
nan

$$$$
CHEMBL259060
     RDKit          3D

  0  0  0  0  0  0  0  0  0  0999 V3000
M  V30 BEGIN CTAB
M  V30 COUNTS 53 56 0 0 0
M  V30 BEGIN ATOM
M  V30 1 C 0.992705 -1.938685 4.494069 0
M  V30 2 O 0.741289 -0.942227 3.528669 0
M  V30 3 C -0.309533 -0.972074 2.630947 0
M  V30 4 O -0.580756 -2.044092 3.195291 0
M  V30 5 C -0.570206 0.043944 1.642784 0
M  V30 6 C 0.314065 1.093018 1.652242 0
M  V30 7 C 1.450974 1.162929 2.562827 0
M  V30 8 C 1.449696 1.730982 3.823990 0
M  V30 9 C 2.602067 1.728295 4.583536 0
M  V30 10 C 3.794587 1.175366 4.147307 0
M  V30 11 C 3.791572 0.602266 2.872080 0
M  V30 12 C 2.625964 0.614043 2.123937 0
M  V30 13 C 0.118297 2.123789 0.762807 0
M  V30 14 C 0.971481 3.197286 0.729190 0
M  V30 15 C 0.788227 4.238764 -0.156618 0
M  V30 16 Br 1.906290 5.771430 -0.289058 0
M  V30 17 C -0.288688 4.167254 -1.015242 0
M  V30 18 C -1.127805 3.075790 -0.957159 0
M  V30 19 C -0.968146 2.015971 -0.078407 0
M  V30 20 C -1.811759 0.928018 -0.027053 0
M  V30 21 O -2.737859 1.005613 -0.861876 0
M  V30 22 N -1.634692 -0.089383 0.835852 0
M  V30 23 C -2.569421 -1.192920 0.828648 0
M  V30 24 C -2.257404 -2.262805 -0.127136 0
M  V30 25 C -1.456781 -3.369767 0.028762 0
M  V30 26 C -1.197918 -4.351354 -0.899859 0
M  V30 27 C -1.797342 -4.235880 -2.136004 0
M  V30 28 S -1.476910 -5.476211 -3.325669 0
M  V30 29 C -0.054659 -5.058893 -4.309143 0
M  V30 30 O -1.282407 -6.827712 -2.722858 0
M  V30 31 O -2.637262 -5.563408 -4.273400 0
M  V30 32 C -2.619505 -3.155934 -2.384676 0
M  V30 33 C -2.834377 -2.208029 -1.404750 0
M  V30 34 H 1.924607 -1.687711 5.049483 0
M  V30 35 H 0.133844 -2.072415 5.200323 0
M  V30 36 H 1.167594 -2.929307 4.026073 0
M  V30 37 H 0.509901 2.159832 4.152436 0
M  V30 38 H 2.516439 2.198024 5.570220 0
M  V30 39 H 4.676841 1.191033 4.768187 0
M  V30 40 H 4.700141 0.157093 2.486625 0
M  V30 41 H 2.699930 0.149493 1.141011 0
M  V30 42 H 1.820912 3.285205 1.384304 0
M  V30 43 H -0.498114 4.951703 -1.742676 0
M  V30 44 H -1.966632 3.046171 -1.644268 0
M  V30 45 H -2.691328 -1.595532 1.858071 0
M  V30 46 H -3.562884 -0.753381 0.533892 0
M  V30 47 H -0.975476 -3.491136 0.983190 0
M  V30 48 H -0.547131 -5.177993 -0.658506 0
M  V30 49 H 0.411157 -5.954449 -4.759993 0
M  V30 50 H -0.250450 -4.237830 -5.025782 0
M  V30 51 H 0.722224 -4.649487 -3.603663 0
M  V30 52 H -3.040968 -3.147867 -3.368501 0
M  V30 53 H -3.498328 -1.440811 -1.756848 0
M  V30 END ATOM
M  V30 BEGIN BOND
M  V30 1 1 1 2
M  V30 2 1 2 3
M  V30 3 2 3 4
M  V30 4 1 3 5
M  V30 5 2 5 6
M  V30 6 1 6 7
M  V30 7 2 7 8
M  V30 8 1 8 9
M  V30 9 2 9 10
M  V30 10 1 10 11
M  V30 11 2 11 12
M  V30 12 1 6 13
M  V30 13 2 13 14
M  V30 14 1 14 15
M  V30 15 1 15 16
M  V30 16 2 15 17
M  V30 17 1 17 18
M  V30 18 2 18 19
M  V30 19 1 19 20
M  V30 20 2 20 21
M  V30 21 1 20 22
M  V30 22 1 22 23
M  V30 23 1 23 24
M  V30 24 2 24 25
M  V30 25 1 25 26
M  V30 26 2 26 27
M  V30 27 1 27 28
M  V30 28 1 28 29
M  V30 29 2 28 30
M  V30 30 2 28 31
M  V30 31 1 27 32
M  V30 32 2 32 33
M  V30 33 1 22 5
M  V30 34 1 33 24
M  V30 35 1 12 7
M  V30 36 1 19 13
M  V30 37 1 1 34
M  V30 38 1 1 35
M  V30 39 1 1 36
M  V30 40 1 8 37
M  V30 41 1 9 38
M  V30 42 1 10 39
M  V30 43 1 11 40
M  V30 44 1 12 41
M  V30 45 1 14 42
M  V30 46 1 17 43
M  V30 47 1 18 44
M  V30 48 1 23 45
M  V30 49 1 23 46
M  V30 50 1 25 47
M  V30 51 1 26 48
M  V30 52 1 29 49
M  V30 53 1 29 50
M  V30 54 1 29 51
M  V30 55 1 32 52
M  V30 56 1 33 53
M  V30 END BOND
M  V30 END CTAB
M  END
>  <Dataset>  (455) 
ChEMBL_Kinases

>  <Ligand_Instance>  (455) 
nan

>  <PDB_ID>  (455) 
nan

>  <Standardized_SMILES>  (455) 
COC(=O)c1c(-c2ccccc2)c2cc(Br)ccc2c(=O)n1Cc1ccc(S(C)(=O)=O)cc1

>  <Name>  (455) 
nan

>  <Pocket>  (455) 
nan

>  <ATP_Site>  (455) 
nan

>  <Peripheral>  (455) 
nan

>  <Num_H_Atoms_ProtBoundConf>  (455) 
nan

>  <Num_Resolved_Atoms>  (455) 
nan

>  <Num_Not_Resolved_Atoms>  (455) 
nan

$$$$
CHEMBL4753920
     RDKit          3D

  0  0  0  0  0  0  0  0  0  0999 V3000
M  V30 BEGIN CTAB
M  V30 COUNTS 36 40 0 0 0
M  V30 BEGIN ATOM
M  V30 1 C 2.744020 -5.572110 2.066843 0
M  V30 2 C 3.615255 -5.273234 1.020328 0
M  V30 3 N 3.408268 -4.122142 0.322336 0
M  V30 4 C 2.390980 -3.290510 0.629799 0
M  V30 5 C 1.511809 -3.528127 1.636286 0
M  V30 6 C 0.400375 -2.670178 2.011448 0
M  V30 7 C 0.107168 -1.489545 1.371238 0
M  V30 8 C -0.941800 -0.671686 1.719020 0
M  V30 9 C -1.379851 0.518222 1.207123 0
M  V30 10 C -0.912516 1.351750 0.124313 0
M  V30 11 C 0.095844 1.323960 -0.797448 0
M  V30 12 C 0.083489 2.418679 -1.633846 0
M  V30 13 C 0.904543 2.784557 -2.685324 0
M  V30 14 C 0.654200 3.960662 -3.362133 0
M  V30 15 C -0.428467 4.684289 -2.909843 0
M  V30 16 N -1.215577 4.307849 -1.881941 0
M  V30 17 C -0.992920 3.163754 -1.204026 0
M  V30 18 N -1.548653 2.505195 -0.174044 0
M  V30 19 N -2.439333 0.793202 1.985239 0
M  V30 20 N -2.639473 -0.140141 2.895411 0
M  V30 21 C -1.714411 -1.103237 2.776043 0
M  V30 22 C -1.459091 -2.278511 3.447544 0
M  V30 23 N -0.423827 -3.001020 3.038727 0
M  V30 24 C 1.709839 -4.689732 2.350802 0
M  V30 25 H 2.888200 -6.483908 2.638238 0
M  V30 26 H 4.425336 -5.969586 0.801906 0
M  V30 27 H 2.289236 -2.406045 0.039885 0
M  V30 28 H 0.740879 -1.208166 0.560475 0
M  V30 29 H 0.817615 0.547726 -0.871379 0
M  V30 30 H 1.728055 2.140800 -2.957047 0
M  V30 31 H 1.269136 4.286209 -4.189557 0
M  V30 32 H -0.636798 5.620366 -3.440039 0
M  V30 33 H -2.386198 2.967148 0.251634 0
M  V30 34 H -3.421804 -0.082852 3.582881 0
M  V30 35 H -2.087652 -2.563779 4.256505 0
M  V30 36 H 1.057788 -4.956729 3.167590 0
M  V30 END ATOM
M  V30 BEGIN BOND
M  V30 1 2 1 2
M  V30 2 1 2 3
M  V30 3 2 3 4
M  V30 4 1 4 5
M  V30 5 1 5 6
M  V30 6 2 6 7
M  V30 7 1 7 8
M  V30 8 1 8 9
M  V30 9 1 9 10
M  V30 10 2 10 11
M  V30 11 1 11 12
M  V30 12 2 12 13
M  V30 13 1 13 14
M  V30 14 2 14 15
M  V30 15 1 15 16
M  V30 16 2 16 17
M  V30 17 1 17 18
M  V30 18 2 9 19
M  V30 19 1 19 20
M  V30 20 1 20 21
M  V30 21 1 21 22
M  V30 22 2 22 23
M  V30 23 2 5 24
M  V30 24 1 24 1
M  V30 25 1 23 6
M  V30 26 2 21 8
M  V30 27 1 18 10
M  V30 28 1 17 12
M  V30 29 1 1 25
M  V30 30 1 2 26
M  V30 31 1 4 27
M  V30 32 1 7 28
M  V30 33 1 11 29
M  V30 34 1 13 30
M  V30 35 1 14 31
M  V30 36 1 15 32
M  V30 37 1 18 33
M  V30 38 1 20 34
M  V30 39 1 22 35
M  V30 40 1 24 36
M  V30 END BOND
M  V30 END CTAB
M  END
>  <Dataset>  (456) 
ChEMBL_Kinases

>  <Ligand_Instance>  (456) 
nan

>  <PDB_ID>  (456) 
nan

>  <Standardized_SMILES>  (456) 
c1cncc(-c2cc3c(-c4cc5cccnc5[nH]4)n[nH]c3cn2)c1

>  <Name>  (456) 
nan

>  <Pocket>  (456) 
nan

>  <ATP_Site>  (456) 
nan

>  <Peripheral>  (456) 
nan

>  <Num_H_Atoms_ProtBoundConf>  (456) 
nan

>  <Num_Resolved_Atoms>  (456) 
nan

>  <Num_Not_Resolved_Atoms>  (456) 
nan

$$$$
CHEMBL438485
     RDKit          3D

  0  0  0  0  0  0  0  0  0  0999 V3000
M  V30 BEGIN CTAB
M  V30 COUNTS 62 67 0 0 0
M  V30 BEGIN ATOM
M  V30 1 O 5.132067 2.588505 -0.902922 0
M  V30 2 C 4.319386 1.886714 -0.247618 0
M  V30 3 N 4.694515 1.399662 1.033920 0
M  V30 4 C 5.988598 1.666447 1.651495 0 CFG=1
M  V30 5 C 5.809386 2.417987 2.938439 0
M  V30 6 C 5.736145 1.559845 4.153985 0
M  V30 7 C 5.288860 0.149096 3.921827 0 CFG=2
M  V30 8 O 5.608412 -0.548583 5.110657 0
M  V30 9 C 5.966438 -0.559026 2.802537 0
M  V30 10 C 6.685626 0.355182 1.841644 0
M  V30 11 C 3.024274 1.616661 -0.860357 0
M  V30 12 C 2.779148 2.145852 -2.111253 0
M  V30 13 C 1.555780 1.915574 -2.739657 0
M  V30 14 C 0.609652 1.152886 -2.082637 0
M  V30 15 C 0.806713 0.599841 -0.827543 0
M  V30 16 C 2.038932 0.863075 -0.255717 0
M  V30 17 C -0.394273 -0.164875 -0.391453 0
M  V30 18 C -1.304370 0.011498 -1.540777 0
M  V30 19 C -2.580772 -0.339464 -1.982054 0
M  V30 20 C -3.593890 -1.144158 -1.303805 0
M  V30 21 C -3.971029 -1.039991 0.019610 0
M  V30 22 C -4.953993 -1.875320 0.533352 0
M  V30 23 C -5.560439 -2.822924 -0.296103 0
M  V30 24 C -6.609510 -3.725535 0.221911 0
M  V30 25 C -6.692581 -4.982907 -0.350936 0
M  V30 26 C -7.649512 -5.904725 0.070284 0
M  V30 27 C -8.487531 -5.491726 1.070822 0
M  V30 28 O -9.459563 -6.364746 1.531582 0
M  V30 29 C -8.431752 -4.254294 1.658969 0
M  V30 30 C -7.467816 -3.336591 1.229027 0
M  V30 31 C -5.191304 -2.936636 -1.622650 0
M  V30 32 C -4.212260 -2.100082 -2.122263 0
M  V30 33 N -2.740570 0.220108 -3.217432 0
M  V30 34 N -1.639383 0.885489 -3.545830 0
M  V30 35 C -0.734928 0.786234 -2.552737 0
M  V30 36 H 4.024360 0.817086 1.582069 0
M  V30 37 H 6.608214 2.288361 0.978707 0
M  V30 38 H 6.616561 3.168965 3.053497 0
M  V30 39 H 4.868975 3.034546 2.840202 0
M  V30 40 H 6.708066 1.552000 4.720728 0
M  V30 41 H 4.983775 2.005731 4.862805 0
M  V30 42 H 4.162769 0.090116 3.863691 0
M  V30 43 H 4.836896 -0.746664 5.664915 0
M  V30 44 H 5.154221 -1.043282 2.186037 0
M  V30 45 H 6.618678 -1.377863 3.142014 0
M  V30 46 H 7.720436 0.490191 2.214613 0
M  V30 47 H 6.777489 -0.109020 0.827800 0
M  V30 48 H 3.479489 2.759455 -2.693373 0
M  V30 49 H 1.354774 2.329514 -3.726351 0
M  V30 50 H 2.214828 0.442775 0.721314 0
M  V30 51 H -0.794309 0.382056 0.510919 0
M  V30 52 H -0.177664 -1.182486 -0.096211 0
M  V30 53 H -3.462528 -0.293021 0.588872 0
M  V30 54 H -5.239874 -1.786676 1.562155 0
M  V30 55 H -6.032907 -5.312457 -1.140824 0
M  V30 56 H -7.704410 -6.886668 -0.386424 0
M  V30 57 H -9.383413 -7.356892 1.358070 0
M  V30 58 H -9.085843 -3.916996 2.447511 0
M  V30 59 H -7.357096 -2.340613 1.640520 0
M  V30 60 H -5.648212 -3.659687 -2.272269 0
M  V30 61 H -3.949176 -2.219213 -3.168988 0
M  V30 62 H -1.463733 1.419431 -4.434609 0
M  V30 END ATOM
M  V30 BEGIN BOND
M  V30 1 2 1 2
M  V30 2 1 2 3
M  V30 3 1 3 4
M  V30 4 1 4 5
M  V30 5 1 5 6
M  V30 6 1 6 7
M  V30 7 1 7 8
M  V30 8 1 7 9
M  V30 9 1 9 10
M  V30 10 1 2 11
M  V30 11 2 11 12
M  V30 12 1 12 13
M  V30 13 2 13 14
M  V30 14 1 14 15
M  V30 15 2 15 16
M  V30 16 1 15 17
M  V30 17 1 17 18
M  V30 18 1 18 19
M  V30 19 1 19 20
M  V30 20 2 20 21
M  V30 21 1 21 22
M  V30 22 2 22 23
M  V30 23 1 23 24
M  V30 24 2 24 25
M  V30 25 1 25 26
M  V30 26 2 26 27
M  V30 27 1 27 28
M  V30 28 1 27 29
M  V30 29 2 29 30
M  V30 30 1 23 31
M  V30 31 2 31 32
M  V30 32 2 19 33
M  V30 33 1 33 34
M  V30 34 1 34 35
M  V30 35 1 10 4
M  V30 36 1 16 11
M  V30 37 2 35 18
M  V30 38 1 35 14
M  V30 39 1 32 20
M  V30 40 1 30 24
M  V30 41 1 3 36
M  V30 42 1 4 37 CFG=3
M  V30 43 1 5 38
M  V30 44 1 5 39
M  V30 45 1 6 40
M  V30 46 1 6 41
M  V30 47 1 7 42 CFG=3
M  V30 48 1 8 43
M  V30 49 1 9 44
M  V30 50 1 9 45
M  V30 51 1 10 46
M  V30 52 1 10 47
M  V30 53 1 12 48
M  V30 54 1 13 49
M  V30 55 1 16 50
M  V30 56 1 17 51
M  V30 57 1 17 52
M  V30 58 1 21 53
M  V30 59 1 22 54
M  V30 60 1 25 55
M  V30 61 1 26 56
M  V30 62 1 28 57
M  V30 63 1 29 58
M  V30 64 1 30 59
M  V30 65 1 31 60
M  V30 66 1 32 61
M  V30 67 1 34 62
M  V30 END BOND
M  V30 END CTAB
M  END
>  <Dataset>  (457) 
ChEMBL_Kinases

>  <Ligand_Instance>  (457) 
nan

>  <PDB_ID>  (457) 
nan

>  <Standardized_SMILES>  (457) 
O=C(N[C@H]1CC[C@H](O)CC1)c1ccc2c(c1)Cc1c(-c3ccc(-c4ccc(O)cc4)cc3)n[nH]c1-2

>  <Name>  (457) 
nan

>  <Pocket>  (457) 
nan

>  <ATP_Site>  (457) 
nan

>  <Peripheral>  (457) 
nan

>  <Num_H_Atoms_ProtBoundConf>  (457) 
nan

>  <Num_Resolved_Atoms>  (457) 
nan

>  <Num_Not_Resolved_Atoms>  (457) 
nan

$$$$
CHEMBL4756030
     RDKit          3D

  0  0  0  0  0  0  0  0  0  0999 V3000
M  V30 BEGIN CTAB
M  V30 COUNTS 71 76 0 0 0
M  V30 BEGIN ATOM
M  V30 1 O 1.402864 -2.183252 4.225238 0
M  V30 2 C 0.593409 -2.225456 3.248320 0
M  V30 3 N 1.184738 -1.457299 2.229631 0
M  V30 4 C 2.430096 -0.801126 2.322710 0
M  V30 5 C 2.461957 0.503698 2.811182 0
M  V30 6 C 3.631224 1.225501 2.932517 0
M  V30 7 C 4.828800 0.664028 2.565667 0
M  V30 8 N 6.060340 1.338060 2.652205 0
M  V30 9 C 6.329324 2.665513 3.137325 0
M  V30 10 C 7.172376 3.486732 2.199833 0
M  V30 11 C 7.272123 2.827911 0.863290 0
M  V30 12 O 5.979665 2.773241 0.312206 0
M  V30 13 C 7.813830 1.411898 0.957836 0
M  V30 14 C 7.304916 0.730406 2.217287 0
M  V30 15 N 4.802532 -0.589432 2.096744 0
M  V30 16 C 3.669561 -1.298932 1.975519 0
M  V30 17 C -0.629272 -2.970927 3.376581 0
M  V30 18 N -0.874015 -3.499220 4.599704 0
M  V30 19 N -2.032927 -4.156929 4.555037 0
M  V30 20 C -2.608526 -4.111335 3.352053 0
M  V30 21 C -3.726676 -4.552596 2.680464 0
M  V30 22 C -3.942619 -4.264027 1.348843 0
M  V30 23 C -3.022092 -3.502242 0.621642 0
M  V30 24 C -3.209435 -3.175370 -0.796382 0
M  V30 25 C -2.018667 -3.047442 -1.523079 0
M  V30 26 N -2.031877 -2.751496 -2.837731 0
M  V30 27 C -3.214247 -2.569647 -3.488777 0
M  V30 28 C -4.417748 -2.691190 -2.787980 0
M  V30 29 C -5.707724 -2.498547 -3.502609 0
M  V30 30 N -6.056119 -1.121949 -3.451204 0
M  V30 31 C -6.212274 -0.541182 -2.167188 0
M  V30 32 C -6.554431 0.931127 -2.272628 0
M  V30 33 C -5.467004 1.645310 -3.010419 0
M  V30 34 C -4.668250 0.759248 -3.923807 0
M  V30 35 C -5.596554 -0.287773 -4.500798 0
M  V30 36 C -4.419471 -2.995915 -1.432066 0
M  V30 37 C -1.905034 -3.063123 1.301177 0
M  V30 38 C -1.708713 -3.360657 2.625733 0
M  V30 39 H 0.619511 -1.395905 1.362277 0
M  V30 40 H 1.535913 0.986797 3.112811 0
M  V30 41 H 3.577538 2.218715 3.315004 0
M  V30 42 H 5.365025 3.197970 3.290120 0
M  V30 43 H 6.828361 2.560408 4.143185 0
M  V30 44 H 8.200283 3.703277 2.603319 0
M  V30 45 H 6.709766 4.482451 2.034800 0
M  V30 46 H 7.886256 3.447180 0.185120 0
M  V30 47 H 5.964328 3.045782 -0.629651 0
M  V30 48 H 7.507056 0.858712 0.065844 0
M  V30 49 H 8.913929 1.483278 0.971935 0
M  V30 50 H 8.070954 0.816009 2.995901 0
M  V30 51 H 7.088772 -0.327062 1.964767 0
M  V30 52 H 3.669865 -2.324568 1.591512 0
M  V30 53 H -2.468962 -4.661171 5.357386 0
M  V30 54 H -4.418690 -5.142208 3.269123 0
M  V30 55 H -4.828324 -4.617824 0.825408 0
M  V30 56 H -1.001004 -3.154743 -1.181133 0
M  V30 57 H -3.249836 -2.335441 -4.532953 0
M  V30 58 H -5.592105 -2.896219 -4.525314 0
M  V30 59 H -6.523387 -3.069225 -2.966914 0
M  V30 60 H -6.974917 -1.090818 -1.566192 0
M  V30 61 H -5.221357 -0.588691 -1.638131 0
M  V30 62 H -7.555432 1.070037 -2.731898 0
M  V30 63 H -6.576444 1.306724 -1.222384 0
M  V30 64 H -5.941374 2.443009 -3.625834 0
M  V30 65 H -4.814266 2.191100 -2.282453 0
M  V30 66 H -4.208951 1.387151 -4.735149 0
M  V30 67 H -3.852489 0.255235 -3.346051 0
M  V30 68 H -6.420712 0.286914 -4.998989 0
M  V30 69 H -5.049766 -0.916810 -5.236134 0
M  V30 70 H -5.295624 -3.102784 -0.847221 0
M  V30 71 H -1.220722 -2.492316 0.733411 0
M  V30 END ATOM
M  V30 BEGIN BOND
M  V30 1 2 1 2
M  V30 2 1 2 3
M  V30 3 1 3 4
M  V30 4 2 4 5
M  V30 5 1 5 6
M  V30 6 2 6 7
M  V30 7 1 7 8
M  V30 8 1 8 9
M  V30 9 1 9 10
M  V30 10 1 10 11
M  V30 11 1 11 12
M  V30 12 1 11 13
M  V30 13 1 13 14
M  V30 14 1 7 15
M  V30 15 2 15 16
M  V30 16 1 2 17
M  V30 17 2 17 18
M  V30 18 1 18 19
M  V30 19 1 19 20
M  V30 20 2 20 21
M  V30 21 1 21 22
M  V30 22 2 22 23
M  V30 23 1 23 24
M  V30 24 2 24 25
M  V30 25 1 25 26
M  V30 26 2 26 27
M  V30 27 1 27 28
M  V30 28 1 28 29
M  V30 29 1 29 30
M  V30 30 1 30 31
M  V30 31 1 31 32
M  V30 32 1 32 33
M  V30 33 1 33 34
M  V30 34 1 34 35
M  V30 35 2 28 36
M  V30 36 1 23 37
M  V30 37 2 37 38
M  V30 38 1 16 4
M  V30 39 1 38 17
M  V30 40 1 14 8
M  V30 41 1 38 20
M  V30 42 1 36 24
M  V30 43 1 35 30
M  V30 44 1 3 39
M  V30 45 1 5 40
M  V30 46 1 6 41
M  V30 47 1 9 42
M  V30 48 1 9 43
M  V30 49 1 10 44
M  V30 50 1 10 45
M  V30 51 1 11 46
M  V30 52 1 12 47
M  V30 53 1 13 48
M  V30 54 1 13 49
M  V30 55 1 14 50
M  V30 56 1 14 51
M  V30 57 1 16 52
M  V30 58 1 19 53
M  V30 59 1 21 54
M  V30 60 1 22 55
M  V30 61 1 25 56
M  V30 62 1 27 57
M  V30 63 1 29 58
M  V30 64 1 29 59
M  V30 65 1 31 60
M  V30 66 1 31 61
M  V30 67 1 32 62
M  V30 68 1 32 63
M  V30 69 1 33 64
M  V30 70 1 33 65
M  V30 71 1 34 66
M  V30 72 1 34 67
M  V30 73 1 35 68
M  V30 74 1 35 69
M  V30 75 1 36 70
M  V30 76 1 37 71
M  V30 END BOND
M  V30 END CTAB
M  END
>  <Dataset>  (458) 
ChEMBL_Kinases

>  <Ligand_Instance>  (458) 
nan

>  <PDB_ID>  (458) 
nan

>  <Standardized_SMILES>  (458) 
O=C(Nc1ccc(N2CCC(O)CC2)nc1)c1n[nH]c2ccc(-c3cncc(CN4CCCCC4)c3)cc12

>  <Name>  (458) 
nan

>  <Pocket>  (458) 
nan

>  <ATP_Site>  (458) 
nan

>  <Peripheral>  (458) 
nan

>  <Num_H_Atoms_ProtBoundConf>  (458) 
nan

>  <Num_Resolved_Atoms>  (458) 
nan

>  <Num_Not_Resolved_Atoms>  (458) 
nan

$$$$
CHEMBL4755952
     RDKit          3D

  0  0  0  0  0  0  0  0  0  0999 V3000
M  V30 BEGIN CTAB
M  V30 COUNTS 60 66 0 0 0
M  V30 BEGIN ATOM
M  V30 1 O 6.865939 -2.022148 1.067647 0
M  V30 2 C 5.736075 -2.369500 1.493309 0
M  V30 3 N 4.671366 -1.454988 1.334912 0
M  V30 4 C 4.640048 -0.166159 0.763690 0
M  V30 5 C 5.695275 0.523775 0.221347 0
M  V30 6 N 5.605384 1.755006 -0.311381 0
M  V30 7 C 4.444205 2.435605 -0.360825 0
M  V30 8 C 3.380614 1.778967 0.168244 0
M  V30 9 C 2.076194 2.447678 0.158326 0
M  V30 10 C 1.990495 3.840139 0.271555 0
M  V30 11 N 0.754724 4.421183 0.254559 0
M  V30 12 C -0.369626 3.694038 0.132729 0
M  V30 13 N -1.681910 3.977817 0.086247 0
M  V30 14 N -2.393221 2.879616 -0.045168 0
M  V30 15 C -1.615215 1.777304 -0.096828 0
M  V30 16 C -2.054653 0.425452 -0.237918 0
M  V30 17 C -3.412983 0.101081 -0.343452 0
M  V30 18 C -3.624128 -1.252150 -0.473353 0
M  V30 19 C -4.726344 -2.040095 -0.603575 0
M  V30 20 C -6.061417 -1.459411 -0.636959 0
M  V30 21 C -6.561117 -0.396658 -1.343934 0
M  V30 22 C -7.883032 -0.028434 -1.199002 0
M  V30 23 C -8.723512 -0.722221 -0.341749 0
M  V30 24 N -8.238732 -1.782413 0.367887 0
M  V30 25 C -6.947520 -2.129353 0.215950 0
M  V30 26 C -4.600008 -3.409396 -0.713954 0
M  V30 27 C -3.338843 -3.965488 -0.690252 0
M  V30 28 C -2.223613 -3.166278 -0.558447 0
M  V30 29 C -2.359799 -1.799756 -0.448779 0
M  V30 30 N -1.512377 -0.777509 -0.311544 0
M  V30 31 C -0.354890 2.315807 0.016838 0
M  V30 32 C 0.896370 1.746172 0.035763 0
M  V30 33 C 3.448990 0.518064 0.719136 0
M  V30 34 C 5.569428 -3.699091 2.132192 0
M  V30 35 C 4.587466 -4.625071 1.495442 0
M  V30 36 C 3.794429 -4.661100 2.762081 0
M  V30 37 C 4.770627 -3.712718 3.391597 0
M  V30 38 H 3.769556 -1.842558 1.722502 0
M  V30 39 H 6.667517 0.071736 0.210169 0
M  V30 40 H 4.307804 3.423237 -0.773644 0
M  V30 41 H 2.897504 4.457133 0.372149 0
M  V30 42 H -2.122607 4.922194 0.142561 0
M  V30 43 H -4.264228 0.787633 -0.330054 0
M  V30 44 H -5.818762 0.064254 -1.980465 0
M  V30 45 H -8.186841 0.820648 -1.796026 0
M  V30 46 H -9.758704 -0.404173 -0.252819 0
M  V30 47 H -6.707280 -2.981798 0.837048 0
M  V30 48 H -5.458703 -4.089308 -0.821090 0
M  V30 49 H -3.134360 -5.019065 -0.769284 0
M  V30 50 H -1.217278 -3.593252 -0.538274 0
M  V30 51 H -0.497358 -0.967876 -0.270131 0
M  V30 52 H 1.011944 0.700203 -0.047430 0
M  V30 53 H 2.547920 0.063295 1.122483 0
M  V30 54 H 6.553444 -4.183126 2.301921 0
M  V30 55 H 5.032668 -5.609336 1.180029 0
M  V30 56 H 4.021231 -4.116317 0.688932 0
M  V30 57 H 2.760488 -4.253214 2.666985 0
M  V30 58 H 3.745336 -5.651889 3.289880 0
M  V30 59 H 5.295353 -4.180444 4.275633 0
M  V30 60 H 4.267342 -2.760711 3.661464 0
M  V30 END ATOM
M  V30 BEGIN BOND
M  V30 1 2 1 2
M  V30 2 1 2 3
M  V30 3 1 3 4
M  V30 4 2 4 5
M  V30 5 1 5 6
M  V30 6 2 6 7
M  V30 7 1 7 8
M  V30 8 1 8 9
M  V30 9 2 9 10
M  V30 10 1 10 11
M  V30 11 2 11 12
M  V30 12 1 12 13
M  V30 13 1 13 14
M  V30 14 2 14 15
M  V30 15 1 15 16
M  V30 16 2 16 17
M  V30 17 1 17 18
M  V30 18 2 18 19
M  V30 19 1 19 20
M  V30 20 2 20 21
M  V30 21 1 21 22
M  V30 22 2 22 23
M  V30 23 1 23 24
M  V30 24 2 24 25
M  V30 25 1 19 26
M  V30 26 2 26 27
M  V30 27 1 27 28
M  V30 28 2 28 29
M  V30 29 1 29 30
M  V30 30 1 15 31
M  V30 31 2 31 32
M  V30 32 2 8 33
M  V30 33 1 2 34
M  V30 34 1 34 35
M  V30 35 1 35 36
M  V30 36 1 36 37
M  V30 37 1 33 4
M  V30 38 1 37 34
M  V30 39 1 32 9
M  V30 40 1 31 12
M  V30 41 1 30 16
M  V30 42 1 29 18
M  V30 43 1 25 20
M  V30 44 1 3 38
M  V30 45 1 5 39
M  V30 46 1 7 40
M  V30 47 1 10 41
M  V30 48 1 13 42
M  V30 49 1 17 43
M  V30 50 1 21 44
M  V30 51 1 22 45
M  V30 52 1 23 46
M  V30 53 1 25 47
M  V30 54 1 26 48
M  V30 55 1 27 49
M  V30 56 1 28 50
M  V30 57 1 30 51
M  V30 58 1 32 52
M  V30 59 1 33 53
M  V30 60 1 34 54
M  V30 61 1 35 55
M  V30 62 1 35 56
M  V30 63 1 36 57
M  V30 64 1 36 58
M  V30 65 1 37 59
M  V30 66 1 37 60
M  V30 END BOND
M  V30 END CTAB
M  END
>  <Dataset>  (459) 
ChEMBL_Kinases

>  <Ligand_Instance>  (459) 
nan

>  <PDB_ID>  (459) 
nan

>  <Standardized_SMILES>  (459) 
O=C(Nc1cncc(-c2cnc3[nH]nc(-c4cc5c(-c6cccnc6)cccc5[nH]4)c3c2)c1)C1CCC1

>  <Name>  (459) 
nan

>  <Pocket>  (459) 
nan

>  <ATP_Site>  (459) 
nan

>  <Peripheral>  (459) 
nan

>  <Num_H_Atoms_ProtBoundConf>  (459) 
nan

>  <Num_Resolved_Atoms>  (459) 
nan

>  <Num_Not_Resolved_Atoms>  (459) 
nan

$$$$
CHEMBL4755941
     RDKit          3D

  0  0  0  0  0  0  0  0  0  0999 V3000
M  V30 BEGIN CTAB
M  V30 COUNTS 63 69 0 0 0
M  V30 BEGIN ATOM
M  V30 1 O 3.650470 3.140685 2.625377 0
M  V30 2 C 3.775938 2.030819 3.207588 0
M  V30 3 N 3.996992 0.689442 2.793898 0
M  V30 4 C 4.094799 0.632989 1.349850 0
M  V30 5 C 5.361228 0.790920 0.824056 0
M  V30 6 N 5.562101 0.756068 -0.506555 0
M  V30 7 C 4.501719 0.563185 -1.329588 0
M  V30 8 C 3.221847 0.402305 -0.825668 0
M  V30 9 C 2.108702 0.198811 -1.753784 0
M  V30 10 C 2.281089 0.851551 -2.972572 0
M  V30 11 C 1.290954 0.729456 -3.927822 0
M  V30 12 C 0.183752 -0.022957 -3.645088 0
M  V30 13 N -0.925663 -0.331576 -4.338117 0
M  V30 14 N -1.720276 -1.098729 -3.636842 0
M  V30 15 C -1.211246 -1.368814 -2.416105 0
M  V30 16 C -1.833904 -2.184151 -1.398628 0
M  V30 17 C -3.070810 -2.788800 -1.601420 0
M  V30 18 C -3.473126 -3.512489 -0.513372 0
M  V30 19 C -4.569595 -4.275624 -0.191025 0
M  V30 20 C -5.642790 -4.446596 -1.161543 0
M  V30 21 C -5.600726 -4.761515 -2.487727 0
M  V30 22 C -6.749559 -4.869681 -3.236371 0
M  V30 23 C -7.962410 -4.645781 -2.591105 0
M  V30 24 N -8.026075 -4.334937 -1.286753 0
M  V30 25 C -6.889626 -4.231196 -0.560329 0
M  V30 26 C -4.647583 -4.882010 1.046609 0
M  V30 27 N -3.645530 -4.721591 1.933048 0
M  V30 28 C -2.568980 -3.983161 1.639930 0
M  V30 29 C -2.470337 -3.369640 0.412448 0
M  V30 30 N -1.545445 -2.586841 -0.160146 0
M  V30 31 C -0.021485 -0.682198 -2.452734 0
M  V30 32 C 0.979095 -0.544548 -1.518591 0
M  V30 33 C 2.991547 0.434058 0.531409 0
M  V30 34 C 3.637194 2.370511 4.643956 0
M  V30 35 C 3.412303 3.831343 4.874354 0
M  V30 36 C 1.903859 3.961747 4.813380 0
M  V30 37 C 1.333112 2.630426 5.234495 0
M  V30 38 C 2.486884 1.647317 5.306726 0
M  V30 39 H 4.052013 -0.015468 3.561585 0
M  V30 40 H 6.219084 0.946102 1.469265 0
M  V30 41 H 4.721110 0.544389 -2.380240 0
M  V30 42 H 3.126657 1.467494 -3.279443 0
M  V30 43 H 1.321098 1.198091 -4.917999 0
M  V30 44 H -1.196919 -0.042041 -5.307904 0
M  V30 45 H -3.702353 -2.741384 -2.479061 0
M  V30 46 H -4.605307 -4.910593 -2.855273 0
M  V30 47 H -6.650044 -5.121610 -4.281455 0
M  V30 48 H -8.828691 -4.746936 -3.238785 0
M  V30 49 H -7.077856 -3.974066 0.485131 0
M  V30 50 H -5.523493 -5.483246 1.286572 0
M  V30 51 H -1.765729 -3.855794 2.352676 0
M  V30 52 H -0.684758 -2.333922 0.348815 0
M  V30 53 H 0.907405 -1.021637 -0.561006 0
M  V30 54 H 2.032341 0.316005 0.971048 0
M  V30 55 H 4.570282 2.075592 5.150472 0
M  V30 56 H 3.857754 4.467260 4.058970 0
M  V30 57 H 3.790266 4.197721 5.832650 0
M  V30 58 H 1.543151 4.807099 5.437323 0
M  V30 59 H 1.648379 4.107422 3.722777 0
M  V30 60 H 0.627573 2.240118 4.463394 0
M  V30 61 H 0.794873 2.741653 6.179548 0
M  V30 62 H 2.694847 1.516708 6.398968 0
M  V30 63 H 2.274434 0.669677 4.877026 0
M  V30 END ATOM
M  V30 BEGIN BOND
M  V30 1 2 1 2
M  V30 2 1 2 3
M  V30 3 1 3 4
M  V30 4 2 4 5
M  V30 5 1 5 6
M  V30 6 2 6 7
M  V30 7 1 7 8
M  V30 8 1 8 9
M  V30 9 2 9 10
M  V30 10 1 10 11
M  V30 11 2 11 12
M  V30 12 1 12 13
M  V30 13 1 13 14
M  V30 14 2 14 15
M  V30 15 1 15 16
M  V30 16 2 16 17
M  V30 17 1 17 18
M  V30 18 2 18 19
M  V30 19 1 19 20
M  V30 20 2 20 21
M  V30 21 1 21 22
M  V30 22 2 22 23
M  V30 23 1 23 24
M  V30 24 2 24 25
M  V30 25 1 19 26
M  V30 26 2 26 27
M  V30 27 1 27 28
M  V30 28 2 28 29
M  V30 29 1 29 30
M  V30 30 1 15 31
M  V30 31 2 31 32
M  V30 32 2 8 33
M  V30 33 1 2 34
M  V30 34 1 34 35
M  V30 35 1 35 36
M  V30 36 1 36 37
M  V30 37 1 37 38
M  V30 38 1 33 4
M  V30 39 1 38 34
M  V30 40 1 32 9
M  V30 41 1 31 12
M  V30 42 1 30 16
M  V30 43 1 29 18
M  V30 44 1 25 20
M  V30 45 1 3 39
M  V30 46 1 5 40
M  V30 47 1 7 41
M  V30 48 1 10 42
M  V30 49 1 11 43
M  V30 50 1 13 44
M  V30 51 1 17 45
M  V30 52 1 21 46
M  V30 53 1 22 47
M  V30 54 1 23 48
M  V30 55 1 25 49
M  V30 56 1 26 50
M  V30 57 1 28 51
M  V30 58 1 30 52
M  V30 59 1 32 53
M  V30 60 1 33 54
M  V30 61 1 34 55
M  V30 62 1 35 56
M  V30 63 1 35 57
M  V30 64 1 36 58
M  V30 65 1 36 59
M  V30 66 1 37 60
M  V30 67 1 37 61
M  V30 68 1 38 62
M  V30 69 1 38 63
M  V30 END BOND
M  V30 END CTAB
M  END
>  <Dataset>  (460) 
ChEMBL_Kinases

>  <Ligand_Instance>  (460) 
nan

>  <PDB_ID>  (460) 
nan

>  <Standardized_SMILES>  (460) 
O=C(Nc1cncc(-c2ccc3[nH]nc(-c4cc5c(-c6cccnc6)cncc5[nH]4)c3c2)c1)C1CCCC1

>  <Name>  (460) 
nan

>  <Pocket>  (460) 
nan

>  <ATP_Site>  (460) 
nan

>  <Peripheral>  (460) 
nan

>  <Num_H_Atoms_ProtBoundConf>  (460) 
nan

>  <Num_Resolved_Atoms>  (460) 
nan

>  <Num_Not_Resolved_Atoms>  (460) 
nan

$$$$
CHEMBL4755887
     RDKit          3D

  0  0  0  0  0  0  0  0  0  0999 V3000
M  V30 BEGIN CTAB
M  V30 COUNTS 53 58 0 0 0
M  V30 BEGIN ATOM
M  V30 1 C 5.572754 0.344126 2.537567 0
M  V30 2 C 5.764206 -1.131317 2.589622 0
M  V30 3 N 4.795064 -1.898306 1.914664 0
M  V30 4 C 4.725982 -1.896202 0.512411 0
M  V30 5 C 4.474276 -0.588124 -0.126849 0
M  V30 6 C 5.420037 0.313179 -0.618922 0
M  V30 7 N 5.066958 1.477010 -1.181548 0
M  V30 8 C 3.764055 1.842584 -1.303085 0
M  V30 9 C 2.773209 1.027938 -0.852099 0
M  V30 10 C 1.393021 1.466621 -1.000738 0
M  V30 11 C 0.273349 0.773330 -0.601915 0
M  V30 12 C -1.011329 1.190964 -0.740679 0
M  V30 13 C -2.212804 0.619874 -0.395618 0
M  V30 14 C -2.533185 -0.640815 0.244496 0
M  V30 15 N -3.824308 -0.973947 0.490659 0
M  V30 16 C -3.934370 -2.163412 1.088048 0
M  V30 17 C -4.930248 -2.990747 1.562864 0
M  V30 18 C -6.298580 -2.542476 1.430347 0
M  V30 19 C -6.908178 -1.984830 0.346234 0
M  V30 20 C -8.230963 -1.595319 0.340885 0
M  V30 21 S -8.823716 -2.017731 2.046061 0
M  V30 22 C -7.193565 -2.704702 2.644827 0
M  V30 23 N -4.702443 -4.182375 2.140719 0
M  V30 24 C -3.427831 -4.651608 2.293240 0
M  V30 25 C -2.382567 -3.858251 1.832921 0
M  V30 26 C -2.635398 -2.643230 1.245020 0
M  V30 27 N -1.863680 -1.679372 0.718138 0
M  V30 28 N -3.115000 1.558493 -0.809303 0
M  V30 29 N -2.507295 2.592141 -1.350413 0
M  V30 30 C -1.180715 2.420783 -1.336755 0
M  V30 31 C -0.077836 3.133602 -1.744609 0
M  V30 32 N 1.201044 2.684058 -1.589621 0
M  V30 33 C 3.147239 -0.166005 -0.275599 0
M  V30 34 H 4.594479 0.606593 2.104852 0
M  V30 35 H 5.647884 0.741405 3.601738 0
M  V30 36 H 6.374885 0.896456 1.999214 0
M  V30 37 H 6.786950 -1.411795 2.204661 0
M  V30 38 H 5.719550 -1.448882 3.678376 0
M  V30 39 H 3.973804 -2.179293 2.454246 0
M  V30 40 H 3.986937 -2.670650 0.141223 0
M  V30 41 H 5.698794 -2.274287 0.056669 0
M  V30 42 H 6.449088 -0.014417 -0.503486 0
M  V30 43 H 3.626899 2.802204 -1.773915 0
M  V30 44 H 0.493321 -0.170307 -0.148780 0
M  V30 45 H -6.333307 -1.838648 -0.552184 0
M  V30 46 H -8.818147 -1.177322 -0.362668 0
M  V30 47 H -6.864592 -3.127049 3.578321 0
M  V30 48 H -3.240805 -5.623512 2.763574 0
M  V30 49 H -1.349051 -4.178424 1.926529 0
M  V30 50 H -0.847549 -1.771931 0.699315 0
M  V30 51 H -3.014461 3.419950 -1.730412 0
M  V30 52 H -0.264435 4.094320 -2.207225 0
M  V30 53 H 2.388638 -0.824329 0.086584 0
M  V30 END ATOM
M  V30 BEGIN BOND
M  V30 1 1 1 2
M  V30 2 1 2 3
M  V30 3 1 3 4
M  V30 4 1 4 5
M  V30 5 2 5 6
M  V30 6 1 6 7
M  V30 7 2 7 8
M  V30 8 1 8 9
M  V30 9 1 9 10
M  V30 10 2 10 11
M  V30 11 1 11 12
M  V30 12 1 12 13
M  V30 13 1 13 14
M  V30 14 2 14 15
M  V30 15 1 15 16
M  V30 16 2 16 17
M  V30 17 1 17 18
M  V30 18 1 18 19
M  V30 19 2 19 20
M  V30 20 1 20 21
M  V30 21 1 21 22
M  V30 22 1 17 23
M  V30 23 2 23 24
M  V30 24 1 24 25
M  V30 25 2 25 26
M  V30 26 1 26 27
M  V30 27 2 13 28
M  V30 28 1 28 29
M  V30 29 1 29 30
M  V30 30 1 30 31
M  V30 31 2 31 32
M  V30 32 2 9 33
M  V30 33 1 33 5
M  V30 34 1 32 10
M  V30 35 2 30 12
M  V30 36 1 27 14
M  V30 37 1 26 16
M  V30 38 2 22 18
M  V30 39 1 1 34
M  V30 40 1 1 35
M  V30 41 1 1 36
M  V30 42 1 2 37
M  V30 43 1 2 38
M  V30 44 1 3 39
M  V30 45 1 4 40
M  V30 46 1 4 41
M  V30 47 1 6 42
M  V30 48 1 8 43
M  V30 49 1 11 44
M  V30 50 1 19 45
M  V30 51 1 20 46
M  V30 52 1 22 47
M  V30 53 1 24 48
M  V30 54 1 25 49
M  V30 55 1 27 50
M  V30 56 1 29 51
M  V30 57 1 31 52
M  V30 58 1 33 53
M  V30 END BOND
M  V30 END CTAB
M  END
>  <Dataset>  (461) 
ChEMBL_Kinases

>  <Ligand_Instance>  (461) 
nan

>  <PDB_ID>  (461) 
nan

>  <Standardized_SMILES>  (461) 
CCNCc1cncc(-c2cc3c(-c4nc5c(-c6ccsc6)nccc5[nH]4)n[nH]c3cn2)c1

>  <Name>  (461) 
nan

>  <Pocket>  (461) 
nan

>  <ATP_Site>  (461) 
nan

>  <Peripheral>  (461) 
nan

>  <Num_H_Atoms_ProtBoundConf>  (461) 
nan

>  <Num_Resolved_Atoms>  (461) 
nan

>  <Num_Not_Resolved_Atoms>  (461) 
nan

$$$$
CHEMBL4755870
     RDKit          3D

  0  0  0  0  0  0  0  0  0  0999 V3000
M  V30 BEGIN CTAB
M  V30 COUNTS 60 65 0 0 0
M  V30 BEGIN ATOM
M  V30 1 C 6.900316 -0.770824 5.540291 0
M  V30 2 N 7.071698 -1.990001 4.812892 0
M  V30 3 C 8.281157 -2.657237 5.155410 0
M  V30 4 C 5.887844 -2.802199 4.794984 0
M  V30 5 C 4.795414 -2.167216 3.963858 0
M  V30 6 O 5.213295 -1.988337 2.614756 0
M  V30 7 C 4.296443 -1.425373 1.739851 0
M  V30 8 C 4.854835 -1.316721 0.473417 0
M  V30 9 N 4.107992 -0.783930 -0.537793 0
M  V30 10 C 2.847690 -0.365752 -0.325341 0
M  V30 11 C 2.253797 -0.458233 0.928959 0
M  V30 12 C 0.902815 -0.057189 1.313791 0
M  V30 13 C 0.635485 0.408908 2.605603 0
M  V30 14 N -0.624280 0.758223 2.920755 0
M  V30 15 C -1.624139 0.669524 2.028126 0
M  V30 16 N -2.943476 0.930484 2.041573 0
M  V30 17 N -3.506596 0.668781 0.883985 0
M  V30 18 C -2.598850 0.209201 -0.000766 0
M  V30 19 C -2.875845 -0.174938 -1.370549 0
M  V30 20 N -4.126719 -0.096274 -1.871902 0
M  V30 21 C -4.177249 -0.494128 -3.144994 0
M  V30 22 C -5.191879 -0.602994 -4.094279 0
M  V30 23 C -6.543104 -0.222533 -3.710378 0
M  V30 24 C -7.436860 0.546712 -4.420323 0
M  V30 25 C -8.698549 0.848792 -3.961604 0
M  V30 26 C -9.126269 0.377625 -2.736691 0
M  V30 27 C -8.276289 -0.401481 -1.973441 0
M  V30 28 F -8.671568 -0.875799 -0.770775 0
M  V30 29 C -7.006085 -0.681760 -2.479785 0
M  V30 30 N -4.919608 -1.057363 -5.351991 0
M  V30 31 C -3.655888 -1.397876 -5.658343 0
M  V30 32 C -2.590628 -1.320908 -4.778638 0
M  V30 33 C -2.900532 -0.858526 -3.519692 0
M  V30 34 N -2.189075 -0.638241 -2.407696 0
M  V30 35 C -1.438832 0.219226 0.735551 0
M  V30 36 C -0.146644 -0.135944 0.421577 0
M  V30 37 C 3.011862 -1.003855 1.974938 0
M  V30 38 H 6.451492 0.047264 4.929467 0
M  V30 39 H 6.263475 -0.920242 6.455734 0
M  V30 40 H 7.875836 -0.361254 5.916532 0
M  V30 41 H 8.442281 -2.626624 6.244949 0
M  V30 42 H 8.259703 -3.744127 4.862560 0
M  V30 43 H 9.176566 -2.218463 4.629565 0
M  V30 44 H 6.053035 -3.860207 4.572222 0
M  V30 45 H 5.498961 -2.788008 5.856104 0
M  V30 46 H 3.839106 -2.711956 4.050472 0
M  V30 47 H 4.618614 -1.140522 4.378174 0
M  V30 48 H 5.846389 -1.604551 0.142393 0
M  V30 49 H 2.200958 0.060419 -1.064794 0
M  V30 50 H 1.428879 0.488196 3.338643 0
M  V30 51 H -3.493591 1.301378 2.863428 0
M  V30 52 H -7.073278 0.903093 -5.378008 0
M  V30 53 H -9.351653 1.459720 -4.571177 0
M  V30 54 H -10.110922 0.587278 -2.327725 0
M  V30 55 H -6.350335 -1.293296 -1.870879 0
M  V30 56 H -3.469440 -1.753433 -6.656200 0
M  V30 57 H -1.576694 -1.588153 -5.008133 0
M  V30 58 H -1.169760 -0.828347 -2.391879 0
M  V30 59 H 0.096551 -0.495224 -0.552605 0
M  V30 60 H 2.708822 -1.149748 3.010694 0
M  V30 END ATOM
M  V30 BEGIN BOND
M  V30 1 1 1 2
M  V30 2 1 2 3
M  V30 3 1 2 4
M  V30 4 1 4 5
M  V30 5 1 5 6
M  V30 6 1 6 7
M  V30 7 2 7 8
M  V30 8 1 8 9
M  V30 9 2 9 10
M  V30 10 1 10 11
M  V30 11 1 11 12
M  V30 12 2 12 13
M  V30 13 1 13 14
M  V30 14 2 14 15
M  V30 15 1 15 16
M  V30 16 1 16 17
M  V30 17 2 17 18
M  V30 18 1 18 19
M  V30 19 2 19 20
M  V30 20 1 20 21
M  V30 21 2 21 22
M  V30 22 1 22 23
M  V30 23 2 23 24
M  V30 24 1 24 25
M  V30 25 2 25 26
M  V30 26 1 26 27
M  V30 27 1 27 28
M  V30 28 2 27 29
M  V30 29 1 22 30
M  V30 30 2 30 31
M  V30 31 1 31 32
M  V30 32 2 32 33
M  V30 33 1 33 34
M  V30 34 1 18 35
M  V30 35 2 35 36
M  V30 36 2 11 37
M  V30 37 1 37 7
M  V30 38 1 36 12
M  V30 39 1 35 15
M  V30 40 1 34 19
M  V30 41 1 33 21
M  V30 42 1 29 23
M  V30 43 1 1 38
M  V30 44 1 1 39
M  V30 45 1 1 40
M  V30 46 1 3 41
M  V30 47 1 3 42
M  V30 48 1 3 43
M  V30 49 1 4 44
M  V30 50 1 4 45
M  V30 51 1 5 46
M  V30 52 1 5 47
M  V30 53 1 8 48
M  V30 54 1 10 49
M  V30 55 1 13 50
M  V30 56 1 16 51
M  V30 57 1 24 52
M  V30 58 1 25 53
M  V30 59 1 26 54
M  V30 60 1 29 55
M  V30 61 1 31 56
M  V30 62 1 32 57
M  V30 63 1 34 58
M  V30 64 1 36 59
M  V30 65 1 37 60
M  V30 END BOND
M  V30 END CTAB
M  END
>  <Dataset>  (462) 
ChEMBL_Kinases

>  <Ligand_Instance>  (462) 
nan

>  <PDB_ID>  (462) 
nan

>  <Standardized_SMILES>  (462) 
CN(C)CCOc1cncc(-c2cnc3[nH]nc(-c4nc5c(-c6cccc(F)c6)nccc5[nH]4)c3c2)c1

>  <Name>  (462) 
nan

>  <Pocket>  (462) 
nan

>  <ATP_Site>  (462) 
nan

>  <Peripheral>  (462) 
nan

>  <Num_H_Atoms_ProtBoundConf>  (462) 
nan

>  <Num_Resolved_Atoms>  (462) 
nan

>  <Num_Not_Resolved_Atoms>  (462) 
nan

$$$$
CHEMBL4755835
     RDKit          3D

  0  0  0  0  0  0  0  0  0  0999 V3000
M  V30 BEGIN CTAB
M  V30 COUNTS 75 81 0 0 0
M  V30 BEGIN ATOM
M  V30 1 C 4.777470 1.153290 8.805651 0
M  V30 2 S 6.329434 0.627742 8.117089 0
M  V30 3 O 7.366943 1.664862 8.422127 0
M  V30 4 O 6.782959 -0.684245 8.691894 0
M  V30 5 N 6.181878 0.407202 6.393717 0
M  V30 6 C 5.198453 -0.627582 6.200149 0
M  V30 7 C 4.938481 -0.953986 4.785647 0
M  V30 8 C 5.670051 -1.924843 4.130711 0
M  V30 9 C 5.349734 -2.158940 2.811457 0
M  V30 10 F 6.113152 -3.133293 2.221919 0
M  V30 11 C 4.334783 -1.456118 2.152963 0
M  V30 12 C 3.610562 -0.491445 2.811429 0
M  V30 13 C 2.579326 0.180391 2.072561 0
M  V30 14 C 2.540823 1.562935 2.109412 0
M  V30 15 N 1.568108 2.153772 1.393720 0
M  V30 16 C 0.659019 1.480643 0.666173 0
M  V30 17 C 0.692108 0.107551 0.626040 0
M  V30 18 N -0.032847 -0.844795 0.029407 0
M  V30 19 C 0.346147 -2.094062 0.262720 0
M  V30 20 C -0.075435 -3.404559 -0.122075 0
M  V30 21 N 0.494936 -4.573901 0.262271 0
M  V30 22 N -0.117642 -5.613400 -0.261750 0
M  V30 23 C -1.137566 -5.219724 -1.031503 0
M  V30 24 N -2.052149 -5.870383 -1.771098 0
M  V30 25 C -3.012666 -5.210897 -2.481857 0
M  V30 26 C -2.997704 -3.827375 -2.402714 0
M  V30 27 C -4.035879 -3.141885 -3.177600 0
M  V30 28 C -5.285643 -3.674409 -3.408794 0
M  V30 29 N -6.184577 -2.964562 -4.140379 0
M  V30 30 C -5.791541 -1.750467 -4.609229 0
M  V30 31 C -4.539146 -1.175548 -4.398760 0
M  V30 32 C -4.359326 0.144902 -5.026713 0
M  V30 33 N -4.830855 1.171962 -4.174105 0
M  V30 34 C -4.703613 2.496422 -4.693613 0
M  V30 35 C -3.199760 2.802579 -4.749477 0
M  V30 36 C -2.523228 2.322979 -3.506160 0
M  V30 37 C -3.544126 2.171904 -2.425839 0
M  V30 38 C -4.527225 1.077036 -2.792084 0
M  V30 39 C -3.653598 -1.923114 -3.653016 0
M  V30 40 C -2.056425 -3.171241 -1.642353 0
M  V30 41 C -1.095722 -3.845167 -0.932157 0
M  V30 42 C 1.437945 -1.881780 1.105965 0
M  V30 43 C 1.667868 -0.547348 1.341201 0
M  V30 44 C 3.923028 -0.244632 4.141441 0
M  V30 45 H 4.176409 0.243370 9.012246 0
M  V30 46 H 4.243223 1.718293 8.016686 0
M  V30 47 H 4.939937 1.715868 9.729426 0
M  V30 48 H 5.907965 1.261298 5.895625 0
M  V30 49 H 4.252795 -0.293869 6.717332 0
M  V30 50 H 5.546148 -1.571603 6.706485 0
M  V30 51 H 6.448608 -2.452411 4.663978 0
M  V30 52 H 4.246971 -1.782852 1.135221 0
M  V30 53 H 3.222928 2.202174 2.661534 0
M  V30 54 H -0.113611 1.987324 0.098821 0
M  V30 55 H -0.830909 -0.569917 -0.567256 0
M  V30 56 H 0.204631 -6.584961 -0.059941 0
M  V30 57 H -3.684768 -5.834499 -3.031643 0
M  V30 58 H -5.415042 -4.650305 -2.955912 0
M  V30 59 H -6.615135 -1.298264 -5.177926 0
M  V30 60 H -3.294462 0.318387 -5.336797 0
M  V30 61 H -4.922825 0.223144 -5.996784 0
M  V30 62 H -5.205735 3.207309 -3.994991 0
M  V30 63 H -5.123290 2.553362 -5.714467 0
M  V30 64 H -2.790054 2.326919 -5.650473 0
M  V30 65 H -3.113592 3.917861 -4.777939 0
M  V30 66 H -1.996293 1.355001 -3.608704 0
M  V30 67 H -1.757447 3.074512 -3.208315 0
M  V30 68 H -4.034717 3.149836 -2.228778 0
M  V30 69 H -3.007229 1.857013 -1.500143 0
M  V30 70 H -5.432497 1.275028 -2.136615 0
M  V30 71 H -4.137561 0.124124 -2.438266 0
M  V30 72 H -2.686756 -1.437305 -3.515703 0
M  V30 73 H -2.100297 -2.116512 -1.624590 0
M  V30 74 H 2.080294 -2.645542 1.566312 0
M  V30 75 H 3.341892 0.529629 4.668039 0
M  V30 END ATOM
M  V30 BEGIN BOND
M  V30 1 1 1 2
M  V30 2 2 2 3
M  V30 3 2 2 4
M  V30 4 1 2 5
M  V30 5 1 5 6
M  V30 6 1 6 7
M  V30 7 2 7 8
M  V30 8 1 8 9
M  V30 9 1 9 10
M  V30 10 2 9 11
M  V30 11 1 11 12
M  V30 12 1 12 13
M  V30 13 2 13 14
M  V30 14 1 14 15
M  V30 15 2 15 16
M  V30 16 1 16 17
M  V30 17 1 17 18
M  V30 18 1 18 19
M  V30 19 1 19 20
M  V30 20 2 20 21
M  V30 21 1 21 22
M  V30 22 1 22 23
M  V30 23 2 23 24
M  V30 24 1 24 25
M  V30 25 2 25 26
M  V30 26 1 26 27
M  V30 27 2 27 28
M  V30 28 1 28 29
M  V30 29 2 29 30
M  V30 30 1 30 31
M  V30 31 1 31 32
M  V30 32 1 32 33
M  V30 33 1 33 34
M  V30 34 1 34 35
M  V30 35 1 35 36
M  V30 36 1 36 37
M  V30 37 1 37 38
M  V30 38 2 31 39
M  V30 39 1 26 40
M  V30 40 2 40 41
M  V30 41 2 19 42
M  V30 42 1 42 43
M  V30 43 2 12 44
M  V30 44 1 44 7
M  V30 45 1 43 13
M  V30 46 2 43 17
M  V30 47 1 41 20
M  V30 48 1 41 23
M  V30 49 1 39 27
M  V30 50 1 38 33
M  V30 51 1 1 45
M  V30 52 1 1 46
M  V30 53 1 1 47
M  V30 54 1 5 48
M  V30 55 1 6 49
M  V30 56 1 6 50
M  V30 57 1 8 51
M  V30 58 1 11 52
M  V30 59 1 14 53
M  V30 60 1 16 54
M  V30 61 1 18 55
M  V30 62 1 22 56
M  V30 63 1 25 57
M  V30 64 1 28 58
M  V30 65 1 30 59
M  V30 66 1 32 60
M  V30 67 1 32 61
M  V30 68 1 34 62
M  V30 69 1 34 63
M  V30 70 1 35 64
M  V30 71 1 35 65
M  V30 72 1 36 66
M  V30 73 1 36 67
M  V30 74 1 37 68
M  V30 75 1 37 69
M  V30 76 1 38 70
M  V30 77 1 38 71
M  V30 78 1 39 72
M  V30 79 1 40 73
M  V30 80 1 42 74
M  V30 81 1 44 75
M  V30 END BOND
M  V30 END CTAB
M  END
>  <Dataset>  (463) 
ChEMBL_Kinases

>  <Ligand_Instance>  (463) 
nan

>  <PDB_ID>  (463) 
nan

>  <Standardized_SMILES>  (463) 
CS(=O)(=O)NCc1cc(F)cc(-c2cncc3[nH]c(-c4n[nH]c5ncc(-c6cncc(CN7CCCCC7)c6)cc45)cc23)c1

>  <Name>  (463) 
nan

>  <Pocket>  (463) 
nan

>  <ATP_Site>  (463) 
nan

>  <Peripheral>  (463) 
nan

>  <Num_H_Atoms_ProtBoundConf>  (463) 
nan

>  <Num_Resolved_Atoms>  (463) 
nan

>  <Num_Not_Resolved_Atoms>  (463) 
nan

$$$$
CHEMBL4755833
     RDKit          3D

  0  0  0  0  0  0  0  0  0  0999 V3000
M  V30 BEGIN CTAB
M  V30 COUNTS 53 58 0 0 0
M  V30 BEGIN ATOM
M  V30 1 C 5.941943 -0.971822 2.336698 0
M  V30 2 C 4.679488 -1.190232 3.159370 0
M  V30 3 C 4.780311 -0.484004 4.502037 0
M  V30 4 N 3.486735 -0.788512 2.446472 0
M  V30 5 C 3.283924 0.544958 2.010464 0
M  V30 6 C 4.181273 1.569487 2.221635 0
M  V30 7 N 3.966574 2.826921 1.796970 0
M  V30 8 C 2.838675 3.154805 1.129304 0
M  V30 9 C 1.891139 2.197521 0.875370 0
M  V30 10 C 0.637670 2.428679 0.166492 0
M  V30 11 C 0.271615 3.659779 -0.330434 0
M  V30 12 C -0.905280 3.918382 -1.006434 0
M  V30 13 C -1.778923 2.869739 -1.199167 0
M  V30 14 N -2.984595 2.723751 -1.789343 0
M  V30 15 N -3.397870 1.453588 -1.687659 0
M  V30 16 C -2.438469 0.760062 -1.016301 0
M  V30 17 C -2.427602 -0.658674 -0.657153 0
M  V30 18 N -3.386531 -1.561485 -0.930551 0
M  V30 19 C -3.067979 -2.779472 -0.461537 0
M  V30 20 C -3.630409 -4.036768 -0.440592 0
M  V30 21 C -4.931712 -4.221967 -1.070721 0
M  V30 22 C -5.544027 -3.840674 -2.266103 0
M  V30 23 C -6.839641 -4.366223 -2.239047 0
M  V30 24 O -6.978064 -5.010171 -1.108315 0
M  V30 25 C -5.899778 -4.957064 -0.393495 0
M  V30 26 C -2.989799 -5.113885 0.160661 0
M  V30 27 C -1.758520 -4.909871 0.749707 0
M  V30 28 N -1.192353 -3.672381 0.735636 0
M  V30 29 C -1.836044 -2.633015 0.142185 0
M  V30 30 N -1.477312 -1.343173 0.007241 0
M  V30 31 C -1.413175 1.637163 -0.702020 0
M  V30 32 N -0.252604 1.441378 -0.050155 0
M  V30 33 C 2.150220 0.920001 1.328069 0
M  V30 34 H 6.430332 -1.954491 2.071980 0
M  V30 35 H 6.659172 -0.435743 2.972785 0
M  V30 36 H 5.722942 -0.479973 1.363384 0
M  V30 37 H 4.627068 -2.270306 3.382901 0
M  V30 38 H 4.675423 -1.184454 5.354835 0
M  V30 39 H 5.793881 -0.040362 4.563589 0
M  V30 40 H 3.971603 0.295073 4.573302 0
M  V30 41 H 2.741673 -1.486567 2.237273 0
M  V30 42 H 5.102042 1.371432 2.750569 0
M  V30 43 H 2.660362 4.157636 0.786946 0
M  V30 44 H 0.917798 4.509889 -0.206450 0
M  V30 45 H -1.150381 4.905624 -1.379756 0
M  V30 46 H -3.484662 3.523279 -2.248423 0
M  V30 47 H -4.949612 -3.248133 -2.952804 0
M  V30 48 H -7.408165 -4.128669 -3.125472 0
M  V30 49 H -5.857358 -5.450677 0.585743 0
M  V30 50 H -3.433293 -6.104386 0.176955 0
M  V30 51 H -1.225619 -5.739373 1.233313 0
M  V30 52 H -0.591999 -0.953424 0.370223 0
M  V30 53 H 1.405977 0.132818 1.137426 0
M  V30 END ATOM
M  V30 BEGIN BOND
M  V30 1 1 1 2
M  V30 2 1 2 3
M  V30 3 1 2 4
M  V30 4 1 4 5
M  V30 5 2 5 6
M  V30 6 1 6 7
M  V30 7 2 7 8
M  V30 8 1 8 9
M  V30 9 1 9 10
M  V30 10 2 10 11
M  V30 11 1 11 12
M  V30 12 2 12 13
M  V30 13 1 13 14
M  V30 14 1 14 15
M  V30 15 2 15 16
M  V30 16 1 16 17
M  V30 17 2 17 18
M  V30 18 1 18 19
M  V30 19 2 19 20
M  V30 20 1 20 21
M  V30 21 1 21 22
M  V30 22 2 22 23
M  V30 23 1 23 24
M  V30 24 1 24 25
M  V30 25 1 20 26
M  V30 26 2 26 27
M  V30 27 1 27 28
M  V30 28 2 28 29
M  V30 29 1 29 30
M  V30 30 1 16 31
M  V30 31 2 31 32
M  V30 32 2 9 33
M  V30 33 1 33 5
M  V30 34 1 32 10
M  V30 35 1 31 13
M  V30 36 1 30 17
M  V30 37 1 29 19
M  V30 38 2 25 21
M  V30 39 1 1 34
M  V30 40 1 1 35
M  V30 41 1 1 36
M  V30 42 1 2 37
M  V30 43 1 3 38
M  V30 44 1 3 39
M  V30 45 1 3 40
M  V30 46 1 4 41
M  V30 47 1 6 42
M  V30 48 1 8 43
M  V30 49 1 11 44
M  V30 50 1 12 45
M  V30 51 1 14 46
M  V30 52 1 22 47
M  V30 53 1 23 48
M  V30 54 1 25 49
M  V30 55 1 26 50
M  V30 56 1 27 51
M  V30 57 1 30 52
M  V30 58 1 33 53
M  V30 END BOND
M  V30 END CTAB
M  END
>  <Dataset>  (464) 
ChEMBL_Kinases

>  <Ligand_Instance>  (464) 
nan

>  <PDB_ID>  (464) 
nan

>  <Standardized_SMILES>  (464) 
CC(C)Nc1cncc(-c2ccc3[nH]nc(-c4nc5c(-c6ccoc6)ccnc5[nH]4)c3n2)c1

>  <Name>  (464) 
nan

>  <Pocket>  (464) 
nan

>  <ATP_Site>  (464) 
nan

>  <Peripheral>  (464) 
nan

>  <Num_H_Atoms_ProtBoundConf>  (464) 
nan

>  <Num_Resolved_Atoms>  (464) 
nan

>  <Num_Not_Resolved_Atoms>  (464) 
nan

$$$$
CHEMBL1922212
     RDKit          3D

  0  0  0  0  0  0  0  0  0  0999 V3000
M  V30 BEGIN CTAB
M  V30 COUNTS 57 59 0 0 0
M  V30 BEGIN ATOM
M  V30 1 C -3.879459 -4.116124 1.075510 0
M  V30 2 C -2.621491 -3.374646 1.444086 0
M  V30 3 C -1.343188 -4.073683 1.188268 0 CFG=2
M  V30 4 N -0.182052 -3.276689 1.597225 0
M  V30 5 C 0.039646 -1.933438 1.216852 0
M  V30 6 N 1.200655 -1.434618 1.632577 0
M  V30 7 C 1.675511 -0.225403 1.445001 0
M  V30 8 N 2.844078 0.453549 1.796577 0
M  V30 9 C 4.006158 1.127486 2.146656 0
M  V30 10 C 4.035045 2.540458 1.561468 0
M  V30 11 C 4.592222 2.751020 0.317986 0
M  V30 12 C 4.685927 3.964080 -0.328231 0
M  V30 13 C 4.153853 5.044943 0.383143 0
M  V30 14 N 3.597655 4.868513 1.611704 0
M  V30 15 C 3.535837 3.658573 2.190497 0
M  V30 16 C 0.854223 0.657473 0.711498 0
M  V30 17 N 0.872161 1.929289 0.271359 0
M  V30 18 C -0.262924 2.175068 -0.393301 0
M  V30 19 N -1.059589 1.093297 -0.417014 0
M  V30 20 C -2.353515 1.055341 -1.058835 0
M  V30 21 C -3.413172 1.178112 0.028851 0
M  V30 22 C -2.612986 -0.197391 -1.823802 0
M  V30 23 C -0.358238 0.176040 0.263669 0
M  V30 24 N -0.706945 -1.081001 0.532362 0
M  V30 25 C -1.053705 -4.583318 -0.169931 0
M  V30 26 C -2.044792 -5.529504 -0.764556 0
M  V30 27 C -0.728607 -3.551233 -1.214008 0
M  V30 28 O 0.148127 -5.346419 -0.031810 0
M  V30 29 H -3.922223 -5.054600 1.665896 0
M  V30 30 H -4.101922 -4.196066 0.021107 0
M  V30 31 H -4.718517 -3.470617 1.496026 0
M  V30 32 H -2.644231 -2.323809 1.083342 0
M  V30 33 H -2.698799 -3.263603 2.569474 0
M  V30 34 H -1.372212 -4.995606 1.861175 0
M  V30 35 H 0.498078 -3.799426 2.216410 0
M  V30 36 H 3.240074 -0.400458 2.312781 0
M  V30 37 H 4.178671 1.234209 3.254029 0
M  V30 38 H 4.950744 0.688438 1.734102 0
M  V30 39 H 4.988934 1.861825 -0.180943 0
M  V30 40 H 5.141031 4.022752 -1.300590 0
M  V30 41 H 4.225090 6.006152 -0.123703 0
M  V30 42 H 3.094321 3.509888 3.167652 0
M  V30 43 H -0.373495 3.169927 -0.800174 0
M  V30 44 H -2.466381 1.921391 -1.775474 0
M  V30 45 H -2.976612 1.402032 1.018512 0
M  V30 46 H -3.984537 0.239857 0.119920 0
M  V30 47 H -4.141063 1.974285 -0.278411 0
M  V30 48 H -3.286253 0.042088 -2.683744 0
M  V30 49 H -3.175524 -0.907254 -1.176616 0
M  V30 50 H -1.706874 -0.630696 -2.289563 0
M  V30 51 H -2.651905 -6.100830 -0.038289 0
M  V30 52 H -1.458921 -6.335867 -1.304967 0
M  V30 53 H -2.635742 -5.072152 -1.594559 0
M  V30 54 H 0.264615 -3.126945 -1.049868 0
M  V30 55 H -1.541061 -2.856249 -1.416918 0
M  V30 56 H -0.618598 -4.143071 -2.180080 0
M  V30 57 H 0.334888 -5.859123 -0.849239 0
M  V30 END ATOM
M  V30 BEGIN BOND
M  V30 1 1 1 2
M  V30 2 1 2 3
M  V30 3 1 3 4
M  V30 4 1 4 5
M  V30 5 2 5 6
M  V30 6 1 6 7
M  V30 7 1 7 8
M  V30 8 1 8 9
M  V30 9 1 9 10
M  V30 10 2 10 11
M  V30 11 1 11 12
M  V30 12 2 12 13
M  V30 13 1 13 14
M  V30 14 2 14 15
M  V30 15 2 7 16
M  V30 16 1 16 17
M  V30 17 2 17 18
M  V30 18 1 18 19
M  V30 19 1 19 20
M  V30 20 1 20 21
M  V30 21 1 20 22
M  V30 22 1 19 23
M  V30 23 2 23 24
M  V30 24 1 3 25
M  V30 25 1 25 26
M  V30 26 1 25 27
M  V30 27 1 25 28
M  V30 28 1 24 5
M  V30 29 1 15 10
M  V30 30 1 23 16
M  V30 31 1 1 29
M  V30 32 1 1 30
M  V30 33 1 1 31
M  V30 34 1 2 32
M  V30 35 1 2 33
M  V30 36 1 3 34 CFG=1
M  V30 37 1 4 35
M  V30 38 1 8 36
M  V30 39 1 9 37
M  V30 40 1 9 38
M  V30 41 1 11 39
M  V30 42 1 12 40
M  V30 43 1 13 41
M  V30 44 1 15 42
M  V30 45 1 18 43
M  V30 46 1 20 44
M  V30 47 1 21 45
M  V30 48 1 21 46
M  V30 49 1 21 47
M  V30 50 1 22 48
M  V30 51 1 22 49
M  V30 52 1 22 50
M  V30 53 1 26 51
M  V30 54 1 26 52
M  V30 55 1 26 53
M  V30 56 1 27 54
M  V30 57 1 27 55
M  V30 58 1 27 56
M  V30 59 1 28 57
M  V30 END BOND
M  V30 END CTAB
M  END
>  <Dataset>  (465) 
ChEMBL_Kinases

>  <Ligand_Instance>  (465) 
nan

>  <PDB_ID>  (465) 
nan

>  <Standardized_SMILES>  (465) 
CC[C@H](Nc1nc(NCc2cccnc2)c2ncn(C(C)C)c2n1)C(C)(C)O

>  <Name>  (465) 
nan

>  <Pocket>  (465) 
nan

>  <ATP_Site>  (465) 
nan

>  <Peripheral>  (465) 
nan

>  <Num_H_Atoms_ProtBoundConf>  (465) 
nan

>  <Num_Resolved_Atoms>  (465) 
nan

>  <Num_Not_Resolved_Atoms>  (465) 
nan

$$$$
CHEMBL1922218
     RDKit          3D

  0  0  0  0  0  0  0  0  0  0999 V3000
M  V30 BEGIN CTAB
M  V30 COUNTS 54 56 0 0 0
M  V30 BEGIN ATOM
M  V30 1 C -0.341818 -5.324131 3.158225 0
M  V30 2 C -0.527442 -5.529189 1.663648 0
M  V30 3 C -0.631504 -4.139957 1.049896 0 CFG=1
M  V30 4 N 0.559429 -3.369578 1.302800 0
M  V30 5 C 0.440043 -2.029018 0.878613 0
M  V30 6 N 1.552663 -1.329081 0.987882 0
M  V30 7 C 1.681289 -0.039989 0.643868 0
M  V30 8 N 2.640403 0.929690 0.585905 0
M  V30 9 C 3.647379 1.946845 0.525330 0
M  V30 10 C 3.236941 3.175347 1.282054 0
M  V30 11 C 2.469725 4.241175 0.864431 0
M  V30 12 C 2.105424 5.373966 1.522098 0
M  V30 13 C 2.584605 5.463895 2.807582 0
M  V30 14 N 3.353614 4.485948 3.342399 0
M  V30 15 C 3.662082 3.391359 2.606034 0
M  V30 16 C 0.532369 0.626188 0.127191 0
M  V30 17 N 0.097294 1.829139 -0.346337 0
M  V30 18 C -1.199710 1.753247 -0.688521 0
M  V30 19 N -1.687081 0.530132 -0.467555 0
M  V30 20 C -3.044415 0.115677 -0.729994 0
M  V30 21 C -3.731970 1.038605 -1.702782 0
M  V30 22 C -3.062473 -1.310551 -1.244601 0
M  V30 23 C -0.638329 -0.139545 0.022985 0
M  V30 24 N -0.628481 -1.406609 0.395865 0
M  V30 25 C -0.874901 -4.268575 -0.453121 0 CFG=2
M  V30 26 C -2.121680 -5.037344 -0.757556 0
M  V30 27 O 0.213014 -4.917313 -1.057715 0
M  V30 28 H -0.744105 -6.179802 3.707712 0
M  V30 29 H -0.995845 -4.451951 3.416711 0
M  V30 30 H 0.699893 -5.067016 3.388814 0
M  V30 31 H 0.249618 -6.133093 1.192460 0
M  V30 32 H -1.495654 -6.020893 1.534912 0
M  V30 33 H -1.490285 -3.613472 1.488027 0
M  V30 34 H 1.378503 -3.805364 1.750449 0
M  V30 35 H 3.373237 0.234537 0.948605 0
M  V30 36 H 3.822488 2.264400 -0.536170 0
M  V30 37 H 4.615711 1.681970 0.914817 0
M  V30 38 H 2.110834 4.136149 -0.157699 0
M  V30 39 H 1.485575 6.112223 1.034018 0
M  V30 40 H 2.345859 6.339906 3.407504 0
M  V30 41 H 4.284169 2.613498 3.071338 0
M  V30 42 H -1.598313 2.675983 -1.064145 0
M  V30 43 H -3.660045 0.110626 0.193861 0
M  V30 44 H -3.488729 0.750561 -2.748518 0
M  V30 45 H -4.834083 0.936536 -1.529807 0
M  V30 46 H -3.466326 2.074029 -1.478483 0
M  V30 47 H -4.034490 -1.410291 -1.791051 0
M  V30 48 H -2.251521 -1.519969 -1.939448 0
M  V30 49 H -3.125267 -2.045049 -0.412640 0
M  V30 50 H -0.976493 -3.287950 -0.948616 0
M  V30 51 H -2.044145 -6.102449 -0.553247 0
M  V30 52 H -2.278960 -4.947220 -1.867331 0
M  V30 53 H -3.023052 -4.611780 -0.299155 0
M  V30 54 H 0.745918 -4.317907 -1.632843 0
M  V30 END ATOM
M  V30 BEGIN BOND
M  V30 1 1 1 2
M  V30 2 1 2 3
M  V30 3 1 3 4
M  V30 4 1 4 5
M  V30 5 2 5 6
M  V30 6 1 6 7
M  V30 7 1 7 8
M  V30 8 1 8 9
M  V30 9 1 9 10
M  V30 10 2 10 11
M  V30 11 1 11 12
M  V30 12 2 12 13
M  V30 13 1 13 14
M  V30 14 2 14 15
M  V30 15 2 7 16
M  V30 16 1 16 17
M  V30 17 2 17 18
M  V30 18 1 18 19
M  V30 19 1 19 20
M  V30 20 1 20 21
M  V30 21 1 20 22
M  V30 22 1 19 23
M  V30 23 2 23 24
M  V30 24 1 3 25
M  V30 25 1 25 26
M  V30 26 1 25 27
M  V30 27 1 24 5
M  V30 28 1 15 10
M  V30 29 1 23 16
M  V30 30 1 1 28
M  V30 31 1 1 29
M  V30 32 1 1 30
M  V30 33 1 2 31
M  V30 34 1 2 32
M  V30 35 1 3 33 CFG=1
M  V30 36 1 4 34
M  V30 37 1 8 35
M  V30 38 1 9 36
M  V30 39 1 9 37
M  V30 40 1 11 38
M  V30 41 1 12 39
M  V30 42 1 13 40
M  V30 43 1 15 41
M  V30 44 1 18 42
M  V30 45 1 20 43
M  V30 46 1 21 44
M  V30 47 1 21 45
M  V30 48 1 21 46
M  V30 49 1 22 47
M  V30 50 1 22 48
M  V30 51 1 22 49
M  V30 52 1 25 50 CFG=3
M  V30 53 1 26 51
M  V30 54 1 26 52
M  V30 55 1 26 53
M  V30 56 1 27 54
M  V30 END BOND
M  V30 END CTAB
M  END
>  <Dataset>  (466) 
ChEMBL_Kinases

>  <Ligand_Instance>  (466) 
nan

>  <PDB_ID>  (466) 
nan

>  <Standardized_SMILES>  (466) 
CC[C@@H](Nc1nc(NCc2cccnc2)c2ncn(C(C)C)c2n1)[C@H](C)O

>  <Name>  (466) 
nan

>  <Pocket>  (466) 
nan

>  <ATP_Site>  (466) 
nan

>  <Peripheral>  (466) 
nan

>  <Num_H_Atoms_ProtBoundConf>  (466) 
nan

>  <Num_Resolved_Atoms>  (466) 
nan

>  <Num_Not_Resolved_Atoms>  (466) 
nan

$$$$
CHEMBL4755807
     RDKit          3D

  0  0  0  0  0  0  0  0  0  0999 V3000
M  V30 BEGIN CTAB
M  V30 COUNTS 43 46 0 0 0
M  V30 BEGIN ATOM
M  V30 1 C -0.560187 -2.655663 6.643850 0
M  V30 2 C 0.229107 -3.188230 5.499180 0
M  V30 3 N 1.001119 -4.291610 5.375493 0
M  V30 4 N 1.518505 -4.376403 4.173303 0
M  V30 5 C 1.101972 -3.327901 3.465241 0
M  V30 6 C 1.316862 -2.897933 2.170768 0
M  V30 7 C 0.742120 -1.731774 1.673635 0
M  V30 8 C -0.072450 -0.960971 2.476773 0
M  V30 9 C -0.657615 0.254853 1.922431 0
M  V30 10 C -1.481414 1.081725 2.653822 0
M  V30 11 N -1.970976 2.181218 2.049702 0
M  V30 12 C -1.672783 2.476514 0.769228 0
M  V30 13 C -0.837268 1.645986 0.013591 0
M  V30 14 N -0.515472 1.946605 -1.338764 0
M  V30 15 C 0.341632 1.065873 -2.061998 0
M  V30 16 C 1.721079 0.896268 -1.473892 0
M  V30 17 C 2.305589 -0.352036 -2.133630 0
M  V30 18 N 1.519531 -0.812634 -3.229800 0
M  V30 19 C 1.143670 0.196955 -4.177503 0
M  V30 20 C 0.528812 1.420754 -3.497796 0
M  V30 21 N -0.357198 0.545669 0.643821 0
M  V30 22 C -0.274909 -1.406541 3.765565 0
M  V30 23 C 0.283507 -2.555807 4.276291 0
M  V30 24 H -0.388379 -3.214577 7.577191 0
M  V30 25 H -0.373054 -1.588870 6.844091 0
M  V30 26 H -1.662640 -2.737557 6.435778 0
M  V30 27 H 2.144066 -5.153209 3.872563 0
M  V30 28 H 1.974098 -3.551481 1.576860 0
M  V30 29 H 0.962197 -1.466490 0.647116 0
M  V30 30 H -1.726132 0.860572 3.668499 0
M  V30 31 H -2.061468 3.358849 0.273652 0
M  V30 32 H -0.921321 2.803366 -1.749109 0
M  V30 33 H -0.136982 0.045248 -2.041816 0
M  V30 34 H 1.763045 0.849136 -0.388486 0
M  V30 35 H 2.334637 1.755308 -1.875098 0
M  V30 36 H 2.298165 -1.144303 -1.358435 0
M  V30 37 H 3.373866 -0.181948 -2.387109 0
M  V30 38 H 0.815843 -1.531186 -3.032642 0
M  V30 39 H 0.320059 -0.236912 -4.807003 0
M  V30 40 H 1.956298 0.471209 -4.855653 0
M  V30 41 H -0.424839 1.721394 -3.974989 0
M  V30 42 H 1.270236 2.248015 -3.611398 0
M  V30 43 H -0.895960 -0.840863 4.415470 0
M  V30 END ATOM
M  V30 BEGIN BOND
M  V30 1 1 1 2
M  V30 2 2 2 3
M  V30 3 1 3 4
M  V30 4 1 4 5
M  V30 5 2 5 6
M  V30 6 1 6 7
M  V30 7 2 7 8
M  V30 8 1 8 9
M  V30 9 2 9 10
M  V30 10 1 10 11
M  V30 11 2 11 12
M  V30 12 1 12 13
M  V30 13 1 13 14
M  V30 14 1 14 15
M  V30 15 1 15 16
M  V30 16 1 16 17
M  V30 17 1 17 18
M  V30 18 1 18 19
M  V30 19 1 19 20
M  V30 20 2 13 21
M  V30 21 1 8 22
M  V30 22 2 22 23
M  V30 23 1 23 2
M  V30 24 1 23 5
M  V30 25 1 21 9
M  V30 26 1 20 15
M  V30 27 1 1 24
M  V30 28 1 1 25
M  V30 29 1 1 26
M  V30 30 1 4 27
M  V30 31 1 6 28
M  V30 32 1 7 29
M  V30 33 1 10 30
M  V30 34 1 12 31
M  V30 35 1 14 32
M  V30 36 1 15 33
M  V30 37 1 16 34
M  V30 38 1 16 35
M  V30 39 1 17 36
M  V30 40 1 17 37
M  V30 41 1 18 38
M  V30 42 1 19 39
M  V30 43 1 19 40
M  V30 44 1 20 41
M  V30 45 1 20 42
M  V30 46 1 22 43
M  V30 END BOND
M  V30 END CTAB
M  END
>  <Dataset>  (467) 
ChEMBL_Kinases

>  <Ligand_Instance>  (467) 
nan

>  <PDB_ID>  (467) 
nan

>  <Standardized_SMILES>  (467) 
Cc1n[nH]c2ccc(-c3cncc(NC4CCNCC4)n3)cc12

>  <Name>  (467) 
nan

>  <Pocket>  (467) 
nan

>  <ATP_Site>  (467) 
nan

>  <Peripheral>  (467) 
nan

>  <Num_H_Atoms_ProtBoundConf>  (467) 
nan

>  <Num_Resolved_Atoms>  (467) 
nan

>  <Num_Not_Resolved_Atoms>  (467) 
nan

$$$$
CHEMBL4755716
     RDKit          3D

  0  0  0  0  0  0  0  0  0  0999 V3000
M  V30 BEGIN CTAB
M  V30 COUNTS 52 56 0 0 0
M  V30 BEGIN ATOM
M  V30 1 O -0.045385 -1.003453 -1.779038 0
M  V30 2 C 0.431862 -1.899450 -2.552221 0
M  V30 3 N -0.101177 -3.191882 -2.260841 0
M  V30 4 C -1.022819 -3.106109 -1.177792 0
M  V30 5 C -2.372513 -2.874565 -1.347170 0
M  V30 6 C -3.209159 -2.803472 -0.253191 0
M  V30 7 C -2.768768 -2.953832 1.045409 0
M  V30 8 C -3.613574 -2.881279 2.262341 0
M  V30 9 N -3.630571 -1.579013 2.792164 0
M  V30 10 C -4.094567 -0.502215 2.029147 0
M  V30 11 C -3.021624 0.559227 2.175023 0
M  V30 12 C -1.913756 -0.081231 2.983534 0
M  V30 13 C -2.643770 -1.205723 3.729012 0
M  V30 14 C -1.400329 -3.187368 1.192881 0
M  V30 15 C -0.538569 -3.263123 0.105652 0
M  V30 16 C 1.407995 -1.654590 -3.615136 0
M  V30 17 N 2.008663 -2.462316 -4.510467 0
M  V30 18 N 2.826606 -1.737762 -5.269032 0
M  V30 19 C 2.789338 -0.440407 -4.898592 0
M  V30 20 C 3.433605 0.701476 -5.351714 0
M  V30 21 C 3.180988 1.937480 -4.748891 0
M  V30 22 C 2.280284 2.027354 -3.689606 0
M  V30 23 C 2.020332 3.314716 -3.064979 0
M  V30 24 C 0.765607 3.594412 -2.514160 0
M  V30 25 N 0.554843 4.812445 -1.935095 0
M  V30 26 C 1.540916 5.739049 -1.891658 0
M  V30 27 N 2.750061 5.482518 -2.417053 0
M  V30 28 C 3.008017 4.289288 -3.002161 0
M  V30 29 C 1.675875 0.850855 -3.291018 0
M  V30 30 C 1.892284 -0.384214 -3.851921 0
M  V30 31 H 0.213820 -4.009068 -2.827501 0
M  V30 32 H -2.753633 -2.751450 -2.349822 0
M  V30 33 H -4.262084 -2.627812 -0.417655 0
M  V30 34 H -3.314341 -3.664919 3.002966 0
M  V30 35 H -4.636740 -3.211089 1.921774 0
M  V30 36 H -4.160254 -0.688883 0.926064 0
M  V30 37 H -5.082645 -0.090245 2.342030 0
M  V30 38 H -2.618840 0.903764 1.210135 0
M  V30 39 H -3.400294 1.435376 2.763931 0
M  V30 40 H -1.134229 -0.540382 2.341628 0
M  V30 41 H -1.424292 0.617918 3.666201 0
M  V30 42 H -1.948860 -2.052849 3.895815 0
M  V30 43 H -3.053407 -0.819900 4.695099 0
M  V30 44 H -0.913187 -3.325233 2.147841 0
M  V30 45 H 0.529569 -3.446456 0.235465 0
M  V30 46 H 3.429185 -2.092590 -6.052031 0
M  V30 47 H 4.144175 0.653044 -6.181427 0
M  V30 48 H 3.715917 2.811719 -5.143816 0
M  V30 49 H -0.036872 2.854649 -2.543568 0
M  V30 50 H 1.403263 6.717317 -1.437600 0
M  V30 51 H 4.004093 4.118779 -3.417947 0
M  V30 52 H 0.986651 0.979185 -2.465117 0
M  V30 END ATOM
M  V30 BEGIN BOND
M  V30 1 2 1 2
M  V30 2 1 2 3
M  V30 3 1 3 4
M  V30 4 2 4 5
M  V30 5 1 5 6
M  V30 6 2 6 7
M  V30 7 1 7 8
M  V30 8 1 8 9
M  V30 9 1 9 10
M  V30 10 1 10 11
M  V30 11 1 11 12
M  V30 12 1 12 13
M  V30 13 1 7 14
M  V30 14 2 14 15
M  V30 15 1 2 16
M  V30 16 2 16 17
M  V30 17 1 17 18
M  V30 18 1 18 19
M  V30 19 2 19 20
M  V30 20 1 20 21
M  V30 21 2 21 22
M  V30 22 1 22 23
M  V30 23 2 23 24
M  V30 24 1 24 25
M  V30 25 2 25 26
M  V30 26 1 26 27
M  V30 27 2 27 28
M  V30 28 1 22 29
M  V30 29 2 29 30
M  V30 30 1 15 4
M  V30 31 1 30 16
M  V30 32 1 13 9
M  V30 33 1 30 19
M  V30 34 1 28 23
M  V30 35 1 3 31
M  V30 36 1 5 32
M  V30 37 1 6 33
M  V30 38 1 8 34
M  V30 39 1 8 35
M  V30 40 1 10 36
M  V30 41 1 10 37
M  V30 42 1 11 38
M  V30 43 1 11 39
M  V30 44 1 12 40
M  V30 45 1 12 41
M  V30 46 1 13 42
M  V30 47 1 13 43
M  V30 48 1 14 44
M  V30 49 1 15 45
M  V30 50 1 18 46
M  V30 51 1 20 47
M  V30 52 1 21 48
M  V30 53 1 24 49
M  V30 54 1 26 50
M  V30 55 1 28 51
M  V30 56 1 29 52
M  V30 END BOND
M  V30 END CTAB
M  END
>  <Dataset>  (468) 
ChEMBL_Kinases

>  <Ligand_Instance>  (468) 
nan

>  <PDB_ID>  (468) 
nan

>  <Standardized_SMILES>  (468) 
O=C(Nc1ccc(CN2CCCC2)cc1)c1n[nH]c2ccc(-c3cncnc3)cc12

>  <Name>  (468) 
nan

>  <Pocket>  (468) 
nan

>  <ATP_Site>  (468) 
nan

>  <Peripheral>  (468) 
nan

>  <Num_H_Atoms_ProtBoundConf>  (468) 
nan

>  <Num_Resolved_Atoms>  (468) 
nan

>  <Num_Not_Resolved_Atoms>  (468) 
nan

$$$$
CHEMBL4755713
     RDKit          3D

  0  0  0  0  0  0  0  0  0  0999 V3000
M  V30 BEGIN CTAB
M  V30 COUNTS 55 60 0 0 0
M  V30 BEGIN ATOM
M  V30 1 C 5.373491 -0.565617 4.101825 0
M  V30 2 C 5.089089 -1.463202 2.920282 0
M  V30 3 C 4.778296 -2.844147 3.462949 0
M  V30 4 N 3.973111 -0.923591 2.174077 0
M  V30 5 C 3.977018 0.341176 1.533136 0
M  V30 6 C 5.051489 1.203029 1.534122 0
M  V30 7 N 5.042147 2.410334 0.921042 0
M  V30 8 C 3.920618 2.821226 0.258493 0
M  V30 9 C 2.806231 2.009873 0.215662 0
M  V30 10 C 1.557906 2.349272 -0.462480 0
M  V30 11 C 1.364246 3.534136 -1.139319 0
M  V30 12 C 0.191666 3.875404 -1.787635 0
M  V30 13 C -0.850640 2.973817 -1.755551 0
M  V30 14 N -2.094063 2.934294 -2.240295 0
M  V30 15 N -2.715804 1.812443 -1.926246 0
M  V30 16 C -1.832380 1.087433 -1.201615 0
M  V30 17 C -2.077555 -0.235653 -0.632942 0
M  V30 18 N -3.219704 -0.941279 -0.739976 0
M  V30 19 C -3.075154 -2.097749 -0.097258 0
M  V30 20 C -3.848249 -3.217548 0.154614 0
M  V30 21 C -5.209939 -3.242423 -0.385287 0
M  V30 22 C -5.494841 -2.857486 -1.678875 0
M  V30 23 C -6.810175 -2.908685 -2.118136 0
M  V30 24 C -7.765798 -3.350544 -1.212652 0
M  V30 25 N -7.466875 -3.724520 0.054144 0
M  V30 26 C -6.190445 -3.678535 0.491585 0
M  V30 27 C -3.385679 -4.303246 0.890605 0
M  V30 28 C -2.078864 -4.215499 1.376493 0
M  V30 29 N -1.285529 -3.135910 1.153157 0
M  V30 30 C -1.813853 -2.142204 0.436949 0
M  V30 31 N -1.206458 -0.980420 0.096636 0
M  V30 32 C -0.651737 1.790580 -1.077406 0
M  V30 33 N 0.501557 1.510680 -0.467913 0
M  V30 34 C 2.879981 0.792658 0.859962 0
M  V30 35 H 4.754160 0.341000 4.008515 0
M  V30 36 H 6.443832 -0.268792 4.052074 0
M  V30 37 H 5.138625 -1.089975 5.053953 0
M  V30 38 H 5.996521 -1.561331 2.261379 0
M  V30 39 H 5.716741 -3.413362 3.651463 0
M  V30 40 H 4.296513 -3.390391 2.600429 0
M  V30 41 H 4.162375 -2.831178 4.360805 0
M  V30 42 H 3.115503 -1.512451 2.110509 0
M  V30 43 H 5.965575 0.929839 2.039232 0
M  V30 44 H 3.878704 3.778987 -0.241844 0
M  V30 45 H 2.144517 4.260585 -1.189343 0
M  V30 46 H 0.085645 4.816808 -2.305928 0
M  V30 47 H -2.539003 3.710673 -2.812881 0
M  V30 48 H -4.717774 -2.524639 -2.335039 0
M  V30 49 H -7.107076 -2.626157 -3.107274 0
M  V30 50 H -8.820033 -3.431351 -1.444244 0
M  V30 51 H -6.006821 -3.990102 1.517457 0
M  V30 52 H -4.010847 -5.161563 1.070457 0
M  V30 53 H -1.751485 -5.075282 1.943521 0
M  V30 54 H -0.237694 -0.654059 0.324877 0
M  V30 55 H 2.004001 0.133704 0.836984 0
M  V30 END ATOM
M  V30 BEGIN BOND
M  V30 1 1 1 2
M  V30 2 1 2 3
M  V30 3 1 2 4
M  V30 4 1 4 5
M  V30 5 2 5 6
M  V30 6 1 6 7
M  V30 7 2 7 8
M  V30 8 1 8 9
M  V30 9 1 9 10
M  V30 10 2 10 11
M  V30 11 1 11 12
M  V30 12 2 12 13
M  V30 13 1 13 14
M  V30 14 1 14 15
M  V30 15 2 15 16
M  V30 16 1 16 17
M  V30 17 2 17 18
M  V30 18 1 18 19
M  V30 19 2 19 20
M  V30 20 1 20 21
M  V30 21 2 21 22
M  V30 22 1 22 23
M  V30 23 2 23 24
M  V30 24 1 24 25
M  V30 25 2 25 26
M  V30 26 1 20 27
M  V30 27 2 27 28
M  V30 28 1 28 29
M  V30 29 2 29 30
M  V30 30 1 30 31
M  V30 31 1 16 32
M  V30 32 2 32 33
M  V30 33 2 9 34
M  V30 34 1 34 5
M  V30 35 1 33 10
M  V30 36 1 32 13
M  V30 37 1 31 17
M  V30 38 1 30 19
M  V30 39 1 26 21
M  V30 40 1 1 35
M  V30 41 1 1 36
M  V30 42 1 1 37
M  V30 43 1 2 38
M  V30 44 1 3 39
M  V30 45 1 3 40
M  V30 46 1 3 41
M  V30 47 1 4 42
M  V30 48 1 6 43
M  V30 49 1 8 44
M  V30 50 1 11 45
M  V30 51 1 12 46
M  V30 52 1 14 47
M  V30 53 1 22 48
M  V30 54 1 23 49
M  V30 55 1 24 50
M  V30 56 1 26 51
M  V30 57 1 27 52
M  V30 58 1 28 53
M  V30 59 1 31 54
M  V30 60 1 34 55
M  V30 END BOND
M  V30 END CTAB
M  END
>  <Dataset>  (469) 
ChEMBL_Kinases

>  <Ligand_Instance>  (469) 
nan

>  <PDB_ID>  (469) 
nan

>  <Standardized_SMILES>  (469) 
CC(C)Nc1cncc(-c2ccc3[nH]nc(-c4nc5c(-c6cccnc6)ccnc5[nH]4)c3n2)c1

>  <Name>  (469) 
nan

>  <Pocket>  (469) 
nan

>  <ATP_Site>  (469) 
nan

>  <Peripheral>  (469) 
nan

>  <Num_H_Atoms_ProtBoundConf>  (469) 
nan

>  <Num_Resolved_Atoms>  (469) 
nan

>  <Num_Not_Resolved_Atoms>  (469) 
nan

$$$$
CHEMBL273160
     RDKit          3D

  0  0  0  0  0  0  0  0  0  0999 V3000
M  V30 BEGIN CTAB
M  V30 COUNTS 71 77 0 0 0
M  V30 BEGIN ATOM
M  V30 1 O 8.084301 -0.107851 5.552968 0
M  V30 2 C 7.012282 -0.526242 5.047571 0
M  V30 3 O 6.851814 -1.892428 5.160568 0
M  V30 4 C 6.073376 0.393969 4.418028 0
M  V30 5 C 6.394542 1.730081 4.397678 0
M  V30 6 C 5.548955 2.678399 3.816162 0
M  V30 7 C 4.359271 2.268483 3.248277 0
M  V30 8 N 3.524065 3.149303 2.683558 0
M  V30 9 C 2.355905 2.738770 2.128207 0
M  V30 10 C 1.370516 3.608394 1.485411 0
M  V30 11 C 1.857918 4.282503 0.360873 0
M  V30 12 C 0.919220 5.113265 -0.254248 0
M  V30 13 C -0.379659 5.295765 0.158777 0
M  V30 14 C -0.781230 4.586480 1.286582 0
M  V30 15 C 0.080982 3.744736 1.953607 0
M  V30 16 C 2.059484 1.372137 2.166734 0
M  V30 17 C 0.832676 0.763995 1.613688 0
M  V30 18 C 0.045607 0.048077 2.506923 0
M  V30 19 C -1.114869 -0.538339 2.042616 0
M  V30 20 C -1.466444 -0.403127 0.714715 0
M  V30 21 C -2.729359 -1.053415 0.239850 0
M  V30 22 N -2.414338 -2.349923 -0.214573 0
M  V30 23 C -1.509132 -2.448193 -1.291417 0
M  V30 24 C -1.287312 -3.896088 -1.622634 0
M  V30 25 C -2.559306 -4.709216 -1.472999 0
M  V30 26 N -3.704581 -4.140386 -2.083129 0
M  V30 27 C -4.883080 -3.671765 -1.635659 0
M  V30 28 O -5.232572 -3.655544 -0.428576 0
M  V30 29 N -5.703551 -3.200782 -2.592775 0
M  V30 30 C -5.026277 -3.366802 -3.746606 0
M  V30 31 C -5.458078 -3.034258 -5.012563 0
M  V30 32 C -4.603821 -3.292905 -6.065764 0
M  V30 33 C -3.369358 -3.864368 -5.834524 0
M  V30 34 C -3.025574 -4.160849 -4.553520 0
M  V30 35 C -3.799106 -3.945181 -3.430718 0
M  V30 36 C -2.758466 -4.770331 0.027915 0
M  V30 37 C -2.518404 -3.435334 0.680842 0
M  V30 38 C -0.661479 0.314488 -0.145213 0
M  V30 39 C 0.505826 0.916080 0.276543 0
M  V30 40 N 2.935337 0.524149 2.748164 0
M  V30 41 C 4.102440 0.921287 3.305654 0
M  V30 42 C 4.904472 -0.048911 3.866213 0
M  V30 43 H 6.902771 -2.362650 6.066860 0
M  V30 44 H 7.339465 2.064646 4.847175 0
M  V30 45 H 5.861113 3.725215 3.832255 0
M  V30 46 H 2.870688 4.168775 0.002015 0
M  V30 47 H 1.277896 5.652566 -1.139551 0
M  V30 48 H -0.992794 5.973186 -0.421666 0
M  V30 49 H -1.816937 4.745803 1.598186 0
M  V30 50 H -0.248869 3.203896 2.824106 0
M  V30 51 H 0.335680 -0.051537 3.550574 0
M  V30 52 H -1.753530 -1.101408 2.702511 0
M  V30 53 H -3.039250 -0.443540 -0.659795 0
M  V30 54 H -3.498632 -0.977711 1.001379 0
M  V30 55 H -0.522014 -2.031760 -0.998662 0
M  V30 56 H -1.845574 -1.848194 -2.152546 0
M  V30 57 H -0.588132 -4.283019 -0.816594 0
M  V30 58 H -0.725049 -4.074304 -2.539487 0
M  V30 59 H -2.323811 -5.719240 -1.883583 0
M  V30 60 H -6.655338 -2.797105 -2.468165 0
M  V30 61 H -6.419816 -2.587476 -5.183777 0
M  V30 62 H -4.953116 -3.028566 -7.053551 0
M  V30 63 H -2.707607 -4.064393 -6.671278 0
M  V30 64 H -2.050134 -4.612511 -4.425594 0
M  V30 65 H -1.975070 -5.511927 0.383048 0
M  V30 66 H -3.701849 -5.171162 0.363999 0
M  V30 67 H -3.273046 -3.236950 1.442260 0
M  V30 68 H -1.544635 -3.502169 1.239271 0
M  V30 69 H -0.956130 0.407252 -1.184895 0
M  V30 70 H 1.169081 1.487256 -0.362126 0
M  V30 71 H 4.638921 -1.090523 3.874018 0
M  V30 END ATOM
M  V30 BEGIN BOND
M  V30 1 2 1 2
M  V30 2 1 2 3
M  V30 3 1 2 4
M  V30 4 2 4 5
M  V30 5 1 5 6
M  V30 6 2 6 7
M  V30 7 1 7 8
M  V30 8 2 8 9
M  V30 9 1 9 10
M  V30 10 2 10 11
M  V30 11 1 11 12
M  V30 12 2 12 13
M  V30 13 1 13 14
M  V30 14 2 14 15
M  V30 15 1 9 16
M  V30 16 1 16 17
M  V30 17 2 17 18
M  V30 18 1 18 19
M  V30 19 2 19 20
M  V30 20 1 20 21
M  V30 21 1 21 22
M  V30 22 1 22 23
M  V30 23 1 23 24
M  V30 24 1 24 25
M  V30 25 1 25 26
M  V30 26 1 26 27
M  V30 27 2 27 28
M  V30 28 1 27 29
M  V30 29 1 29 30
M  V30 30 2 30 31
M  V30 31 1 31 32
M  V30 32 2 32 33
M  V30 33 1 33 34
M  V30 34 2 34 35
M  V30 35 1 25 36
M  V30 36 1 36 37
M  V30 37 1 20 38
M  V30 38 2 38 39
M  V30 39 2 16 40
M  V30 40 1 40 41
M  V30 41 2 41 42
M  V30 42 1 42 4
M  V30 43 1 41 7
M  V30 44 1 15 10
M  V30 45 1 39 17
M  V30 46 1 37 22
M  V30 47 1 35 26
M  V30 48 1 35 30
M  V30 49 1 3 43
M  V30 50 1 5 44
M  V30 51 1 6 45
M  V30 52 1 11 46
M  V30 53 1 12 47
M  V30 54 1 13 48
M  V30 55 1 14 49
M  V30 56 1 15 50
M  V30 57 1 18 51
M  V30 58 1 19 52
M  V30 59 1 21 53
M  V30 60 1 21 54
M  V30 61 1 23 55
M  V30 62 1 23 56
M  V30 63 1 24 57
M  V30 64 1 24 58
M  V30 65 1 25 59
M  V30 66 1 29 60
M  V30 67 1 31 61
M  V30 68 1 32 62
M  V30 69 1 33 63
M  V30 70 1 34 64
M  V30 71 1 36 65
M  V30 72 1 36 66
M  V30 73 1 37 67
M  V30 74 1 37 68
M  V30 75 1 38 69
M  V30 76 1 39 70
M  V30 77 1 42 71
M  V30 END BOND
M  V30 END CTAB
M  END
>  <Dataset>  (470) 
ChEMBL_Kinases

>  <Ligand_Instance>  (470) 
nan

>  <PDB_ID>  (470) 
nan

>  <Standardized_SMILES>  (470) 
O=C(O)c1ccc2nc(-c3ccccc3)c(-c3ccc(CN4CCC(n5c(=O)[nH]c6ccccc65)CC4)cc3)nc2c1

>  <Name>  (470) 
nan

>  <Pocket>  (470) 
nan

>  <ATP_Site>  (470) 
nan

>  <Peripheral>  (470) 
nan

>  <Num_H_Atoms_ProtBoundConf>  (470) 
nan

>  <Num_Resolved_Atoms>  (470) 
nan

>  <Num_Not_Resolved_Atoms>  (470) 
nan

$$$$
CHEMBL4755660
     RDKit          3D

  0  0  0  0  0  0  0  0  0  0999 V3000
M  V30 BEGIN CTAB
M  V30 COUNTS 63 68 0 0 0
M  V30 BEGIN ATOM
M  V30 1 O 2.244707 2.803225 2.816295 0
M  V30 2 C 1.173543 2.203691 2.458530 0
M  V30 3 N 1.559935 1.016998 1.811724 0
M  V30 4 C 2.918187 0.572443 1.598624 0 CFG=1
M  V30 5 C 3.229004 -0.905289 1.765813 0
M  V30 6 C 3.180462 -0.311933 0.400591 0 CFG=2
M  V30 7 C 4.412044 -0.146794 -0.395765 0
M  V30 8 C 5.638029 0.202732 0.165612 0
M  V30 9 C 6.758632 0.342922 -0.632123 0
M  V30 10 C 6.676964 0.137397 -2.002330 0
M  V30 11 C 5.495490 -0.208859 -2.612292 0
M  V30 12 C 4.420898 -0.332021 -1.764684 0
M  V30 13 C -0.089277 2.821825 2.769377 0
M  V30 14 N -0.032595 3.997373 3.424153 0
M  V30 15 N -1.284453 4.423655 3.628510 0
M  V30 16 C -2.197944 3.593332 3.143308 0
M  V30 17 C -3.570912 3.526808 3.070559 0
M  V30 18 C -4.152374 2.425773 2.443437 0
M  V30 19 C -3.358493 1.425169 1.907979 0
M  V30 20 C -3.965808 0.254615 1.241683 0
M  V30 21 C -5.172109 0.433669 0.568011 0
M  V30 22 N -5.711118 -0.650919 -0.035330 0
M  V30 23 C -5.127653 -1.862815 -0.001601 0
M  V30 24 C -3.928985 -2.085279 0.656237 0
M  V30 25 C -3.265830 -3.407533 0.708636 0
M  V30 26 N -2.363788 -3.674705 -0.324647 0
M  V30 27 C -2.779614 -3.680822 -1.661715 0
M  V30 28 C -1.630587 -3.317790 -2.611654 0
M  V30 29 C -0.586298 -4.377803 -2.470360 0
M  V30 30 C -0.526158 -4.978183 -1.104199 0
M  V30 31 C -1.032779 -4.022908 -0.031940 0
M  V30 32 C -3.353891 -0.987921 1.284428 0
M  V30 33 C -1.989183 1.506198 1.988691 0
M  V30 34 C -1.431473 2.585011 2.602841 0
M  V30 35 H 0.792910 0.439627 1.474236 0
M  V30 36 H 3.719514 1.218485 1.983047 0
M  V30 37 H 4.194619 -1.212247 2.216293 0
M  V30 38 H 2.380227 -1.483694 2.158096 0
M  V30 39 H 2.265744 -0.592842 -0.160816 0
M  V30 40 H 5.690141 0.361278 1.240486 0
M  V30 41 H 7.708373 0.618990 -0.158170 0
M  V30 42 H 7.569353 0.249788 -2.632196 0
M  V30 43 H 5.380197 -0.379759 -3.674280 0
M  V30 44 H 3.459615 -0.608385 -2.220932 0
M  V30 45 H -1.493252 5.330013 4.126790 0
M  V30 46 H -4.139032 4.332162 3.503495 0
M  V30 47 H -5.236628 2.362384 2.379899 0
M  V30 48 H -5.655721 1.415675 0.534224 0
M  V30 49 H -5.597600 -2.721317 -0.504956 0
M  V30 50 H -2.737594 -3.493636 1.674542 0
M  V30 51 H -4.053936 -4.206976 0.719556 0
M  V30 52 H -3.034392 -4.736053 -1.940901 0
M  V30 53 H -3.598255 -3.022943 -1.936095 0
M  V30 54 H -2.017553 -3.329990 -3.665840 0
M  V30 55 H -1.249718 -2.316863 -2.332276 0
M  V30 56 H -0.793248 -5.171876 -3.228531 0
M  V30 57 H 0.394427 -3.922766 -2.783947 0
M  V30 58 H 0.511716 -5.274294 -0.876697 0
M  V30 59 H -1.125455 -5.928820 -1.070002 0
M  V30 60 H -0.309269 -3.203330 0.089295 0
M  V30 61 H -0.999013 -4.602135 0.916776 0
M  V30 62 H -2.418346 -1.097941 1.814324 0
M  V30 63 H -1.419862 0.723636 1.568472 0
M  V30 END ATOM
M  V30 BEGIN BOND
M  V30 1 2 1 2
M  V30 2 1 2 3
M  V30 3 1 3 4
M  V30 4 1 4 5
M  V30 5 1 5 6
M  V30 6 1 6 7
M  V30 7 2 7 8
M  V30 8 1 8 9
M  V30 9 2 9 10
M  V30 10 1 10 11
M  V30 11 2 11 12
M  V30 12 1 2 13
M  V30 13 2 13 14
M  V30 14 1 14 15
M  V30 15 1 15 16
M  V30 16 2 16 17
M  V30 17 1 17 18
M  V30 18 2 18 19
M  V30 19 1 19 20
M  V30 20 2 20 21
M  V30 21 1 21 22
M  V30 22 2 22 23
M  V30 23 1 23 24
M  V30 24 1 24 25
M  V30 25 1 25 26
M  V30 26 1 26 27
M  V30 27 1 27 28
M  V30 28 1 28 29
M  V30 29 1 29 30
M  V30 30 1 30 31
M  V30 31 2 24 32
M  V30 32 1 19 33
M  V30 33 2 33 34
M  V30 34 1 6 4
M  V30 35 1 12 7
M  V30 36 1 34 13
M  V30 37 1 34 16
M  V30 38 1 32 20
M  V30 39 1 31 26
M  V30 40 1 3 35
M  V30 41 1 4 36 CFG=1
M  V30 42 1 5 37
M  V30 43 1 5 38
M  V30 44 1 6 39 CFG=3
M  V30 45 1 8 40
M  V30 46 1 9 41
M  V30 47 1 10 42
M  V30 48 1 11 43
M  V30 49 1 12 44
M  V30 50 1 15 45
M  V30 51 1 17 46
M  V30 52 1 18 47
M  V30 53 1 21 48
M  V30 54 1 23 49
M  V30 55 1 25 50
M  V30 56 1 25 51
M  V30 57 1 27 52
M  V30 58 1 27 53
M  V30 59 1 28 54
M  V30 60 1 28 55
M  V30 61 1 29 56
M  V30 62 1 29 57
M  V30 63 1 30 58
M  V30 64 1 30 59
M  V30 65 1 31 60
M  V30 66 1 31 61
M  V30 67 1 32 62
M  V30 68 1 33 63
M  V30 END BOND
M  V30 END CTAB
M  END
>  <Dataset>  (471) 
ChEMBL_Kinases

>  <Ligand_Instance>  (471) 
nan

>  <PDB_ID>  (471) 
nan

>  <Standardized_SMILES>  (471) 
O=C(N[C@H]1C[C@@H]1c1ccccc1)c1n[nH]c2ccc(-c3cncc(CN4CCCCC4)c3)cc12

>  <Name>  (471) 
nan

>  <Pocket>  (471) 
nan

>  <ATP_Site>  (471) 
nan

>  <Peripheral>  (471) 
nan

>  <Num_H_Atoms_ProtBoundConf>  (471) 
nan

>  <Num_Resolved_Atoms>  (471) 
nan

>  <Num_Not_Resolved_Atoms>  (471) 
nan

$$$$
CHEMBL4755642
     RDKit          3D

  0  0  0  0  0  0  0  0  0  0999 V3000
M  V30 BEGIN CTAB
M  V30 COUNTS 52 55 0 0 0
M  V30 BEGIN ATOM
M  V30 1 C 2.394631 -3.413475 6.646520 0
M  V30 2 N 3.626282 -2.692065 6.687517 0
M  V30 3 C 3.461522 -1.353127 7.183971 0
M  V30 4 C 4.465460 -2.832907 5.545300 0
M  V30 5 C 3.846708 -2.386885 4.283622 0
M  V30 6 C 3.944791 -1.093530 3.817534 0
M  V30 7 C 3.360300 -0.671075 2.624518 0
M  V30 8 C 2.654830 -1.583297 1.878965 0
M  V30 9 C 1.977242 -1.295209 0.596087 0
M  V30 10 O 1.329361 -2.116344 -0.103567 0
M  V30 11 N 2.000845 0.010079 0.008750 0
M  V30 12 C 1.271801 -0.004324 -1.215838 0
M  V30 13 C -0.091953 0.287024 -1.114913 0
M  V30 14 C -0.840429 0.286991 -2.268088 0
M  V30 15 C -2.192254 0.572063 -2.199684 0
M  V30 16 C -3.020305 0.595362 -3.301790 0
M  V30 17 C -4.433568 0.906883 -3.128735 0
M  V30 18 C -5.076849 0.534870 -1.952408 0
M  V30 19 N -6.356923 0.946260 -2.073190 0
M  V30 20 N -6.560371 1.544893 -3.232179 0
M  V30 21 C -7.806132 2.114557 -3.709387 0
M  V30 22 C -5.399315 1.531393 -3.891295 0
M  V30 23 C -2.423844 0.313955 -4.509364 0
M  V30 24 C -1.087105 0.023104 -4.644856 0
M  V30 25 C -0.319333 0.017747 -3.499396 0
M  V30 26 C 1.043850 -0.266805 -3.550230 0
M  V30 27 N 1.802366 -0.272792 -2.427536 0
M  V30 28 C 2.511561 -2.904460 2.282568 0
M  V30 29 C 3.117534 -3.258324 3.478409 0
M  V30 30 H 1.735925 -2.948666 7.433894 0
M  V30 31 H 1.849550 -3.287887 5.675377 0
M  V30 32 H 2.500894 -4.472379 6.940685 0
M  V30 33 H 2.585222 -1.365399 7.871376 0
M  V30 34 H 4.328657 -1.033752 7.794357 0
M  V30 35 H 3.194019 -0.623242 6.391509 0
M  V30 36 H 4.747267 -3.925899 5.495553 0
M  V30 37 H 5.423624 -2.317476 5.762875 0
M  V30 38 H 4.497011 -0.355952 4.389210 0
M  V30 39 H 3.424648 0.337241 2.240489 0
M  V30 40 H 2.503971 0.791751 0.482034 0
M  V30 41 H -0.570006 0.509393 -0.170831 0
M  V30 42 H -2.617426 0.788626 -1.215864 0
M  V30 43 H -4.714901 0.017507 -1.060561 0
M  V30 44 H -8.650363 1.421072 -3.518282 0
M  V30 45 H -8.053227 3.047711 -3.167087 0
M  V30 46 H -7.714323 2.378336 -4.780924 0
M  V30 47 H -5.141094 1.913942 -4.861178 0
M  V30 48 H -3.058432 0.326989 -5.391718 0
M  V30 49 H -0.640551 -0.195880 -5.613004 0
M  V30 50 H 1.536579 -0.491974 -4.492763 0
M  V30 51 H 1.975471 -3.664689 1.748807 0
M  V30 52 H 3.021122 -4.286479 3.818428 0
M  V30 END ATOM
M  V30 BEGIN BOND
M  V30 1 1 1 2
M  V30 2 1 2 3
M  V30 3 1 2 4
M  V30 4 1 4 5
M  V30 5 2 5 6
M  V30 6 1 6 7
M  V30 7 2 7 8
M  V30 8 1 8 9
M  V30 9 2 9 10
M  V30 10 1 9 11
M  V30 11 1 11 12
M  V30 12 2 12 13
M  V30 13 1 13 14
M  V30 14 2 14 15
M  V30 15 1 15 16
M  V30 16 1 16 17
M  V30 17 1 17 18
M  V30 18 2 18 19
M  V30 19 1 19 20
M  V30 20 1 20 21
M  V30 21 1 20 22
M  V30 22 2 16 23
M  V30 23 1 23 24
M  V30 24 2 24 25
M  V30 25 1 25 26
M  V30 26 2 26 27
M  V30 27 1 8 28
M  V30 28 2 28 29
M  V30 29 1 29 5
M  V30 30 1 27 12
M  V30 31 1 25 14
M  V30 32 2 22 17
M  V30 33 1 1 30
M  V30 34 1 1 31
M  V30 35 1 1 32
M  V30 36 1 3 33
M  V30 37 1 3 34
M  V30 38 1 3 35
M  V30 39 1 4 36
M  V30 40 1 4 37
M  V30 41 1 6 38
M  V30 42 1 7 39
M  V30 43 1 11 40
M  V30 44 1 13 41
M  V30 45 1 15 42
M  V30 46 1 18 43
M  V30 47 1 21 44
M  V30 48 1 21 45
M  V30 49 1 21 46
M  V30 50 1 22 47
M  V30 51 1 23 48
M  V30 52 1 24 49
M  V30 53 1 26 50
M  V30 54 1 28 51
M  V30 55 1 29 52
M  V30 END BOND
M  V30 END CTAB
M  END
>  <Dataset>  (472) 
ChEMBL_Kinases

>  <Ligand_Instance>  (472) 
nan

>  <PDB_ID>  (472) 
nan

>  <Standardized_SMILES>  (472) 
CN(C)Cc1ccc(C(=O)Nc2cc3cc(-c4cnn(C)c4)ccc3cn2)cc1

>  <Name>  (472) 
nan

>  <Pocket>  (472) 
nan

>  <ATP_Site>  (472) 
nan

>  <Peripheral>  (472) 
nan

>  <Num_H_Atoms_ProtBoundConf>  (472) 
nan

>  <Num_Resolved_Atoms>  (472) 
nan

>  <Num_Not_Resolved_Atoms>  (472) 
nan

$$$$
CHEMBL4755029
     RDKit          3D

  0  0  0  0  0  0  0  0  0  0999 V3000
M  V30 BEGIN CTAB
M  V30 COUNTS 61 66 0 0 0
M  V30 BEGIN ATOM
M  V30 1 C 1.708887 -1.956792 5.865204 0
M  V30 2 C 1.450707 -2.648493 4.533306 0
M  V30 3 C 2.014028 -4.052489 4.628599 0
M  V30 4 C -0.025399 -2.766377 4.344056 0
M  V30 5 C 2.154090 -1.912739 3.456450 0
M  V30 6 O 2.737254 -0.944411 4.043896 0
M  V30 7 N 2.092140 -2.329179 2.098855 0
M  V30 8 C 2.792664 -1.583963 1.078069 0
M  V30 9 C 4.091287 -1.957321 0.798279 0
M  V30 10 N 4.779209 -1.284016 -0.149730 0
M  V30 11 C 4.240445 -0.255695 -0.835557 0
M  V30 12 C 2.944679 0.148297 -0.585292 0
M  V30 13 C 2.307165 1.270543 -1.310232 0
M  V30 14 C 3.049938 2.352092 -1.758670 0
M  V30 15 C 2.402440 3.379148 -2.433612 0
M  V30 16 C 1.031354 3.355613 -2.673362 0
M  V30 17 N 0.189877 4.191880 -3.280876 0
M  V30 18 N -1.012426 3.643999 -3.205655 0
M  V30 19 C -0.954974 2.466691 -2.557990 0
M  V30 20 C -2.110187 1.598818 -2.300825 0
M  V30 21 N -2.148452 0.428421 -1.674716 0
M  V30 22 C -3.425073 -0.056081 -1.647190 0
M  V30 23 C -4.045015 -1.185188 -1.150314 0
M  V30 24 C -3.251584 -2.179341 -0.466011 0
M  V30 25 C -3.386116 -3.535119 -0.707063 0
M  V30 26 C -2.580781 -4.399640 -0.000063 0
M  V30 27 C -1.648623 -4.018741 0.931398 0
M  V30 28 N -1.515337 -2.692982 1.168792 0
M  V30 29 C -2.301400 -1.849724 0.478753 0
M  V30 30 C -5.406181 -1.281594 -1.348316 0
M  V30 31 N -6.152515 -0.351555 -1.988451 0
M  V30 32 C -5.551148 0.766465 -2.482724 0
M  V30 33 C -4.184129 0.900818 -2.304210 0
M  V30 34 N -3.363541 1.903478 -2.695912 0
M  V30 35 C 0.358822 2.240579 -2.193824 0
M  V30 36 C 0.943521 1.185555 -1.515196 0
M  V30 37 C 2.199862 -0.526035 0.390958 0
M  V30 38 H 1.227740 -0.941090 5.862209 0
M  V30 39 H 1.293868 -2.528656 6.698325 0
M  V30 40 H 2.793188 -1.753985 5.981619 0
M  V30 41 H 3.093625 -4.087367 4.814446 0
M  V30 42 H 1.431521 -4.569348 5.428696 0
M  V30 43 H 1.724260 -4.576637 3.687499 0
M  V30 44 H -0.490046 -1.875482 3.875531 0
M  V30 45 H -0.287115 -3.719868 3.854003 0
M  V30 46 H -0.490601 -2.842151 5.366715 0
M  V30 47 H 1.516619 -3.185749 1.928607 0
M  V30 48 H 4.635522 -2.763297 1.277665 0
M  V30 49 H 4.823940 0.255336 -1.583767 0
M  V30 50 H 4.095020 2.313452 -1.545084 0
M  V30 51 H 3.022425 4.200736 -2.764180 0
M  V30 52 H 0.535293 5.084545 -3.700582 0
M  V30 53 H -4.121515 -3.849471 -1.443263 0
M  V30 54 H -2.751123 -5.457084 -0.251377 0
M  V30 55 H -1.099282 -4.848204 1.393616 0
M  V30 56 H -2.118107 -0.796041 0.742661 0
M  V30 57 H -5.904739 -2.173892 -0.957019 0
M  V30 58 H -6.170431 1.490089 -2.988265 0
M  V30 59 H -3.690676 2.763243 -3.221026 0
M  V30 60 H 0.301085 0.384533 -1.200010 0
M  V30 61 H 1.176224 -0.249147 0.627586 0
M  V30 END ATOM
M  V30 BEGIN BOND
M  V30 1 1 1 2
M  V30 2 1 2 3
M  V30 3 1 2 4
M  V30 4 1 2 5
M  V30 5 2 5 6
M  V30 6 1 5 7
M  V30 7 1 7 8
M  V30 8 2 8 9
M  V30 9 1 9 10
M  V30 10 2 10 11
M  V30 11 1 11 12
M  V30 12 1 12 13
M  V30 13 2 13 14
M  V30 14 1 14 15
M  V30 15 2 15 16
M  V30 16 1 16 17
M  V30 17 1 17 18
M  V30 18 2 18 19
M  V30 19 1 19 20
M  V30 20 2 20 21
M  V30 21 1 21 22
M  V30 22 2 22 23
M  V30 23 1 23 24
M  V30 24 2 24 25
M  V30 25 1 25 26
M  V30 26 2 26 27
M  V30 27 1 27 28
M  V30 28 2 28 29
M  V30 29 1 23 30
M  V30 30 2 30 31
M  V30 31 1 31 32
M  V30 32 2 32 33
M  V30 33 1 33 34
M  V30 34 1 19 35
M  V30 35 2 35 36
M  V30 36 2 12 37
M  V30 37 1 37 8
M  V30 38 1 36 13
M  V30 39 1 35 16
M  V30 40 1 34 20
M  V30 41 1 33 22
M  V30 42 1 29 24
M  V30 43 1 1 38
M  V30 44 1 1 39
M  V30 45 1 1 40
M  V30 46 1 3 41
M  V30 47 1 3 42
M  V30 48 1 3 43
M  V30 49 1 4 44
M  V30 50 1 4 45
M  V30 51 1 4 46
M  V30 52 1 7 47
M  V30 53 1 9 48
M  V30 54 1 11 49
M  V30 55 1 14 50
M  V30 56 1 15 51
M  V30 57 1 17 52
M  V30 58 1 25 53
M  V30 59 1 26 54
M  V30 60 1 27 55
M  V30 61 1 29 56
M  V30 62 1 30 57
M  V30 63 1 32 58
M  V30 64 1 34 59
M  V30 65 1 36 60
M  V30 66 1 37 61
M  V30 END BOND
M  V30 END CTAB
M  END
>  <Dataset>  (473) 
ChEMBL_Kinases

>  <Ligand_Instance>  (473) 
nan

>  <PDB_ID>  (473) 
nan

>  <Standardized_SMILES>  (473) 
CC(C)(C)C(=O)Nc1cncc(-c2ccc3[nH]nc(-c4nc5c(-c6cccnc6)cncc5[nH]4)c3c2)c1

>  <Name>  (473) 
nan

>  <Pocket>  (473) 
nan

>  <ATP_Site>  (473) 
nan

>  <Peripheral>  (473) 
nan

>  <Num_H_Atoms_ProtBoundConf>  (473) 
nan

>  <Num_Resolved_Atoms>  (473) 
nan

>  <Num_Not_Resolved_Atoms>  (473) 
nan

$$$$
CHEMBL4755579
     RDKit          3D

  0  0  0  0  0  0  0  0  0  0999 V3000
M  V30 BEGIN CTAB
M  V30 COUNTS 47 50 0 0 0
M  V30 BEGIN ATOM
M  V30 1 C 1.523799 -6.875987 2.567240 0
M  V30 2 C 1.080710 -7.067457 1.139892 0
M  V30 3 C -0.380074 -7.458846 1.179572 0
M  V30 4 N 1.251540 -5.840554 0.366483 0
M  V30 5 C 0.516093 -4.721569 0.636804 0
M  V30 6 C 0.943032 -3.781974 -0.279700 0
M  V30 7 C 0.405720 -2.430647 -0.337374 0
M  V30 8 O -0.493597 -2.110811 0.494713 0
M  V30 9 N 0.839026 -1.461043 -1.275655 0
M  V30 10 C 0.116151 -0.226034 -1.074511 0
M  V30 11 C 0.563690 0.753580 -0.230430 0
M  V30 12 C -0.245462 1.873466 -0.151124 0
M  V30 13 C 0.126757 2.919936 0.679543 0
M  V30 14 C -0.653366 4.057645 0.788178 0
M  V30 15 C -0.341686 5.204965 1.634211 0
M  V30 16 C -0.433503 6.537688 1.251772 0
M  V30 17 N -0.048649 7.238417 2.353511 0
M  V30 18 C 0.255914 6.376009 3.338376 0
M  V30 19 N 0.079526 5.111443 2.908645 0
M  V30 20 C 0.326028 3.950369 3.742733 0
M  V30 21 C -1.825299 4.162060 0.060328 0
M  V30 22 C -2.182786 3.103112 -0.767385 0
M  V30 23 C -1.418340 1.962244 -0.888289 0
M  V30 24 C -1.821421 0.923507 -1.735387 0
M  V30 25 N -1.016291 -0.176610 -1.806415 0
M  V30 26 C 1.919216 -4.334496 -1.084322 0
M  V30 27 N 2.075231 -5.601576 -0.649502 0
M  V30 28 H 1.799320 -7.875055 2.975892 0
M  V30 29 H 0.705111 -6.514879 3.218552 0
M  V30 30 H 2.421376 -6.246845 2.666038 0
M  V30 31 H 1.651086 -7.853489 0.616358 0
M  V30 32 H -0.679468 -8.074144 0.303260 0
M  V30 33 H -0.559140 -8.116410 2.066039 0
M  V30 34 H -1.055375 -6.575670 1.291837 0
M  V30 35 H -0.239413 -4.626667 1.418565 0
M  V30 36 H 1.580064 -1.816203 -1.917471 0
M  V30 37 H 1.469979 0.638448 0.313343 0
M  V30 38 H 1.028549 2.875212 1.259399 0
M  V30 39 H -0.737688 6.960794 0.303060 0
M  V30 40 H 0.585123 6.793876 4.295281 0
M  V30 41 H 1.422674 3.702984 3.652345 0
M  V30 42 H -0.211654 3.050747 3.405498 0
M  V30 43 H 0.167388 4.217055 4.806165 0
M  V30 44 H -2.484832 5.042628 0.107031 0
M  V30 45 H -3.104718 3.189319 -1.337692 0
M  V30 46 H -2.731439 0.985862 -2.310966 0
M  V30 47 H 2.401183 -3.788670 -1.872840 0
M  V30 END ATOM
M  V30 BEGIN BOND
M  V30 1 1 1 2
M  V30 2 1 2 3
M  V30 3 1 2 4
M  V30 4 1 4 5
M  V30 5 2 5 6
M  V30 6 1 6 7
M  V30 7 2 7 8
M  V30 8 1 7 9
M  V30 9 1 9 10
M  V30 10 2 10 11
M  V30 11 1 11 12
M  V30 12 2 12 13
M  V30 13 1 13 14
M  V30 14 1 14 15
M  V30 15 2 15 16
M  V30 16 1 16 17
M  V30 17 2 17 18
M  V30 18 1 18 19
M  V30 19 1 19 20
M  V30 20 2 14 21
M  V30 21 1 21 22
M  V30 22 2 22 23
M  V30 23 1 23 24
M  V30 24 2 24 25
M  V30 25 1 6 26
M  V30 26 2 26 27
M  V30 27 1 27 4
M  V30 28 1 25 10
M  V30 29 1 23 12
M  V30 30 1 19 15
M  V30 31 1 1 28
M  V30 32 1 1 29
M  V30 33 1 1 30
M  V30 34 1 2 31
M  V30 35 1 3 32
M  V30 36 1 3 33
M  V30 37 1 3 34
M  V30 38 1 5 35
M  V30 39 1 9 36
M  V30 40 1 11 37
M  V30 41 1 13 38
M  V30 42 1 16 39
M  V30 43 1 18 40
M  V30 44 1 20 41
M  V30 45 1 20 42
M  V30 46 1 20 43
M  V30 47 1 21 44
M  V30 48 1 22 45
M  V30 49 1 24 46
M  V30 50 1 26 47
M  V30 END BOND
M  V30 END CTAB
M  END
>  <Dataset>  (474) 
ChEMBL_Kinases

>  <Ligand_Instance>  (474) 
nan

>  <PDB_ID>  (474) 
nan

>  <Standardized_SMILES>  (474) 
CC(C)n1cc(C(=O)Nc2cc3cc(-c4cncn4C)ccc3cn2)cn1

>  <Name>  (474) 
nan

>  <Pocket>  (474) 
nan

>  <ATP_Site>  (474) 
nan

>  <Peripheral>  (474) 
nan

>  <Num_H_Atoms_ProtBoundConf>  (474) 
nan

>  <Num_Resolved_Atoms>  (474) 
nan

>  <Num_Not_Resolved_Atoms>  (474) 
nan

$$$$
CHEMBL4755477
     RDKit          3D

  0  0  0  0  0  0  0  0  0  0999 V3000
M  V30 BEGIN CTAB
M  V30 COUNTS 46 50 0 0 0
M  V30 BEGIN ATOM
M  V30 1 C 2.581109 -3.982688 6.708585 0
M  V30 2 C 3.613857 -3.009414 6.180063 0
M  V30 3 C 3.263184 -2.566645 4.794007 0
M  V30 4 O 2.194948 -3.193493 4.572803 0
M  V30 5 N 4.087667 -1.648885 4.086505 0
M  V30 6 C 3.506593 -1.405030 2.784172 0
M  V30 7 C 3.867322 -2.217770 1.721298 0
M  V30 8 N 3.279676 -1.929528 0.523115 0
M  V30 9 C 2.405947 -0.910359 0.411884 0
M  V30 10 C 2.036815 -0.088538 1.471431 0
M  V30 11 C 1.073697 0.981883 1.198658 0
M  V30 12 C 1.138637 2.172751 1.926797 0
M  V30 13 N 0.225016 3.142739 1.641848 0
M  V30 14 C -0.707114 2.957743 0.691220 0
M  V30 15 N -1.705884 3.719805 0.211966 0
M  V30 16 N -2.355633 3.076393 -0.739733 0
M  V30 17 C -1.843419 1.854938 -0.960529 0
M  V30 18 C -2.327564 0.901638 -1.935252 0
M  V30 19 C -2.014632 -0.342674 -2.348148 0
M  V30 20 C -2.843963 -0.800816 -3.357584 0
M  V30 21 C -2.876694 -1.997032 -4.057217 0
M  V30 22 N -3.829510 -2.171530 -5.019586 0
M  V30 23 C -4.705245 -1.161048 -5.248449 0
M  V30 24 C -4.668114 0.027115 -4.549339 0
M  V30 25 C -3.716282 0.239442 -3.566605 0
M  V30 26 N -3.386640 1.224278 -2.715843 0
M  V30 27 C -0.812804 1.801595 -0.054299 0
M  V30 28 C 0.107135 0.818224 0.228726 0
M  V30 29 C 2.619752 -0.362937 2.692812 0
M  V30 30 H 2.600390 -4.063955 7.802914 0
M  V30 31 H 1.570683 -3.544968 6.472249 0
M  V30 32 H 2.616343 -4.957919 6.183743 0
M  V30 33 H 4.632860 -3.437565 6.236258 0
M  V30 34 H 3.577285 -2.138001 6.895789 0
M  V30 35 H 4.940119 -1.326877 4.623173 0
M  V30 36 H 4.579828 -3.022711 1.886047 0
M  V30 37 H 2.028014 -0.811969 -0.605124 0
M  V30 38 H 1.881117 2.345198 2.698056 0
M  V30 39 H -1.982117 4.683488 0.502557 0
M  V30 40 H -1.217807 -0.932499 -1.955353 0
M  V30 41 H -2.148596 -2.768394 -3.828097 0
M  V30 42 H -5.473929 -1.291806 -6.019664 0
M  V30 43 H -5.371790 0.824469 -4.741605 0
M  V30 44 H -3.974167 2.086250 -2.766495 0
M  V30 45 H 0.088446 -0.091688 -0.299574 0
M  V30 46 H 2.333758 0.272319 3.509722 0
M  V30 END ATOM
M  V30 BEGIN BOND
M  V30 1 1 1 2
M  V30 2 1 2 3
M  V30 3 2 3 4
M  V30 4 1 3 5
M  V30 5 1 5 6
M  V30 6 2 6 7
M  V30 7 1 7 8
M  V30 8 2 8 9
M  V30 9 1 9 10
M  V30 10 1 10 11
M  V30 11 2 11 12
M  V30 12 1 12 13
M  V30 13 2 13 14
M  V30 14 1 14 15
M  V30 15 1 15 16
M  V30 16 2 16 17
M  V30 17 1 17 18
M  V30 18 2 18 19
M  V30 19 1 19 20
M  V30 20 2 20 21
M  V30 21 1 21 22
M  V30 22 2 22 23
M  V30 23 1 23 24
M  V30 24 2 24 25
M  V30 25 1 25 26
M  V30 26 1 17 27
M  V30 27 2 27 28
M  V30 28 2 10 29
M  V30 29 1 29 6
M  V30 30 1 28 11
M  V30 31 1 27 14
M  V30 32 1 26 18
M  V30 33 1 25 20
M  V30 34 1 1 30
M  V30 35 1 1 31
M  V30 36 1 1 32
M  V30 37 1 2 33
M  V30 38 1 2 34
M  V30 39 1 5 35
M  V30 40 1 7 36
M  V30 41 1 9 37
M  V30 42 1 12 38
M  V30 43 1 15 39
M  V30 44 1 19 40
M  V30 45 1 21 41
M  V30 46 1 23 42
M  V30 47 1 24 43
M  V30 48 1 26 44
M  V30 49 1 28 45
M  V30 50 1 29 46
M  V30 END BOND
M  V30 END CTAB
M  END
>  <Dataset>  (475) 
ChEMBL_Kinases

>  <Ligand_Instance>  (475) 
nan

>  <PDB_ID>  (475) 
nan

>  <Standardized_SMILES>  (475) 
CCC(=O)Nc1cncc(-c2cnc3[nH]nc(-c4cc5cnccc5[nH]4)c3c2)c1

>  <Name>  (475) 
nan

>  <Pocket>  (475) 
nan

>  <ATP_Site>  (475) 
nan

>  <Peripheral>  (475) 
nan

>  <Num_H_Atoms_ProtBoundConf>  (475) 
nan

>  <Num_Resolved_Atoms>  (475) 
nan

>  <Num_Not_Resolved_Atoms>  (475) 
nan

$$$$
CHEMBL4755473
     RDKit          3D

  0  0  0  0  0  0  0  0  0  0999 V3000
M  V30 BEGIN CTAB
M  V30 COUNTS 68 74 0 0 0
M  V30 BEGIN ATOM
M  V30 1 O 2.536814 1.805757 -1.644681 0
M  V30 2 C 3.318754 0.965396 -1.113463 0
M  V30 3 C 4.055678 -0.273612 -1.478174 0
M  V30 4 C 3.830260 -0.653939 -2.918934 0
M  V30 5 C 2.380163 -0.901454 -3.229836 0
M  V30 6 C 2.241055 -1.306222 -4.658834 0
M  V30 7 N 3.387649 -1.091502 -5.484311 0
M  V30 8 C 4.109816 0.117355 -5.263858 0
M  V30 9 C 4.302208 0.475937 -3.804531 0
M  V30 10 N 3.487104 1.427167 0.244928 0
M  V30 11 C 2.710115 2.631116 0.434762 0
M  V30 12 C 3.146210 3.920490 0.210137 0
M  V30 13 N 2.306493 4.947903 0.429345 0
M  V30 14 C 1.036130 4.754092 0.867268 0
M  V30 15 C 0.531547 3.494485 1.113296 0
M  V30 16 C -0.818227 3.217029 1.582588 0
M  V30 17 C -1.750298 4.188359 1.831751 0
M  V30 18 C -3.032695 3.928398 2.277491 0
M  V30 19 C -3.344999 2.597539 2.467848 0
M  V30 20 N -4.495715 2.037004 2.891708 0
M  V30 21 N -4.322545 0.713093 2.921033 0
M  V30 22 C -3.066456 0.419101 2.518099 0
M  V30 23 C -2.461698 -0.912965 2.407144 0
M  V30 24 C -3.080182 -2.104362 2.703390 0
M  V30 25 C -2.204376 -3.138626 2.482921 0
M  V30 26 C -2.366259 -4.489697 2.618858 0
M  V30 27 C -3.535023 -5.209027 3.052809 0
M  V30 28 C -4.638890 -4.876672 3.753246 0
M  V30 29 C -5.670822 -5.689682 4.132925 0
M  V30 30 C -5.619461 -7.017875 3.780537 0
M  V30 31 C -4.508888 -7.390510 3.068054 0
M  V30 32 N -3.545878 -6.519815 2.740446 0
M  V30 33 C -1.238636 -5.209727 2.265494 0
M  V30 34 C -0.079813 -4.632389 1.827385 0
M  V30 35 C 0.014359 -3.279089 1.717277 0
M  V30 36 C -1.073671 -2.508701 2.052354 0
M  V30 37 N -1.225893 -1.191772 2.008456 0
M  V30 38 C -2.426248 1.598133 2.224844 0
M  V30 39 N -1.213987 1.949478 1.796626 0
M  V30 40 C 1.402163 2.450867 0.884763 0
M  V30 41 H 3.698934 -1.113632 -0.853607 0
M  V30 42 H 5.133886 -0.123849 -1.273038 0
M  V30 43 H 4.362564 -1.601076 -3.178173 0
M  V30 44 H 1.872816 0.098274 -3.100615 0
M  V30 45 H 1.910402 -1.671122 -2.594539 0
M  V30 46 H 1.312293 -0.832585 -5.074408 0
M  V30 47 H 2.023959 -2.409992 -4.719895 0
M  V30 48 H 3.041566 -1.043671 -6.490588 0
M  V30 49 H 5.127910 -0.040255 -5.688078 0
M  V30 50 H 3.694131 0.980444 -5.851323 0
M  V30 51 H 5.373352 0.705683 -3.575193 0
M  V30 52 H 3.660078 1.360054 -3.629806 0
M  V30 53 H 4.078012 0.977893 1.001919 0
M  V30 54 H 4.158190 3.967857 -0.131583 0
M  V30 55 H 0.391238 5.604756 1.032221 0
M  V30 56 H -1.500377 5.228490 1.681481 0
M  V30 57 H -3.746330 4.731729 2.464695 0
M  V30 58 H -5.355452 2.559004 3.145478 0
M  V30 59 H -4.095016 -2.126889 3.031977 0
M  V30 60 H -4.710750 -3.864931 4.078481 0
M  V30 61 H -6.500001 -5.316635 4.688663 0
M  V30 62 H -6.394397 -7.696578 4.048702 0
M  V30 63 H -4.421132 -8.436749 2.765168 0
M  V30 64 H -1.213247 -6.293535 2.319240 0
M  V30 65 H 0.778433 -5.226029 1.561978 0
M  V30 66 H 0.927713 -2.824156 1.373689 0
M  V30 67 H -0.533990 -0.464093 1.720918 0
M  V30 68 H 1.032135 1.449666 1.069844 0
M  V30 END ATOM
M  V30 BEGIN BOND
M  V30 1 2 1 2
M  V30 2 1 2 3
M  V30 3 1 3 4
M  V30 4 1 4 5
M  V30 5 1 5 6
M  V30 6 1 6 7
M  V30 7 1 7 8
M  V30 8 1 8 9
M  V30 9 1 2 10
M  V30 10 1 10 11
M  V30 11 2 11 12
M  V30 12 1 12 13
M  V30 13 2 13 14
M  V30 14 1 14 15
M  V30 15 1 15 16
M  V30 16 2 16 17
M  V30 17 1 17 18
M  V30 18 2 18 19
M  V30 19 1 19 20
M  V30 20 1 20 21
M  V30 21 2 21 22
M  V30 22 1 22 23
M  V30 23 2 23 24
M  V30 24 1 24 25
M  V30 25 2 25 26
M  V30 26 1 26 27
M  V30 27 2 27 28
M  V30 28 1 28 29
M  V30 29 2 29 30
M  V30 30 1 30 31
M  V30 31 2 31 32
M  V30 32 1 26 33
M  V30 33 2 33 34
M  V30 34 1 34 35
M  V30 35 2 35 36
M  V30 36 1 36 37
M  V30 37 1 22 38
M  V30 38 2 38 39
M  V30 39 2 15 40
M  V30 40 1 9 4
M  V30 41 1 40 11
M  V30 42 1 39 16
M  V30 43 1 38 19
M  V30 44 1 37 23
M  V30 45 1 36 25
M  V30 46 1 32 27
M  V30 47 1 3 41
M  V30 48 1 3 42
M  V30 49 1 4 43
M  V30 50 1 5 44
M  V30 51 1 5 45
M  V30 52 1 6 46
M  V30 53 1 6 47
M  V30 54 1 7 48
M  V30 55 1 8 49
M  V30 56 1 8 50
M  V30 57 1 9 51
M  V30 58 1 9 52
M  V30 59 1 10 53
M  V30 60 1 12 54
M  V30 61 1 14 55
M  V30 62 1 17 56
M  V30 63 1 18 57
M  V30 64 1 20 58
M  V30 65 1 24 59
M  V30 66 1 28 60
M  V30 67 1 29 61
M  V30 68 1 30 62
M  V30 69 1 31 63
M  V30 70 1 33 64
M  V30 71 1 34 65
M  V30 72 1 35 66
M  V30 73 1 37 67
M  V30 74 1 40 68
M  V30 END BOND
M  V30 END CTAB
M  END
>  <Dataset>  (476) 
ChEMBL_Kinases

>  <Ligand_Instance>  (476) 
nan

>  <PDB_ID>  (476) 
nan

>  <Standardized_SMILES>  (476) 
O=C(CC1CCNCC1)Nc1cncc(-c2ccc3[nH]nc(-c4cc5c(-c6ccccn6)cccc5[nH]4)c3n2)c1

>  <Name>  (476) 
nan

>  <Pocket>  (476) 
nan

>  <ATP_Site>  (476) 
nan

>  <Peripheral>  (476) 
nan

>  <Num_H_Atoms_ProtBoundConf>  (476) 
nan

>  <Num_Resolved_Atoms>  (476) 
nan

>  <Num_Not_Resolved_Atoms>  (476) 
nan

$$$$
CHEMBL4755429
     RDKit          3D

  0  0  0  0  0  0  0  0  0  0999 V3000
M  V30 BEGIN CTAB
M  V30 COUNTS 47 52 0 0 0
M  V30 BEGIN ATOM
M  V30 1 N 2.147660 -3.042346 3.471738 0
M  V30 2 C 2.771765 -1.781990 3.448371 0
M  V30 3 C 3.906571 -1.625211 4.252032 0
M  V30 4 N 4.550813 -0.442849 4.274923 0
M  V30 5 C 4.113641 0.601958 3.527269 0
M  V30 6 C 3.001310 0.498400 2.719662 0
M  V30 7 C 2.480790 1.582001 1.893027 0
M  V30 8 C 3.052834 2.835372 1.832648 0
M  V30 9 C 2.580130 3.875384 1.059769 0
M  V30 10 C 1.459105 3.672616 0.284885 0
M  V30 11 N 0.754490 4.444713 -0.558702 0
M  V30 12 N -0.251944 3.706005 -1.033715 0
M  V30 13 C -0.195060 2.486461 -0.506932 0
M  V30 14 C -1.150147 1.426037 -0.815248 0
M  V30 15 N -1.229630 0.158800 -0.373624 0
M  V30 16 C -2.289842 -0.464886 -0.935274 0
M  V30 17 C -2.831522 -1.733526 -0.845712 0
M  V30 18 C -2.202907 -2.724340 0.026543 0
M  V30 19 C -1.233801 -3.452323 -0.670528 0
M  V30 20 C -0.505510 -4.448939 -0.046379 0
M  V30 21 C -0.751792 -4.717801 1.289844 0
M  V30 22 C -1.698939 -4.002753 1.962027 0
M  V30 23 C -2.433317 -3.007405 1.357173 0
M  V30 24 F -3.396037 -2.220599 1.887211 0
M  V30 25 C -3.963550 -2.107143 -1.561268 0
M  V30 26 C -4.532638 -1.150574 -2.374559 0
M  V30 27 N -4.001686 0.087230 -2.460082 0
M  V30 28 C -2.905456 0.457924 -1.770679 0
M  V30 29 N -2.182348 1.591030 -1.668114 0
M  V30 30 C 0.893284 2.420101 0.349672 0
M  V30 31 N 1.385142 1.435130 1.115343 0
M  V30 32 C 2.329292 -0.706715 2.684597 0
M  V30 33 H 2.355075 -3.963070 3.076489 0
M  V30 34 H 1.262138 -3.081001 4.010980 0
M  V30 35 H 4.350987 -2.381451 4.890845 0
M  V30 36 H 4.643609 1.526470 3.565179 0
M  V30 37 H 3.934646 3.051101 2.419892 0
M  V30 38 H 3.067518 4.844809 1.047358 0
M  V30 39 H 1.014153 5.434423 -0.752889 0
M  V30 40 H -0.956921 -3.329153 -1.715393 0
M  V30 41 H 0.254888 -5.039824 -0.543057 0
M  V30 42 H -0.232854 -5.477876 1.862089 0
M  V30 43 H -1.941613 -4.159304 3.001905 0
M  V30 44 H -4.363958 -3.101385 -1.472684 0
M  V30 45 H -5.422778 -1.425476 -2.944695 0
M  V30 46 H -2.483741 2.437518 -2.233540 0
M  V30 47 H 1.438236 -0.929813 2.093198 0
M  V30 END ATOM
M  V30 BEGIN BOND
M  V30 1 1 1 2
M  V30 2 2 2 3
M  V30 3 1 3 4
M  V30 4 2 4 5
M  V30 5 1 5 6
M  V30 6 1 6 7
M  V30 7 2 7 8
M  V30 8 1 8 9
M  V30 9 2 9 10
M  V30 10 1 10 11
M  V30 11 1 11 12
M  V30 12 2 12 13
M  V30 13 1 13 14
M  V30 14 2 14 15
M  V30 15 1 15 16
M  V30 16 2 16 17
M  V30 17 1 17 18
M  V30 18 2 18 19
M  V30 19 1 19 20
M  V30 20 2 20 21
M  V30 21 1 21 22
M  V30 22 2 22 23
M  V30 23 1 23 24
M  V30 24 1 17 25
M  V30 25 2 25 26
M  V30 26 1 26 27
M  V30 27 2 27 28
M  V30 28 1 28 29
M  V30 29 1 13 30
M  V30 30 2 30 31
M  V30 31 2 6 32
M  V30 32 1 32 2
M  V30 33 1 31 7
M  V30 34 1 30 10
M  V30 35 1 29 14
M  V30 36 1 28 16
M  V30 37 1 23 18
M  V30 38 1 1 33
M  V30 39 1 1 34
M  V30 40 1 3 35
M  V30 41 1 5 36
M  V30 42 1 8 37
M  V30 43 1 9 38
M  V30 44 1 11 39
M  V30 45 1 19 40
M  V30 46 1 20 41
M  V30 47 1 21 42
M  V30 48 1 22 43
M  V30 49 1 25 44
M  V30 50 1 26 45
M  V30 51 1 29 46
M  V30 52 1 32 47
M  V30 END BOND
M  V30 END CTAB
M  END
>  <Dataset>  (477) 
ChEMBL_Kinases

>  <Ligand_Instance>  (477) 
nan

>  <PDB_ID>  (477) 
nan

>  <Standardized_SMILES>  (477) 
Nc1cncc(-c2ccc3[nH]nc(-c4nc5c(-c6ccccc6F)ccnc5[nH]4)c3n2)c1

>  <Name>  (477) 
nan

>  <Pocket>  (477) 
nan

>  <ATP_Site>  (477) 
nan

>  <Peripheral>  (477) 
nan

>  <Num_H_Atoms_ProtBoundConf>  (477) 
nan

>  <Num_Resolved_Atoms>  (477) 
nan

>  <Num_Not_Resolved_Atoms>  (477) 
nan

$$$$
CHEMBL4294976
     RDKit          3D

  0  0  0  0  0  0  0  0  0  0999 V3000
M  V30 BEGIN CTAB
M  V30 COUNTS 50 53 0 0 0
M  V30 BEGIN ATOM
M  V30 1 C 0.450653 -2.336416 4.477161 0
M  V30 2 C 1.607308 -2.657513 3.549212 0
M  V30 3 O 1.750462 -1.603387 2.637606 0
M  V30 4 C 2.737914 -1.611216 1.653771 0
M  V30 5 C 3.600313 -2.684560 1.572017 0
M  V30 6 C 4.577694 -2.697970 0.603102 0
M  V30 7 C 4.666992 -1.618508 -0.272464 0
M  V30 8 C 3.796420 -0.559066 -0.172501 0
M  V30 9 C 2.806514 -0.518727 0.789142 0
M  V30 10 C 1.841766 0.573433 0.952181 0
M  V30 11 N 0.509182 0.304581 0.456775 0
M  V30 12 C -0.466667 1.340564 0.615157 0
M  V30 13 N -0.097152 2.507985 1.163957 0
M  V30 14 C -1.000795 3.495333 1.280293 0
M  V30 15 C -0.513784 4.768559 1.903633 0
M  V30 16 N -2.279380 3.380724 0.870893 0
M  V30 17 C -2.709897 2.224197 0.309466 0
M  V30 18 N -3.865453 1.764975 -0.199191 0
M  V30 19 C -3.649070 0.493380 -0.619469 0
M  V30 20 C -2.315732 0.133048 -0.370293 0
M  V30 21 C -2.002348 -1.232880 -0.733306 0
M  V30 22 C -1.588384 -2.322728 0.000081 0
M  V30 23 C -1.301330 -3.585538 -0.408453 0
M  V30 24 N -1.450586 -3.773673 -1.720467 0
M  V30 25 C -1.846611 -2.816886 -2.575725 0
M  V30 26 N -1.966765 -3.149329 -3.955837 0
M  V30 27 C -2.127084 -1.538637 -2.097946 0
M  V30 28 C -1.758744 1.234459 0.206839 0
M  V30 29 H -0.099646 -3.272705 4.673544 0
M  V30 30 H 0.880184 -1.876967 5.406193 0
M  V30 31 H -0.197377 -1.543938 4.032739 0
M  V30 32 H 2.533708 -2.746584 4.145226 0
M  V30 33 H 1.396281 -3.633733 3.028812 0
M  V30 34 H 3.461178 -3.483687 2.293373 0
M  V30 35 H 5.236315 -3.544585 0.560612 0
M  V30 36 H 5.452275 -1.681595 -1.012719 0
M  V30 37 H 3.874315 0.270709 -0.854738 0
M  V30 38 H 2.293553 1.464420 0.427367 0
M  V30 39 H 1.843293 0.859242 2.023308 0
M  V30 40 H 0.526532 -0.618832 0.057455 0
M  V30 41 H -0.236440 4.627493 2.961729 0
M  V30 42 H -1.363962 5.500826 1.896032 0
M  V30 43 H 0.378611 5.130541 1.386382 0
M  V30 44 H -4.707969 2.374117 -0.211714 0
M  V30 45 H -4.525741 -0.004312 -1.062759 0
M  V30 46 H -1.497339 -2.059428 1.069021 0
M  V30 47 H -0.989991 -4.293599 0.340735 0
M  V30 48 H -2.795570 -3.772523 -4.119772 0
M  V30 49 H -1.527638 -3.004399 -4.909338 0
M  V30 50 H -2.438485 -0.846100 -2.877857 0
M  V30 END ATOM
M  V30 BEGIN BOND
M  V30 1 1 1 2
M  V30 2 1 2 3
M  V30 3 1 3 4
M  V30 4 2 4 5
M  V30 5 1 5 6
M  V30 6 2 6 7
M  V30 7 1 7 8
M  V30 8 2 8 9
M  V30 9 1 9 10
M  V30 10 1 10 11
M  V30 11 1 11 12
M  V30 12 2 12 13
M  V30 13 1 13 14
M  V30 14 1 14 15
M  V30 15 2 14 16
M  V30 16 1 16 17
M  V30 17 1 17 18
M  V30 18 1 18 19
M  V30 19 2 19 20
M  V30 20 1 20 21
M  V30 21 2 21 22
M  V30 22 1 22 23
M  V30 23 2 23 24
M  V30 24 1 24 25
M  V30 25 1 25 26
M  V30 26 2 25 27
M  V30 27 1 20 28
M  V30 28 1 9 4
M  V30 29 1 28 12
M  V30 30 2 28 17
M  V30 31 1 27 21
M  V30 32 1 1 29
M  V30 33 1 1 30
M  V30 34 1 1 31
M  V30 35 1 2 32
M  V30 36 1 2 33
M  V30 37 1 5 34
M  V30 38 1 6 35
M  V30 39 1 7 36
M  V30 40 1 8 37
M  V30 41 1 10 38
M  V30 42 1 10 39
M  V30 43 1 11 40
M  V30 44 1 15 41
M  V30 45 1 15 42
M  V30 46 1 15 43
M  V30 47 1 18 44
M  V30 48 1 19 45
M  V30 49 1 22 46
M  V30 50 1 23 47
M  V30 51 1 26 48
M  V30 52 1 26 49
M  V30 53 1 27 50
M  V30 END BOND
M  V30 END CTAB
M  END
>  <Dataset>  (478) 
ChEMBL_Kinases

>  <Ligand_Instance>  (478) 
nan

>  <PDB_ID>  (478) 
nan

>  <Standardized_SMILES>  (478) 
CCOc1ccccc1CNc1nc(C)nc2[nH]cc(-c3ccnc(N)c3)c12

>  <Name>  (478) 
nan

>  <Pocket>  (478) 
nan

>  <ATP_Site>  (478) 
nan

>  <Peripheral>  (478) 
nan

>  <Num_H_Atoms_ProtBoundConf>  (478) 
nan

>  <Num_Resolved_Atoms>  (478) 
nan

>  <Num_Not_Resolved_Atoms>  (478) 
nan

$$$$
CHEMBL4755388
     RDKit          3D

  0  0  0  0  0  0  0  0  0  0999 V3000
M  V30 BEGIN CTAB
M  V30 COUNTS 58 63 0 0 0
M  V30 BEGIN ATOM
M  V30 1 C 1.816464 -1.699857 4.419859 0
M  V30 2 N 3.138720 -1.562313 3.872077 0
M  V30 3 C 4.059170 -2.364381 4.612602 0
M  V30 4 C 3.554776 -0.193965 3.713897 0
M  V30 5 C 2.794231 0.541336 2.657938 0
M  V30 6 O 3.313691 1.868131 2.620569 0
M  V30 7 C 2.838194 2.844507 1.742833 0
M  V30 8 C 3.380353 4.109872 1.760070 0
M  V30 9 N 2.902211 5.056283 0.892562 0
M  V30 10 C 1.913113 4.634353 0.080780 0
M  V30 11 C 1.321544 3.396739 0.003001 0
M  V30 12 C 0.246040 3.086171 -0.924192 0
M  V30 13 C -0.282517 4.008386 -1.798416 0
M  V30 14 C -1.309283 3.713635 -2.677309 0
M  V30 15 C -1.798605 2.425197 -2.645191 0
M  V30 16 N -2.774712 1.880670 -3.379171 0
M  V30 17 N -2.892884 0.620983 -3.001667 0
M  V30 18 C -1.996305 0.340476 -2.022288 0
M  V30 19 C -1.795162 -0.943792 -1.339397 0
M  V30 20 N -2.524784 -2.056405 -1.637632 0
M  V30 21 C -2.111658 -3.061635 -0.860603 0
M  V30 22 C -2.455540 -4.385222 -0.707636 0
M  V30 23 C -3.536654 -4.860894 -1.585887 0
M  V30 24 C -4.100487 -6.194472 -1.654495 0
M  V30 25 C -5.098821 -6.329837 -2.576162 0
M  V30 26 C -5.539862 -5.312418 -3.370522 0
M  V30 27 S -4.408231 -3.880882 -2.785113 0
M  V30 28 C -1.899466 -5.281193 0.165123 0
M  V30 29 C -0.892570 -4.778204 0.961635 0
M  V30 30 C -0.493235 -3.456013 0.863441 0
M  V30 31 C -1.101896 -2.589753 -0.050017 0
M  V30 32 N -0.933310 -1.277119 -0.373685 0
M  V30 33 C -1.275451 1.491368 -1.771904 0
M  V30 34 N -0.277059 1.853401 -0.946702 0
M  V30 35 C 1.807588 2.448797 0.879026 0
M  V30 36 H 1.154766 -0.837471 4.215302 0
M  V30 37 H 1.353507 -2.582775 3.915511 0
M  V30 38 H 1.788631 -1.915361 5.500773 0
M  V30 39 H 3.809676 -2.402432 5.713785 0
M  V30 40 H 4.005822 -3.435781 4.266924 0
M  V30 41 H 5.097390 -2.008332 4.488584 0
M  V30 42 H 3.510829 0.384508 4.651455 0
M  V30 43 H 4.626063 -0.206275 3.408091 0
M  V30 44 H 1.716664 0.620244 2.839769 0
M  V30 45 H 3.026451 0.118633 1.638893 0
M  V30 46 H 4.181899 4.375756 2.448367 0
M  V30 47 H 1.595062 5.452459 -0.574306 0
M  V30 48 H 0.086959 5.021901 -1.838750 0
M  V30 49 H -1.725238 4.449491 -3.370399 0
M  V30 50 H -3.396637 2.232409 -4.120202 0
M  V30 51 H -3.699235 -6.941966 -0.995719 0
M  V30 52 H -5.579410 -7.306423 -2.691994 0
M  V30 53 H -6.253862 -5.255692 -4.084633 0
M  V30 54 H -2.211588 -6.308203 0.239722 0
M  V30 55 H -0.391325 -5.403579 1.681980 0
M  V30 56 H 0.286891 -3.003580 1.456379 0
M  V30 57 H -0.238201 -0.631101 0.064883 0
M  V30 58 H 1.411895 1.453766 0.895426 0
M  V30 END ATOM
M  V30 BEGIN BOND
M  V30 1 1 1 2
M  V30 2 1 2 3
M  V30 3 1 2 4
M  V30 4 1 4 5
M  V30 5 1 5 6
M  V30 6 1 6 7
M  V30 7 2 7 8
M  V30 8 1 8 9
M  V30 9 2 9 10
M  V30 10 1 10 11
M  V30 11 1 11 12
M  V30 12 2 12 13
M  V30 13 1 13 14
M  V30 14 2 14 15
M  V30 15 1 15 16
M  V30 16 1 16 17
M  V30 17 2 17 18
M  V30 18 1 18 19
M  V30 19 2 19 20
M  V30 20 1 20 21
M  V30 21 2 21 22
M  V30 22 1 22 23
M  V30 23 2 23 24
M  V30 24 1 24 25
M  V30 25 2 25 26
M  V30 26 1 26 27
M  V30 27 1 22 28
M  V30 28 2 28 29
M  V30 29 1 29 30
M  V30 30 2 30 31
M  V30 31 1 31 32
M  V30 32 1 18 33
M  V30 33 2 33 34
M  V30 34 2 11 35
M  V30 35 1 35 7
M  V30 36 1 34 12
M  V30 37 1 33 15
M  V30 38 1 32 19
M  V30 39 1 31 21
M  V30 40 1 27 23
M  V30 41 1 1 36
M  V30 42 1 1 37
M  V30 43 1 1 38
M  V30 44 1 3 39
M  V30 45 1 3 40
M  V30 46 1 3 41
M  V30 47 1 4 42
M  V30 48 1 4 43
M  V30 49 1 5 44
M  V30 50 1 5 45
M  V30 51 1 8 46
M  V30 52 1 10 47
M  V30 53 1 13 48
M  V30 54 1 14 49
M  V30 55 1 16 50
M  V30 56 1 24 51
M  V30 57 1 25 52
M  V30 58 1 26 53
M  V30 59 1 28 54
M  V30 60 1 29 55
M  V30 61 1 30 56
M  V30 62 1 32 57
M  V30 63 1 35 58
M  V30 END BOND
M  V30 END CTAB
M  END
>  <Dataset>  (479) 
ChEMBL_Kinases

>  <Ligand_Instance>  (479) 
nan

>  <PDB_ID>  (479) 
nan

>  <Standardized_SMILES>  (479) 
CN(C)CCOc1cncc(-c2ccc3[nH]nc(-c4nc5c(-c6cccs6)cccc5[nH]4)c3n2)c1

>  <Name>  (479) 
nan

>  <Pocket>  (479) 
nan

>  <ATP_Site>  (479) 
nan

>  <Peripheral>  (479) 
nan

>  <Num_H_Atoms_ProtBoundConf>  (479) 
nan

>  <Num_Resolved_Atoms>  (479) 
nan

>  <Num_Not_Resolved_Atoms>  (479) 
nan

$$$$
CHEMBL4755351
     RDKit          3D

  0  0  0  0  0  0  0  0  0  0999 V3000
M  V30 BEGIN CTAB
M  V30 COUNTS 57 62 0 0 0
M  V30 BEGIN ATOM
M  V30 1 C 1.670193 -0.192467 4.181263 0
M  V30 2 N 2.183688 -1.396319 3.587865 0
M  V30 3 C 2.619164 -2.534889 4.356640 0
M  V30 4 C 2.350988 -1.685794 2.243812 0
M  V30 5 O 1.909566 -0.583440 2.607722 0
M  V30 6 N 2.704437 -2.485959 1.172941 0
M  V30 7 C 2.468242 -1.810440 -0.056038 0
M  V30 8 C 2.089984 -2.585301 -1.122728 0
M  V30 9 N 1.708246 -1.988486 -2.280639 0
M  V30 10 C 1.690193 -0.661608 -2.392668 0
M  V30 11 C 2.055612 0.191824 -1.380457 0
M  V30 12 C 1.857932 1.543633 -0.963340 0
M  V30 13 C 2.488614 2.618109 -0.417665 0
M  V30 14 N 1.861991 3.638947 0.175896 0
M  V30 15 C 0.530420 3.601747 0.239253 0
M  V30 16 N -0.292745 4.509067 0.751076 0
M  V30 17 N -1.362406 3.979200 0.532017 0
M  V30 18 C -1.843542 2.977878 0.032463 0
M  V30 19 C -2.420898 1.747342 -0.573952 0
M  V30 20 N -2.086078 0.398827 -0.351035 0
M  V30 21 C -2.993404 -0.373454 -0.935849 0
M  V30 22 C -2.991566 -1.725236 -0.907537 0
M  V30 23 C -2.215111 -2.764658 -0.327336 0
M  V30 24 C -1.365768 -3.469211 -1.196913 0
M  V30 25 C -0.625188 -4.572847 -0.784880 0
M  V30 26 C -0.715292 -5.005836 0.532655 0
M  V30 27 C -1.533753 -4.328874 1.378873 0
M  V30 28 F -1.584188 -4.817430 2.677758 0
M  V30 29 C -2.252788 -3.247037 0.959317 0
M  V30 30 C -4.071001 -2.264332 -1.605082 0
M  V30 31 N -4.984831 -1.543359 -2.197085 0
M  V30 32 C -4.930405 -0.206168 -2.177111 0
M  V30 33 C -3.875443 0.459414 -1.506670 0
M  V30 34 N -3.525410 1.707258 -1.291111 0
M  V30 35 C -0.429999 2.678959 -0.196500 0
M  V30 36 C 0.444718 1.668314 -0.805195 0
M  V30 37 C 2.460014 -0.412035 -0.197406 0
M  V30 38 H 0.684851 0.050558 3.708339 0
M  V30 39 H 1.590128 -0.268376 5.291926 0
M  V30 40 H 2.341311 0.668890 3.989424 0
M  V30 41 H 3.650569 -2.834339 4.111562 0
M  V30 42 H 2.533477 -2.245988 5.451867 0
M  V30 43 H 1.920503 -3.366866 4.178069 0
M  V30 44 H 3.026623 -3.299611 1.684564 0
M  V30 45 H 2.076692 -3.663780 -1.130634 0
M  V30 46 H 1.425877 0.022182 -3.204323 0
M  V30 47 H 3.558649 2.469285 -0.566472 0
M  V30 48 H -0.222089 5.424330 1.236778 0
M  V30 49 H -1.208159 -3.234047 -2.235893 0
M  V30 50 H 0.019776 -5.129110 -1.453365 0
M  V30 51 H -0.116841 -5.882565 0.811804 0
M  V30 52 H -2.886155 -2.750770 1.689493 0
M  V30 53 H -4.277294 -3.334153 -1.722849 0
M  V30 54 H -5.689440 0.435825 -2.670460 0
M  V30 55 H -4.072822 2.505755 -1.658090 0
M  V30 56 H -0.099121 0.824793 -1.315071 0
M  V30 57 H 2.811294 0.028896 0.732070 0
M  V30 END ATOM
M  V30 BEGIN BOND
M  V30 1 1 1 2
M  V30 2 1 2 3
M  V30 3 1 2 4
M  V30 4 2 4 5
M  V30 5 1 4 6
M  V30 6 1 6 7
M  V30 7 2 7 8
M  V30 8 1 8 9
M  V30 9 2 9 10
M  V30 10 1 10 11
M  V30 11 1 11 12
M  V30 12 2 12 13
M  V30 13 1 13 14
M  V30 14 2 14 15
M  V30 15 1 15 16
M  V30 16 1 16 17
M  V30 17 2 17 18
M  V30 18 1 18 19
M  V30 19 2 19 20
M  V30 20 1 20 21
M  V30 21 2 21 22
M  V30 22 1 22 23
M  V30 23 2 23 24
M  V30 24 1 24 25
M  V30 25 2 25 26
M  V30 26 1 26 27
M  V30 27 1 27 28
M  V30 28 2 27 29
M  V30 29 1 22 30
M  V30 30 2 30 31
M  V30 31 1 31 32
M  V30 32 2 32 33
M  V30 33 1 33 34
M  V30 34 1 18 35
M  V30 35 2 35 36
M  V30 36 2 11 37
M  V30 37 1 37 7
M  V30 38 1 36 12
M  V30 39 1 35 15
M  V30 40 1 34 19
M  V30 41 1 33 21
M  V30 42 1 29 23
M  V30 43 1 1 38
M  V30 44 1 1 39
M  V30 45 1 1 40
M  V30 46 1 3 41
M  V30 47 1 3 42
M  V30 48 1 3 43
M  V30 49 1 6 44
M  V30 50 1 8 45
M  V30 51 1 10 46
M  V30 52 1 13 47
M  V30 53 1 16 48
M  V30 54 1 24 49
M  V30 55 1 25 50
M  V30 56 1 26 51
M  V30 57 1 29 52
M  V30 58 1 30 53
M  V30 59 1 32 54
M  V30 60 1 34 55
M  V30 61 1 36 56
M  V30 62 1 37 57
M  V30 END BOND
M  V30 END CTAB
M  END
>  <Dataset>  (480) 
ChEMBL_Kinases

>  <Ligand_Instance>  (480) 
nan

>  <PDB_ID>  (480) 
nan

>  <Standardized_SMILES>  (480) 
CN(C)C(=O)Nc1cncc(-c2cnc3[nH]nc(-c4nc5c(-c6cccc(F)c6)cncc5[nH]4)c3c2)c1

>  <Name>  (480) 
nan

>  <Pocket>  (480) 
nan

>  <ATP_Site>  (480) 
nan

>  <Peripheral>  (480) 
nan

>  <Num_H_Atoms_ProtBoundConf>  (480) 
nan

>  <Num_Resolved_Atoms>  (480) 
nan

>  <Num_Not_Resolved_Atoms>  (480) 
nan

$$$$
CHEMBL4755315
     RDKit          3D

  0  0  0  0  0  0  0  0  0  0999 V3000
M  V30 BEGIN CTAB
M  V30 COUNTS 58 64 0 0 0
M  V30 BEGIN ATOM
M  V30 1 O 3.422429 -3.015204 -0.680334 0
M  V30 2 C 3.688878 -3.255753 0.540344 0
M  V30 3 N 4.327918 -2.380289 1.421417 0
M  V30 4 C 4.633151 -1.157536 0.715982 0
M  V30 5 C 5.787389 -0.867379 0.022722 0
M  V30 6 N 5.913138 0.325088 -0.585033 0
M  V30 7 C 4.963744 1.276827 -0.560811 0
M  V30 8 C 3.787538 1.068417 0.105467 0
M  V30 9 C 2.665515 2.028102 0.209563 0
M  V30 10 C 2.858531 3.412246 0.232695 0
M  V30 11 N 1.796088 4.239316 0.326521 0
M  V30 12 C 0.530304 3.760773 0.400034 0
M  V30 13 N -0.691945 4.307951 0.497483 0
M  V30 14 N -1.612508 3.374016 0.535753 0
M  V30 15 C -1.074128 2.131246 0.466666 0
M  V30 16 C -1.819668 0.890522 0.485702 0
M  V30 17 N -3.160897 0.869588 0.577884 0
M  V30 18 C -3.668789 -0.350930 0.581963 0
M  V30 19 C -4.936462 -0.892281 0.657232 0
M  V30 20 C -6.069230 0.020058 0.756645 0
M  V30 21 C -6.154792 1.122232 -0.065518 0
M  V30 22 C -7.230567 1.977673 0.040508 0
M  V30 23 C -8.202071 1.674935 0.999886 0
M  V30 24 N -8.128776 0.599841 1.809296 0
M  V30 25 C -7.060620 -0.243290 1.699067 0
M  V30 26 C -5.092063 -2.262449 0.634696 0
M  V30 27 N -4.019027 -3.086984 0.539672 0
M  V30 28 C -2.760824 -2.577297 0.464245 0
M  V30 29 C -2.607945 -1.203672 0.487089 0
M  V30 30 N -1.530249 -0.409627 0.432722 0
M  V30 31 C 0.269168 2.408016 0.382315 0
M  V30 32 C 1.369177 1.589236 0.286100 0
M  V30 33 C 3.652334 -0.169375 0.738959 0
M  V30 34 C 3.189171 -4.624454 0.817390 0
M  V30 35 C 2.540864 -5.294866 -0.377175 0
M  V30 36 C 3.876640 -5.955199 -0.743936 0
M  V30 37 C 4.316097 -5.641586 0.671441 0
M  V30 38 H 4.472770 -2.732039 2.391205 0
M  V30 39 H 6.525489 -1.644295 0.020924 0
M  V30 40 H 5.057479 2.234952 -1.046043 0
M  V30 41 H 3.890333 3.785211 0.172214 0
M  V30 42 H -0.914004 5.325739 0.539274 0
M  V30 43 H -5.350560 1.265874 -0.774271 0
M  V30 44 H -7.290744 2.840217 -0.608521 0
M  V30 45 H -9.066366 2.344518 1.100208 0
M  V30 46 H -7.043902 -1.102523 2.376686 0
M  V30 47 H -6.081514 -2.690531 0.692973 0
M  V30 48 H -1.891005 -3.193569 0.388503 0
M  V30 49 H -0.575918 -0.792490 0.356696 0
M  V30 50 H 1.243537 0.538508 0.264165 0
M  V30 51 H 2.740549 -0.364392 1.273625 0
M  V30 52 H 2.571176 -4.736596 1.712130 0
M  V30 53 H 2.155025 -4.611365 -1.155192 0
M  V30 54 H 1.807136 -6.084810 -0.114645 0
M  V30 55 H 3.814196 -7.053768 -0.882144 0
M  V30 56 H 4.416519 -5.397270 -1.529803 0
M  V30 57 H 4.165164 -6.439412 1.399872 0
M  V30 58 H 5.331730 -5.217724 0.784758 0
M  V30 END ATOM
M  V30 BEGIN BOND
M  V30 1 2 1 2
M  V30 2 1 2 3
M  V30 3 1 3 4
M  V30 4 2 4 5
M  V30 5 1 5 6
M  V30 6 2 6 7
M  V30 7 1 7 8
M  V30 8 1 8 9
M  V30 9 2 9 10
M  V30 10 1 10 11
M  V30 11 2 11 12
M  V30 12 1 12 13
M  V30 13 1 13 14
M  V30 14 2 14 15
M  V30 15 1 15 16
M  V30 16 2 16 17
M  V30 17 1 17 18
M  V30 18 2 18 19
M  V30 19 1 19 20
M  V30 20 2 20 21
M  V30 21 1 21 22
M  V30 22 2 22 23
M  V30 23 1 23 24
M  V30 24 2 24 25
M  V30 25 1 19 26
M  V30 26 2 26 27
M  V30 27 1 27 28
M  V30 28 2 28 29
M  V30 29 1 29 30
M  V30 30 1 15 31
M  V30 31 2 31 32
M  V30 32 2 8 33
M  V30 33 1 2 34
M  V30 34 1 34 35
M  V30 35 1 35 36
M  V30 36 1 36 37
M  V30 37 1 33 4
M  V30 38 1 37 34
M  V30 39 1 32 9
M  V30 40 1 31 12
M  V30 41 1 30 16
M  V30 42 1 29 18
M  V30 43 1 25 20
M  V30 44 1 3 38
M  V30 45 1 5 39
M  V30 46 1 7 40
M  V30 47 1 10 41
M  V30 48 1 13 42
M  V30 49 1 21 43
M  V30 50 1 22 44
M  V30 51 1 23 45
M  V30 52 1 25 46
M  V30 53 1 26 47
M  V30 54 1 28 48
M  V30 55 1 30 49
M  V30 56 1 32 50
M  V30 57 1 33 51
M  V30 58 1 34 52
M  V30 59 1 35 53
M  V30 60 1 35 54
M  V30 61 1 36 55
M  V30 62 1 36 56
M  V30 63 1 37 57
M  V30 64 1 37 58
M  V30 END BOND
M  V30 END CTAB
M  END
>  <Dataset>  (481) 
ChEMBL_Kinases

>  <Ligand_Instance>  (481) 
nan

>  <PDB_ID>  (481) 
nan

>  <Standardized_SMILES>  (481) 
O=C(Nc1cncc(-c2cnc3[nH]nc(-c4nc5c(-c6cccnc6)cncc5[nH]4)c3c2)c1)C1CCC1

>  <Name>  (481) 
nan

>  <Pocket>  (481) 
nan

>  <ATP_Site>  (481) 
nan

>  <Peripheral>  (481) 
nan

>  <Num_H_Atoms_ProtBoundConf>  (481) 
nan

>  <Num_Resolved_Atoms>  (481) 
nan

>  <Num_Not_Resolved_Atoms>  (481) 
nan

$$$$
CHEMBL4755308
     RDKit          3D

  0  0  0  0  0  0  0  0  0  0999 V3000
M  V30 BEGIN CTAB
M  V30 COUNTS 53 58 0 0 0
M  V30 BEGIN ATOM
M  V30 1 C 6.339339 1.213953 0.273978 0
M  V30 2 N 4.904980 0.932599 0.244981 0
M  V30 3 C 4.276531 -0.184108 0.924285 0
M  V30 4 C 4.108647 1.862401 -0.521408 0
M  V30 5 C 4.642664 2.949802 -1.169609 0
M  V30 6 N 3.867816 3.799840 -1.891541 0
M  V30 7 C 2.547053 3.624670 -2.008749 0
M  V30 8 C 2.040875 2.530472 -1.350309 0
M  V30 9 C 0.602035 2.299341 -1.409166 0
M  V30 10 C -0.268322 3.045918 -2.164733 0
M  V30 11 C -1.633992 2.863968 -2.325165 0
M  V30 12 C -2.207822 1.785399 -1.631498 0
M  V30 13 N -3.444846 1.222903 -1.472401 0
M  V30 14 N -3.353352 0.161157 -0.646770 0
M  V30 15 C -2.073119 0.043414 -0.279721 0
M  V30 16 C -1.659946 -1.022647 0.629934 0
M  V30 17 N -2.383660 -1.993087 1.214791 0
M  V30 18 C -1.537952 -2.746011 1.983892 0
M  V30 19 C -2.041783 -3.841367 2.715546 0
M  V30 20 C -3.417536 -4.293356 2.738730 0
M  V30 21 C -4.085694 -4.666421 3.854864 0
M  V30 22 C -5.380319 -5.031234 3.588052 0
M  V30 23 C -6.053026 -5.067772 2.410685 0
M  V30 24 C -5.302426 -4.670473 1.303267 0
M  V30 25 F -5.860031 -4.659205 0.059512 0
M  V30 26 C -3.962143 -4.272632 1.444477 0
M  V30 27 C -0.940041 -4.407617 3.407733 0
M  V30 28 C 0.343114 -3.934087 3.333691 0
M  V30 29 N 0.613700 -2.876809 2.572822 0
M  V30 30 C -0.289267 -2.221588 1.859006 0
M  V30 31 N -0.399242 -1.179232 1.030818 0
M  V30 32 C -1.319569 1.019017 -0.856045 0
M  V30 33 N -0.016363 1.297370 -0.783810 0
M  V30 34 C 2.715626 1.577205 -0.578066 0
M  V30 35 H 6.577444 2.166743 0.734303 0
M  V30 36 H 6.790363 1.030908 -0.724705 0
M  V30 37 H 6.753080 0.412188 0.944640 0
M  V30 38 H 3.336138 0.107113 1.436906 0
M  V30 39 H 4.956310 -0.493200 1.760092 0
M  V30 40 H 4.121446 -1.040942 0.233019 0
M  V30 41 H 5.724427 3.143703 -1.102315 0
M  V30 42 H 1.996959 4.332867 -2.597048 0
M  V30 43 H 0.063899 3.895980 -2.738643 0
M  V30 44 H -2.286928 3.454195 -2.919337 0
M  V30 45 H -4.214742 1.704553 -2.003689 0
M  V30 46 H -3.623023 -4.662665 4.814730 0
M  V30 47 H -6.004081 -5.352156 4.432791 0
M  V30 48 H -7.063031 -5.345959 2.192044 0
M  V30 49 H -3.458842 -3.982643 0.534814 0
M  V30 50 H -1.218918 -5.289228 4.018951 0
M  V30 51 H 1.133920 -4.428422 3.907410 0
M  V30 52 H 0.413244 -0.588157 0.749761 0
M  V30 53 H 2.216474 0.759359 -0.108189 0
M  V30 END ATOM
M  V30 BEGIN BOND
M  V30 1 1 1 2
M  V30 2 1 2 3
M  V30 3 1 2 4
M  V30 4 2 4 5
M  V30 5 1 5 6
M  V30 6 2 6 7
M  V30 7 1 7 8
M  V30 8 1 8 9
M  V30 9 2 9 10
M  V30 10 1 10 11
M  V30 11 2 11 12
M  V30 12 1 12 13
M  V30 13 1 13 14
M  V30 14 2 14 15
M  V30 15 1 15 16
M  V30 16 2 16 17
M  V30 17 1 17 18
M  V30 18 2 18 19
M  V30 19 1 19 20
M  V30 20 2 20 21
M  V30 21 1 21 22
M  V30 22 2 22 23
M  V30 23 1 23 24
M  V30 24 1 24 25
M  V30 25 2 24 26
M  V30 26 1 19 27
M  V30 27 2 27 28
M  V30 28 1 28 29
M  V30 29 2 29 30
M  V30 30 1 30 31
M  V30 31 1 15 32
M  V30 32 2 32 33
M  V30 33 2 8 34
M  V30 34 1 34 4
M  V30 35 1 33 9
M  V30 36 1 32 12
M  V30 37 1 31 16
M  V30 38 1 30 18
M  V30 39 1 26 20
M  V30 40 1 1 35
M  V30 41 1 1 36
M  V30 42 1 1 37
M  V30 43 1 3 38
M  V30 44 1 3 39
M  V30 45 1 3 40
M  V30 46 1 5 41
M  V30 47 1 7 42
M  V30 48 1 10 43
M  V30 49 1 11 44
M  V30 50 1 13 45
M  V30 51 1 21 46
M  V30 52 1 22 47
M  V30 53 1 23 48
M  V30 54 1 26 49
M  V30 55 1 27 50
M  V30 56 1 28 51
M  V30 57 1 31 52
M  V30 58 1 34 53
M  V30 END BOND
M  V30 END CTAB
M  END
>  <Dataset>  (482) 
ChEMBL_Kinases

>  <Ligand_Instance>  (482) 
nan

>  <PDB_ID>  (482) 
nan

>  <Standardized_SMILES>  (482) 
CN(C)c1cncc(-c2ccc3[nH]nc(-c4nc5c(-c6cccc(F)c6)ccnc5[nH]4)c3n2)c1

>  <Name>  (482) 
nan

>  <Pocket>  (482) 
nan

>  <ATP_Site>  (482) 
nan

>  <Peripheral>  (482) 
nan

>  <Num_H_Atoms_ProtBoundConf>  (482) 
nan

>  <Num_Resolved_Atoms>  (482) 
nan

>  <Num_Not_Resolved_Atoms>  (482) 
nan

$$$$
CHEMBL4755268
     RDKit          3D

  0  0  0  0  0  0  0  0  0  0999 V3000
M  V30 BEGIN CTAB
M  V30 COUNTS 49 54 0 0 0
M  V30 BEGIN ATOM
M  V30 1 N 3.074421 -3.874615 1.727152 0
M  V30 2 C 3.747839 -2.734302 1.203369 0
M  V30 3 C 4.996450 -2.815249 0.597650 0
M  V30 4 N 5.589986 -1.709232 0.119259 0
M  V30 5 C 5.033939 -0.490122 0.192240 0
M  V30 6 C 3.798423 -0.319990 0.776718 0
M  V30 7 C 3.105205 0.955116 0.909130 0
M  V30 8 C 3.810114 2.137052 1.072256 0
M  V30 9 C 3.117517 3.345362 1.196081 0
M  V30 10 C 1.737596 3.347668 1.154407 0
M  V30 11 N 0.799698 4.307133 1.240603 0
M  V30 12 N -0.399225 3.769707 1.139483 0
M  V30 13 C -0.346012 2.440263 0.981939 0
M  V30 14 C -1.490508 1.570471 0.841751 0
M  V30 15 C -1.728007 0.241763 0.674650 0
M  V30 16 C -3.065979 -0.060095 0.595855 0
M  V30 17 C -3.733361 -1.257012 0.430438 0
M  V30 18 C -2.995477 -2.509831 0.303850 0
M  V30 19 C -2.602268 -3.371291 1.307597 0
M  V30 20 C -1.905241 -4.521146 0.998038 0
M  V30 21 C -1.563138 -4.880806 -0.288576 0
M  V30 22 C -1.964102 -4.004497 -1.300416 0
M  V30 23 C -2.665512 -2.843317 -1.010962 0
M  V30 24 F -3.011391 -2.051308 -2.077490 0
M  V30 25 C -5.111594 -1.284345 0.382747 0
M  V30 26 C -5.697670 -0.037657 0.513779 0
M  V30 27 N -5.043959 1.126401 0.674824 0
M  V30 28 C -3.700246 1.150054 0.720915 0
M  V30 29 N -2.741226 2.081913 0.863395 0
M  V30 30 C 1.000409 2.192942 0.993612 0
M  V30 31 C 1.735373 1.041567 0.877941 0
M  V30 32 C 3.197654 -1.461587 1.264549 0
M  V30 33 H 2.986587 -4.298745 2.678878 0
M  V30 34 H 2.473512 -4.621615 1.326479 0
M  V30 35 H 5.489603 -3.774834 0.512739 0
M  V30 36 H 5.528680 0.401870 -0.201709 0
M  V30 37 H 4.888118 2.156577 1.107267 0
M  V30 38 H 3.625942 4.292511 1.324841 0
M  V30 39 H 0.944777 5.330238 1.367596 0
M  V30 40 H -0.960583 -0.500042 0.610087 0
M  V30 41 H -2.887063 -3.057572 2.298527 0
M  V30 42 H -1.612494 -5.172515 1.800706 0
M  V30 43 H -1.019032 -5.780058 -0.522142 0
M  V30 44 H -1.722820 -4.232988 -2.348360 0
M  V30 45 H -5.702195 -2.176909 0.256502 0
M  V30 46 H -6.776167 0.077082 0.492808 0
M  V30 47 H -3.081815 3.073920 0.971691 0
M  V30 48 H 1.220491 0.108403 0.750573 0
M  V30 49 H 2.217652 -1.413787 1.742331 0
M  V30 END ATOM
M  V30 BEGIN BOND
M  V30 1 1 1 2
M  V30 2 2 2 3
M  V30 3 1 3 4
M  V30 4 2 4 5
M  V30 5 1 5 6
M  V30 6 1 6 7
M  V30 7 2 7 8
M  V30 8 1 8 9
M  V30 9 2 9 10
M  V30 10 1 10 11
M  V30 11 1 11 12
M  V30 12 2 12 13
M  V30 13 1 13 14
M  V30 14 2 14 15
M  V30 15 1 15 16
M  V30 16 2 16 17
M  V30 17 1 17 18
M  V30 18 2 18 19
M  V30 19 1 19 20
M  V30 20 2 20 21
M  V30 21 1 21 22
M  V30 22 2 22 23
M  V30 23 1 23 24
M  V30 24 1 17 25
M  V30 25 2 25 26
M  V30 26 1 26 27
M  V30 27 2 27 28
M  V30 28 1 28 29
M  V30 29 1 13 30
M  V30 30 2 30 31
M  V30 31 2 6 32
M  V30 32 1 32 2
M  V30 33 1 31 7
M  V30 34 1 30 10
M  V30 35 1 29 14
M  V30 36 1 28 16
M  V30 37 1 23 18
M  V30 38 1 1 33
M  V30 39 1 1 34
M  V30 40 1 3 35
M  V30 41 1 5 36
M  V30 42 1 8 37
M  V30 43 1 9 38
M  V30 44 1 11 39
M  V30 45 1 15 40
M  V30 46 1 19 41
M  V30 47 1 20 42
M  V30 48 1 21 43
M  V30 49 1 22 44
M  V30 50 1 25 45
M  V30 51 1 26 46
M  V30 52 1 29 47
M  V30 53 1 31 48
M  V30 54 1 32 49
M  V30 END BOND
M  V30 END CTAB
M  END
>  <Dataset>  (483) 
ChEMBL_Kinases

>  <Ligand_Instance>  (483) 
nan

>  <PDB_ID>  (483) 
nan

>  <Standardized_SMILES>  (483) 
Nc1cncc(-c2ccc3[nH]nc(-c4cc5c(-c6ccccc6F)ccnc5[nH]4)c3c2)c1

>  <Name>  (483) 
nan

>  <Pocket>  (483) 
nan

>  <ATP_Site>  (483) 
nan

>  <Peripheral>  (483) 
nan

>  <Num_H_Atoms_ProtBoundConf>  (483) 
nan

>  <Num_Resolved_Atoms>  (483) 
nan

>  <Num_Not_Resolved_Atoms>  (483) 
nan

$$$$
CHEMBL4755182
     RDKit          3D

  0  0  0  0  0  0  0  0  0  0999 V3000
M  V30 BEGIN CTAB
M  V30 COUNTS 56 59 0 0 0
M  V30 BEGIN ATOM
M  V30 1 C 2.905712 4.111752 5.547262 0
M  V30 2 N 2.804264 2.671387 5.289372 0
M  V30 3 C 2.300156 2.096614 6.521296 0
M  V30 4 C 4.115235 2.206205 4.925094 0
M  V30 5 C 4.149089 0.728504 4.631322 0
M  V30 6 N 3.294575 0.334780 3.557114 0
M  V30 7 C 3.456384 0.852347 2.242077 0
M  V30 8 C 2.630132 0.469406 1.228798 0
M  V30 9 C 2.717762 0.921465 -0.071370 0
M  V30 10 C 1.839995 0.519839 -1.165433 0
M  V30 11 O 1.981178 0.976032 -2.328182 0
M  V30 12 N 0.781401 -0.400788 -0.993572 0
M  V30 13 C -0.098149 -0.813262 -2.055134 0
M  V30 14 C -1.126375 -1.731117 -1.809553 0
M  V30 15 C -1.980561 -2.146727 -2.785062 0
M  V30 16 C -2.953583 -3.052233 -2.425247 0
M  V30 17 C -3.846138 -3.510231 -3.362158 0
M  V30 18 C -4.861082 -4.470807 -2.928561 0
M  V30 19 C -5.490484 -5.506433 -3.611611 0
M  V30 20 N -6.347485 -6.090099 -2.754421 0
M  V30 21 N -6.323385 -5.515713 -1.572004 0
M  V30 22 C -7.055421 -5.788019 -0.350116 0
M  V30 23 C -5.417499 -4.523802 -1.667203 0
M  V30 24 C -3.742810 -3.045032 -4.655726 0
M  V30 25 C -2.752708 -2.128450 -5.005699 0
M  V30 26 C -1.857422 -1.665723 -4.076712 0
M  V30 27 C -0.839025 -0.767646 -4.282376 0
M  V30 28 N -0.007361 -0.372230 -3.300992 0
M  V30 29 C 3.726878 1.827179 -0.332974 0
M  V30 30 C 4.580136 2.225776 0.703151 0
M  V30 31 N 4.427688 1.734692 1.954596 0
M  V30 32 H 3.140447 4.648639 4.615233 0
M  V30 33 H 1.938202 4.487653 5.978063 0
M  V30 34 H 3.713472 4.298454 6.282578 0
M  V30 35 H 2.847874 2.550027 7.389519 0
M  V30 36 H 1.248832 2.496578 6.612729 0
M  V30 37 H 2.318177 1.002835 6.512455 0
M  V30 38 H 4.793738 2.381845 5.795686 0
M  V30 39 H 4.447125 2.823779 4.067807 0
M  V30 40 H 5.218796 0.485390 4.376404 0
M  V30 41 H 3.917254 0.178670 5.552629 0
M  V30 42 H 2.530290 -0.351585 3.740706 0
M  V30 43 H 1.857714 -0.232479 1.459225 0
M  V30 44 H 0.621329 -0.808155 -0.052441 0
M  V30 45 H -1.212961 -2.101307 -0.790897 0
M  V30 46 H -3.022910 -3.408542 -1.406292 0
M  V30 47 H -5.280603 -5.743585 -4.643134 0
M  V30 48 H -6.460268 -6.384191 0.369576 0
M  V30 49 H -7.268594 -4.829058 0.195350 0
M  V30 50 H -8.009783 -6.241490 -0.624681 0
M  V30 51 H -5.136969 -3.832508 -0.868140 0
M  V30 52 H -4.439491 -3.398232 -5.403547 0
M  V30 53 H -2.644626 -1.744201 -6.010392 0
M  V30 54 H -0.738841 -0.386899 -5.297661 0
M  V30 55 H 3.852480 2.221005 -1.327714 0
M  V30 56 H 5.381724 2.933823 0.533811 0
M  V30 END ATOM
M  V30 BEGIN BOND
M  V30 1 1 1 2
M  V30 2 1 2 3
M  V30 3 1 2 4
M  V30 4 1 4 5
M  V30 5 1 5 6
M  V30 6 1 6 7
M  V30 7 2 7 8
M  V30 8 1 8 9
M  V30 9 1 9 10
M  V30 10 2 10 11
M  V30 11 1 10 12
M  V30 12 1 12 13
M  V30 13 2 13 14
M  V30 14 1 14 15
M  V30 15 2 15 16
M  V30 16 1 16 17
M  V30 17 1 17 18
M  V30 18 1 18 19
M  V30 19 2 19 20
M  V30 20 1 20 21
M  V30 21 1 21 22
M  V30 22 1 21 23
M  V30 23 2 17 24
M  V30 24 1 24 25
M  V30 25 2 25 26
M  V30 26 1 26 27
M  V30 27 2 27 28
M  V30 28 2 9 29
M  V30 29 1 29 30
M  V30 30 2 30 31
M  V30 31 1 31 7
M  V30 32 1 28 13
M  V30 33 1 26 15
M  V30 34 2 23 18
M  V30 35 1 1 32
M  V30 36 1 1 33
M  V30 37 1 1 34
M  V30 38 1 3 35
M  V30 39 1 3 36
M  V30 40 1 3 37
M  V30 41 1 4 38
M  V30 42 1 4 39
M  V30 43 1 5 40
M  V30 44 1 5 41
M  V30 45 1 6 42
M  V30 46 1 8 43
M  V30 47 1 12 44
M  V30 48 1 14 45
M  V30 49 1 16 46
M  V30 50 1 19 47
M  V30 51 1 22 48
M  V30 52 1 22 49
M  V30 53 1 22 50
M  V30 54 1 23 51
M  V30 55 1 24 52
M  V30 56 1 25 53
M  V30 57 1 27 54
M  V30 58 1 29 55
M  V30 59 1 30 56
M  V30 END BOND
M  V30 END CTAB
M  END
>  <Dataset>  (484) 
ChEMBL_Kinases

>  <Ligand_Instance>  (484) 
nan

>  <PDB_ID>  (484) 
nan

>  <Standardized_SMILES>  (484) 
CN(C)CCNc1cc(C(=O)Nc2cc3cc(-c4cnn(C)c4)ccc3cn2)ccn1

>  <Name>  (484) 
nan

>  <Pocket>  (484) 
nan

>  <ATP_Site>  (484) 
nan

>  <Peripheral>  (484) 
nan

>  <Num_H_Atoms_ProtBoundConf>  (484) 
nan

>  <Num_Resolved_Atoms>  (484) 
nan

>  <Num_Not_Resolved_Atoms>  (484) 
nan

$$$$
CHEMBL4755078
     RDKit          3D

  0  0  0  0  0  0  0  0  0  0999 V3000
M  V30 BEGIN CTAB
M  V30 COUNTS 57 62 0 0 0
M  V30 BEGIN ATOM
M  V30 1 C 3.271497 -3.643436 2.208928 0
M  V30 2 N 3.094884 -2.207883 2.179280 0
M  V30 3 C 3.335450 -1.687823 3.487430 0
M  V30 4 C 3.881194 -1.601299 1.150187 0
M  V30 5 C 3.649319 -0.122015 1.184739 0
M  V30 6 C 4.435628 0.727860 1.953087 0
M  V30 7 N 4.235075 2.060780 1.991127 0
M  V30 8 C 3.232121 2.567734 1.251252 0
M  V30 9 C 2.434797 1.739417 0.477156 0
M  V30 10 C 1.389634 2.434035 -0.269638 0
M  V30 11 C 1.569512 3.722061 -0.738260 0
M  V30 12 N 0.595122 4.346405 -1.424270 0
M  V30 13 C -0.567174 3.710795 -1.656924 0
M  V30 14 N -1.697191 4.050755 -2.289818 0
M  V30 15 N -2.557085 3.060265 -2.241256 0
M  V30 16 C -2.072416 1.993688 -1.579071 0
M  V30 17 C -2.776426 0.750433 -1.355199 0
M  V30 18 C -2.535732 -0.429056 -0.748859 0
M  V30 19 C -3.602814 -1.297984 -0.839604 0
M  V30 20 C -3.776906 -2.583561 -0.369515 0
M  V30 21 C -2.743075 -3.290555 0.375817 0
M  V30 22 C -1.953200 -2.895401 1.416243 0
M  V30 23 C -1.026545 -3.760469 1.957623 0
M  V30 24 C -0.867485 -5.041608 1.472088 0
M  V30 25 C -1.653831 -5.463893 0.421982 0
M  V30 26 F -1.464576 -6.727712 -0.021647 0
M  V30 27 C -2.578892 -4.592325 -0.114782 0
M  V30 28 N -4.971145 -3.192558 -0.629228 0
M  V30 29 C -5.937457 -2.557960 -1.317511 0
M  V30 30 C -5.741452 -1.272339 -1.777809 0
M  V30 31 C -4.548462 -0.611376 -1.540927 0
M  V30 32 N -4.033463 0.593220 -1.831419 0
M  V30 33 C -0.817241 2.418539 -1.216691 0
M  V30 34 C 0.192933 1.812934 -0.523290 0
M  V30 35 C 2.614747 0.385355 0.419216 0
M  V30 36 H 3.515754 -4.076041 1.209186 0
M  V30 37 H 2.325595 -4.135880 2.561893 0
M  V30 38 H 4.034883 -3.872841 2.971071 0
M  V30 39 H 2.571909 -2.153156 4.176231 0
M  V30 40 H 3.148979 -0.599474 3.578387 0
M  V30 41 H 4.325033 -1.982297 3.862892 0
M  V30 42 H 3.685470 -2.029618 0.169304 0
M  V30 43 H 4.960937 -1.723903 1.457397 0
M  V30 44 H 5.247113 0.319554 2.552051 0
M  V30 45 H 3.116782 3.633510 1.318309 0
M  V30 46 H 2.505571 4.253225 -0.559020 0
M  V30 47 H -1.881213 4.962981 -2.756374 0
M  V30 48 H -1.625179 -0.678114 -0.252041 0
M  V30 49 H -2.152446 -1.884971 1.727650 0
M  V30 50 H -0.446622 -3.347952 2.782897 0
M  V30 51 H -0.112426 -5.623548 1.976095 0
M  V30 52 H -3.139724 -5.046802 -0.942329 0
M  V30 53 H -6.902203 -3.023511 -1.538684 0
M  V30 54 H -6.504039 -0.760533 -2.325175 0
M  V30 55 H -4.653332 1.245866 -2.377456 0
M  V30 56 H 0.065460 0.832185 -0.161964 0
M  V30 57 H 1.966367 -0.217453 -0.199666 0
M  V30 END ATOM
M  V30 BEGIN BOND
M  V30 1 1 1 2
M  V30 2 1 2 3
M  V30 3 1 2 4
M  V30 4 1 4 5
M  V30 5 2 5 6
M  V30 6 1 6 7
M  V30 7 2 7 8
M  V30 8 1 8 9
M  V30 9 1 9 10
M  V30 10 2 10 11
M  V30 11 1 11 12
M  V30 12 2 12 13
M  V30 13 1 13 14
M  V30 14 1 14 15
M  V30 15 2 15 16
M  V30 16 1 16 17
M  V30 17 2 17 18
M  V30 18 1 18 19
M  V30 19 2 19 20
M  V30 20 1 20 21
M  V30 21 2 21 22
M  V30 22 1 22 23
M  V30 23 2 23 24
M  V30 24 1 24 25
M  V30 25 1 25 26
M  V30 26 2 25 27
M  V30 27 1 20 28
M  V30 28 2 28 29
M  V30 29 1 29 30
M  V30 30 2 30 31
M  V30 31 1 31 32
M  V30 32 1 16 33
M  V30 33 2 33 34
M  V30 34 2 9 35
M  V30 35 1 35 5
M  V30 36 1 34 10
M  V30 37 1 33 13
M  V30 38 1 32 17
M  V30 39 1 31 19
M  V30 40 1 27 21
M  V30 41 1 1 36
M  V30 42 1 1 37
M  V30 43 1 1 38
M  V30 44 1 3 39
M  V30 45 1 3 40
M  V30 46 1 3 41
M  V30 47 1 4 42
M  V30 48 1 4 43
M  V30 49 1 6 44
M  V30 50 1 8 45
M  V30 51 1 11 46
M  V30 52 1 14 47
M  V30 53 1 18 48
M  V30 54 1 22 49
M  V30 55 1 23 50
M  V30 56 1 24 51
M  V30 57 1 27 52
M  V30 58 1 29 53
M  V30 59 1 30 54
M  V30 60 1 32 55
M  V30 61 1 34 56
M  V30 62 1 35 57
M  V30 END BOND
M  V30 END CTAB
M  END
>  <Dataset>  (485) 
ChEMBL_Kinases

>  <Ligand_Instance>  (485) 
nan

>  <PDB_ID>  (485) 
nan

>  <Standardized_SMILES>  (485) 
CN(C)Cc1cncc(-c2cnc3[nH]nc(-c4cc5c(-c6cccc(F)c6)nccc5[nH]4)c3c2)c1

>  <Name>  (485) 
nan

>  <Pocket>  (485) 
nan

>  <ATP_Site>  (485) 
nan

>  <Peripheral>  (485) 
nan

>  <Num_H_Atoms_ProtBoundConf>  (485) 
nan

>  <Num_Resolved_Atoms>  (485) 
nan

>  <Num_Not_Resolved_Atoms>  (485) 
nan

$$$$
CHEMBL4755073
     RDKit          3D

  0  0  0  0  0  0  0  0  0  0999 V3000
M  V30 BEGIN CTAB
M  V30 COUNTS 39 43 0 0 0
M  V30 BEGIN ATOM
M  V30 1 N 3.324661 -6.090325 -0.264545 0
M  V30 2 C 2.984206 -4.820299 0.252443 0
M  V30 3 C 3.203052 -4.665517 1.598558 0
M  V30 4 N 2.899348 -3.472566 2.164461 0
M  V30 5 C 2.397010 -2.478001 1.408859 0
M  V30 6 C 2.182778 -2.655512 0.046844 0
M  V30 7 C 1.633442 -1.532181 -0.708835 0
M  V30 8 C 1.968143 -1.356294 -2.035441 0
M  V30 9 C 1.429328 -0.285829 -2.716093 0
M  V30 10 C 0.577220 0.571507 -2.054098 0
M  V30 11 N -0.090264 1.674789 -2.434358 0
M  V30 12 N -0.784076 2.145061 -1.422023 0
M  V30 13 C -0.635469 1.409585 -0.318681 0
M  V30 14 C -1.273087 1.674904 0.949766 0
M  V30 15 C -1.297858 1.108501 2.194089 0
M  V30 16 C -2.104604 1.789099 3.078710 0
M  V30 17 C -2.421422 1.582846 4.406119 0
M  V30 18 C -3.279233 2.459469 5.028322 0
M  V30 19 C -3.757230 3.487816 4.257161 0
M  V30 20 N -3.445815 3.684570 2.964984 0
M  V30 21 C -2.609356 2.840464 2.336155 0
M  V30 22 N -2.097308 2.735306 1.097147 0
M  V30 23 C 0.223191 0.425729 -0.734935 0
M  V30 24 C 0.777759 -0.651702 -0.084527 0
M  V30 25 C 2.476830 -3.864104 -0.594537 0
M  V30 26 H 2.523354 -6.703733 -0.559727 0
M  V30 27 H 4.067812 -6.777984 -0.518424 0
M  V30 28 H 3.601229 -5.436252 2.229957 0
M  V30 29 H 2.176914 -1.555847 1.915638 0
M  V30 30 H 2.644158 -2.043790 -2.546591 0
M  V30 31 H 1.646573 -0.089290 -3.746985 0
M  V30 32 H -0.104762 2.142438 -3.366696 0
M  V30 33 H -0.762895 0.238705 2.473783 0
M  V30 34 H -1.977546 0.721867 4.927827 0
M  V30 35 H -3.528229 2.300069 6.066208 0
M  V30 36 H -4.437643 4.184442 4.746742 0
M  V30 37 H -2.392562 3.474462 0.404017 0
M  V30 38 H 0.539666 -0.819379 0.948405 0
M  V30 39 H 2.309651 -3.993828 -1.643585 0
M  V30 END ATOM
M  V30 BEGIN BOND
M  V30 1 1 1 2
M  V30 2 2 2 3
M  V30 3 1 3 4
M  V30 4 2 4 5
M  V30 5 1 5 6
M  V30 6 1 6 7
M  V30 7 2 7 8
M  V30 8 1 8 9
M  V30 9 2 9 10
M  V30 10 1 10 11
M  V30 11 1 11 12
M  V30 12 2 12 13
M  V30 13 1 13 14
M  V30 14 2 14 15
M  V30 15 1 15 16
M  V30 16 2 16 17
M  V30 17 1 17 18
M  V30 18 2 18 19
M  V30 19 1 19 20
M  V30 20 2 20 21
M  V30 21 1 21 22
M  V30 22 1 13 23
M  V30 23 2 23 24
M  V30 24 2 6 25
M  V30 25 1 25 2
M  V30 26 1 24 7
M  V30 27 1 23 10
M  V30 28 1 22 14
M  V30 29 1 21 16
M  V30 30 1 1 26
M  V30 31 1 1 27
M  V30 32 1 3 28
M  V30 33 1 5 29
M  V30 34 1 8 30
M  V30 35 1 9 31
M  V30 36 1 11 32
M  V30 37 1 15 33
M  V30 38 1 17 34
M  V30 39 1 18 35
M  V30 40 1 19 36
M  V30 41 1 22 37
M  V30 42 1 24 38
M  V30 43 1 25 39
M  V30 END BOND
M  V30 END CTAB
M  END
>  <Dataset>  (486) 
ChEMBL_Kinases

>  <Ligand_Instance>  (486) 
nan

>  <PDB_ID>  (486) 
nan

>  <Standardized_SMILES>  (486) 
Nc1cncc(-c2ccc3[nH]nc(-c4cc5cccnc5[nH]4)c3c2)c1

>  <Name>  (486) 
nan

>  <Pocket>  (486) 
nan

>  <ATP_Site>  (486) 
nan

>  <Peripheral>  (486) 
nan

>  <Num_H_Atoms_ProtBoundConf>  (486) 
nan

>  <Num_Resolved_Atoms>  (486) 
nan

>  <Num_Not_Resolved_Atoms>  (486) 
nan

$$$$
CHEMBL271091
     RDKit          3D

  0  0  0  0  0  0  0  0  0  0999 V3000
M  V30 BEGIN CTAB
M  V30 COUNTS 73 80 0 0 0
M  V30 BEGIN ATOM
M  V30 1 O 1.748483 -4.989074 -3.894215 0
M  V30 2 C 2.093788 -4.999438 -2.704933 0
M  V30 3 N 2.076545 -6.102402 -1.970435 0
M  V30 4 C 2.510148 -5.742441 -0.745844 0
M  V30 5 C 2.723720 -6.392767 0.451841 0
M  V30 6 C 3.181877 -5.809824 1.599349 0
M  V30 7 C 3.453920 -4.445279 1.548560 0
M  V30 8 C 3.252957 -3.764640 0.372330 0
M  V30 9 C 2.783215 -4.377083 -0.793519 0
M  V30 10 N 2.513955 -3.911781 -2.049417 0
M  V30 11 C 2.706172 -2.542772 -2.373527 0
M  V30 12 C 1.747093 -2.024136 -3.419917 0
M  V30 13 C 2.191731 -0.617138 -3.849189 0
M  V30 14 N 3.083267 -0.145148 -2.868153 0
M  V30 15 C 2.860096 1.083898 -2.231266 0
M  V30 16 C 1.567888 1.052662 -1.501886 0
M  V30 17 C 1.564338 0.555299 -0.192487 0
M  V30 18 C 0.402261 0.502974 0.549052 0
M  V30 19 C -0.799542 0.930690 0.048632 0
M  V30 20 C -2.002028 0.854890 0.869684 0
M  V30 21 N -3.036329 0.068937 0.464070 0
M  V30 22 C -4.145580 0.001520 1.223401 0
M  V30 23 C -5.212257 -0.786197 0.839832 0
M  V30 24 C -6.394551 -0.930561 1.537192 0
M  V30 25 C -6.516297 -0.217653 2.729998 0
M  V30 26 C -7.726836 -0.291377 3.557072 0
M  V30 27 N -7.862065 -0.306233 4.897220 0
M  V30 28 N -9.178940 -0.382696 5.101724 0
M  V30 29 N -9.807394 -0.412502 3.939609 0
M  V30 30 N -8.917967 -0.356235 2.935501 0
M  V30 31 C -5.454730 0.590481 3.148999 0
M  V30 32 C -4.292852 0.696279 2.408059 0
M  V30 33 N -3.261223 1.488261 2.825282 0
M  V30 34 C -2.140972 1.558088 2.061023 0
M  V30 35 C -0.985624 2.372981 2.419200 0
M  V30 36 C -0.532876 3.416016 1.659858 0
M  V30 37 C 0.550973 4.216436 1.951197 0
M  V30 38 C 1.205187 3.886586 3.137792 0
M  V30 39 C 0.839915 2.860061 3.980311 0
M  V30 40 C -0.258484 2.130420 3.583633 0
M  V30 41 C -0.821096 1.425170 -1.239323 0
M  V30 42 C 0.343755 1.474511 -1.973768 0
M  V30 43 C 4.359653 -0.750087 -2.783397 0
M  V30 44 C 4.129143 -2.267088 -2.878362 0
M  V30 45 H 1.790343 -7.063535 -2.257552 0
M  V30 46 H 2.503385 -7.446618 0.455388 0
M  V30 47 H 3.317935 -6.406161 2.493953 0
M  V30 48 H 3.818196 -3.971643 2.451658 0
M  V30 49 H 3.479457 -2.716581 0.391101 0
M  V30 50 H 2.580946 -1.866327 -1.492915 0
M  V30 51 H 0.720068 -1.893302 -3.021317 0
M  V30 52 H 1.708669 -2.707672 -4.264716 0
M  V30 53 H 1.337643 0.028702 -4.022735 0
M  V30 54 H 2.683830 -0.782684 -4.858052 0
M  V30 55 H 3.657547 1.251964 -1.447885 0
M  V30 56 H 2.854945 1.966109 -2.938727 0
M  V30 57 H 2.503957 0.213175 0.219715 0
M  V30 58 H 0.411595 0.119606 1.551809 0
M  V30 59 H -5.191431 -1.368928 -0.074613 0
M  V30 60 H -7.207191 -1.545334 1.222205 0
M  V30 61 H -10.848796 -0.471134 3.742387 0
M  V30 62 H -5.491984 1.171573 4.073328 0
M  V30 63 H -1.099810 3.611673 0.744176 0
M  V30 64 H 0.886682 5.033077 1.334161 0
M  V30 65 H 2.071659 4.503609 3.398707 0
M  V30 66 H 1.381837 2.648289 4.887296 0
M  V30 67 H -0.589177 1.301150 4.222054 0
M  V30 68 H -1.753577 1.778758 -1.685171 0
M  V30 69 H 0.303260 1.867220 -2.965668 0
M  V30 70 H 5.116183 -0.428388 -3.500236 0
M  V30 71 H 4.782478 -0.598360 -1.771470 0
M  V30 72 H 4.875162 -2.841026 -2.329615 0
M  V30 73 H 4.094489 -2.494443 -3.964924 0
M  V30 END ATOM
M  V30 BEGIN BOND
M  V30 1 2 1 2
M  V30 2 1 2 3
M  V30 3 1 3 4
M  V30 4 2 4 5
M  V30 5 1 5 6
M  V30 6 2 6 7
M  V30 7 1 7 8
M  V30 8 2 8 9
M  V30 9 1 9 10
M  V30 10 1 10 11
M  V30 11 1 11 12
M  V30 12 1 12 13
M  V30 13 1 13 14
M  V30 14 1 14 15
M  V30 15 1 15 16
M  V30 16 2 16 17
M  V30 17 1 17 18
M  V30 18 2 18 19
M  V30 19 1 19 20
M  V30 20 2 20 21
M  V30 21 1 21 22
M  V30 22 2 22 23
M  V30 23 1 23 24
M  V30 24 2 24 25
M  V30 25 1 25 26
M  V30 26 1 26 27
M  V30 27 2 27 28
M  V30 28 1 28 29
M  V30 29 1 29 30
M  V30 30 1 25 31
M  V30 31 2 31 32
M  V30 32 1 32 33
M  V30 33 2 33 34
M  V30 34 1 34 35
M  V30 35 2 35 36
M  V30 36 1 36 37
M  V30 37 2 37 38
M  V30 38 1 38 39
M  V30 39 2 39 40
M  V30 40 1 19 41
M  V30 41 2 41 42
M  V30 42 1 14 43
M  V30 43 1 43 44
M  V30 44 1 10 2
M  V30 45 1 44 11
M  V30 46 1 9 4
M  V30 47 1 42 16
M  V30 48 1 34 20
M  V30 49 1 40 35
M  V30 50 1 32 22
M  V30 51 2 30 26
M  V30 52 1 3 45
M  V30 53 1 5 46
M  V30 54 1 6 47
M  V30 55 1 7 48
M  V30 56 1 8 49
M  V30 57 1 11 50
M  V30 58 1 12 51
M  V30 59 1 12 52
M  V30 60 1 13 53
M  V30 61 1 13 54
M  V30 62 1 15 55
M  V30 63 1 15 56
M  V30 64 1 17 57
M  V30 65 1 18 58
M  V30 66 1 23 59
M  V30 67 1 24 60
M  V30 68 1 29 61
M  V30 69 1 31 62
M  V30 70 1 36 63
M  V30 71 1 37 64
M  V30 72 1 38 65
M  V30 73 1 39 66
M  V30 74 1 40 67
M  V30 75 1 41 68
M  V30 76 1 42 69
M  V30 77 1 43 70
M  V30 78 1 43 71
M  V30 79 1 44 72
M  V30 80 1 44 73
M  V30 END BOND
M  V30 END CTAB
M  END
>  <Dataset>  (487) 
ChEMBL_Kinases

>  <Ligand_Instance>  (487) 
nan

>  <PDB_ID>  (487) 
nan

>  <Standardized_SMILES>  (487) 
O=c1[nH]c2ccccc2n1C1CCN(Cc2ccc(-c3nc4ccc(-c5nn[nH]n5)cc4nc3-c3ccccc3)cc2)CC1

>  <Name>  (487) 
nan

>  <Pocket>  (487) 
nan

>  <ATP_Site>  (487) 
nan

>  <Peripheral>  (487) 
nan

>  <Num_H_Atoms_ProtBoundConf>  (487) 
nan

>  <Num_Resolved_Atoms>  (487) 
nan

>  <Num_Not_Resolved_Atoms>  (487) 
nan

$$$$
CHEMBL4755598
     RDKit          3D

  0  0  0  0  0  0  0  0  0  0999 V3000
M  V30 BEGIN CTAB
M  V30 COUNTS 60 66 0 0 0
M  V30 BEGIN ATOM
M  V30 1 O 4.344684 -0.731323 1.944128 0
M  V30 2 C 3.996119 -0.398711 3.106207 0
M  V30 3 N 3.742290 0.997310 3.258673 0
M  V30 4 C 3.977151 1.609222 1.972917 0
M  V30 5 C 5.195041 2.107193 1.556085 0
M  V30 6 N 5.261868 2.652560 0.321920 0
M  V30 7 C 4.203967 2.729322 -0.506886 0
M  V30 8 C 2.994984 2.226200 -0.072433 0
M  V30 9 C 1.809293 2.290626 -0.952799 0
M  V30 10 C 1.766842 3.383195 -1.804097 0
M  V30 11 C 0.685663 3.501134 -2.651335 0
M  V30 12 C -0.297813 2.537619 -2.616948 0
M  V30 13 N -1.445386 2.370610 -3.297011 0
M  V30 14 N -2.072269 1.280277 -2.917299 0
M  V30 15 C -1.389958 0.641240 -1.957799 0
M  V30 16 C -1.780630 -0.590915 -1.306305 0
M  V30 17 C -2.966106 -1.248435 -1.645949 0
M  V30 18 C -3.143801 -2.391799 -0.912271 0
M  V30 19 C -4.107083 -3.374199 -0.848956 0
M  V30 20 C -5.271780 -3.316831 -1.707273 0
M  V30 21 C -6.442615 -3.565347 -0.982880 0
M  V30 22 C -7.677337 -3.558041 -1.640768 0
M  V30 23 C -7.761723 -3.307081 -3.007974 0
M  V30 24 N -6.611863 -3.078404 -3.638646 0
M  V30 25 C -5.402795 -3.073630 -3.057584 0
M  V30 26 N -3.973969 -4.398621 0.017697 0
M  V30 27 C -2.907980 -4.491600 0.837685 0
M  V30 28 C -1.937538 -3.522001 0.788642 0
M  V30 29 C -2.048609 -2.465782 -0.086263 0
M  V30 30 N -1.295451 -1.392726 -0.362731 0
M  V30 31 C -0.288499 1.444481 -1.788476 0
M  V30 32 C 0.801027 1.350641 -0.953443 0
M  V30 33 C 2.840369 1.649329 1.181491 0
M  V30 34 C 3.882373 -1.415023 4.161792 0
M  V30 35 C 4.185546 -2.696206 3.753350 0
M  V30 36 C 4.099091 -3.718181 4.706185 0
M  V30 37 C 3.716011 -3.356075 5.980245 0
M  V30 38 C 3.410166 -2.078868 6.401657 0
M  V30 39 C 3.505216 -1.078196 5.427808 0
M  V30 40 H 3.445788 1.308777 4.229941 0
M  V30 41 H 6.024517 2.031012 2.242992 0
M  V30 42 H 4.252529 3.157160 -1.477457 0
M  V30 43 H 2.516743 4.159948 -1.861936 0
M  V30 44 H 0.567984 4.318278 -3.348246 0
M  V30 45 H -1.857935 2.984877 -4.048537 0
M  V30 46 H -3.704364 -0.955359 -2.381789 0
M  V30 47 H -6.516080 -3.771745 0.070479 0
M  V30 48 H -8.624298 -3.745120 -1.128398 0
M  V30 49 H -8.703190 -3.295622 -3.540795 0
M  V30 50 H -4.449887 -2.897609 -3.530827 0
M  V30 51 H -2.748342 -5.299463 1.559493 0
M  V30 52 H -1.076350 -3.574745 1.433902 0
M  V30 53 H -0.417080 -1.243028 0.142668 0
M  V30 54 H 0.903618 0.534545 -0.267732 0
M  V30 55 H 1.880521 1.281524 1.452229 0
M  V30 56 H 4.485245 -2.971979 2.751955 0
M  V30 57 H 4.325089 -4.739986 4.441629 0
M  V30 58 H 3.664558 -4.193782 6.685441 0
M  V30 59 H 3.117497 -1.880713 7.422200 0
M  V30 60 H 3.275614 -0.074899 5.717298 0
M  V30 END ATOM
M  V30 BEGIN BOND
M  V30 1 2 1 2
M  V30 2 1 2 3
M  V30 3 1 3 4
M  V30 4 2 4 5
M  V30 5 1 5 6
M  V30 6 2 6 7
M  V30 7 1 7 8
M  V30 8 1 8 9
M  V30 9 2 9 10
M  V30 10 1 10 11
M  V30 11 2 11 12
M  V30 12 1 12 13
M  V30 13 1 13 14
M  V30 14 2 14 15
M  V30 15 1 15 16
M  V30 16 2 16 17
M  V30 17 1 17 18
M  V30 18 2 18 19
M  V30 19 1 19 20
M  V30 20 2 20 21
M  V30 21 1 21 22
M  V30 22 2 22 23
M  V30 23 1 23 24
M  V30 24 2 24 25
M  V30 25 1 19 26
M  V30 26 2 26 27
M  V30 27 1 27 28
M  V30 28 2 28 29
M  V30 29 1 29 30
M  V30 30 1 15 31
M  V30 31 2 31 32
M  V30 32 2 8 33
M  V30 33 1 2 34
M  V30 34 2 34 35
M  V30 35 1 35 36
M  V30 36 2 36 37
M  V30 37 1 37 38
M  V30 38 2 38 39
M  V30 39 1 33 4
M  V30 40 1 39 34
M  V30 41 1 32 9
M  V30 42 1 31 12
M  V30 43 1 30 16
M  V30 44 1 29 18
M  V30 45 1 25 20
M  V30 46 1 3 40
M  V30 47 1 5 41
M  V30 48 1 7 42
M  V30 49 1 10 43
M  V30 50 1 11 44
M  V30 51 1 13 45
M  V30 52 1 17 46
M  V30 53 1 21 47
M  V30 54 1 22 48
M  V30 55 1 23 49
M  V30 56 1 25 50
M  V30 57 1 27 51
M  V30 58 1 28 52
M  V30 59 1 30 53
M  V30 60 1 32 54
M  V30 61 1 33 55
M  V30 62 1 35 56
M  V30 63 1 36 57
M  V30 64 1 37 58
M  V30 65 1 38 59
M  V30 66 1 39 60
M  V30 END BOND
M  V30 END CTAB
M  END
>  <Dataset>  (488) 
ChEMBL_Kinases

>  <Ligand_Instance>  (488) 
nan

>  <PDB_ID>  (488) 
nan

>  <Standardized_SMILES>  (488) 
O=C(Nc1cncc(-c2ccc3[nH]nc(-c4cc5c(-c6cccnc6)nccc5[nH]4)c3c2)c1)c1ccccc1

>  <Name>  (488) 
nan

>  <Pocket>  (488) 
nan

>  <ATP_Site>  (488) 
nan

>  <Peripheral>  (488) 
nan

>  <Num_H_Atoms_ProtBoundConf>  (488) 
nan

>  <Num_Resolved_Atoms>  (488) 
nan

>  <Num_Not_Resolved_Atoms>  (488) 
nan

$$$$
CHEMBL4752238
     RDKit          3D

  0  0  0  0  0  0  0  0  0  0999 V3000
M  V30 BEGIN CTAB
M  V30 COUNTS 70 73 0 0 0
M  V30 BEGIN ATOM
M  V30 1 C -3.617577 2.653151 8.908631 0
M  V30 2 C -2.485601 3.168701 9.437467 0
M  V30 3 C -2.411766 2.821829 7.993811 0
M  V30 4 O -3.376919 2.341175 7.323057 0
M  V30 5 N -1.167967 3.042521 7.300264 0
M  V30 6 C -0.824670 2.822617 5.944872 0
M  V30 7 C -1.709924 2.490425 4.961314 0
M  V30 8 C -1.198730 2.272150 3.685334 0
M  V30 9 C 0.149499 2.366637 3.336886 0
M  V30 10 O 0.612418 2.149726 2.090275 0
M  V30 11 C -0.062517 1.878467 0.900126 0 CFG=2
M  V30 12 C -0.196064 0.396860 0.587217 0
M  V30 13 C 0.956282 -0.211888 -0.109692 0
M  V30 14 C 1.802140 0.782677 -0.862161 0
M  V30 15 C 0.964192 1.913917 -1.411923 0 CFG=1
M  V30 16 N -0.063654 1.429477 -2.313989 0
M  V30 17 C 0.259951 0.471818 -3.341604 0
M  V30 18 N 1.124736 -0.184907 -3.786619 0
M  V30 19 C 0.997075 -0.981741 -4.825153 0
M  V30 20 C -0.161556 -1.105800 -5.472396 0
M  V30 21 S -0.809348 -2.018027 -6.799250 0
M  V30 22 C -1.716902 -3.500012 -6.377074 0
M  V30 23 C -0.939034 -4.564380 -5.720876 0
M  V30 24 N -0.228840 -5.583280 -6.244407 0
M  V30 25 C 0.285771 -6.270698 -5.202423 0
M  V30 26 C -0.117492 -5.660449 -4.032980 0
M  V30 27 C 0.018947 -5.800438 -2.537207 0
M  V30 28 C 0.828443 -7.013057 -2.219487 0
M  V30 29 C -1.349405 -5.931512 -1.921765 0
M  V30 30 C 0.757038 -4.599794 -1.970816 0
M  V30 31 O -0.862145 -4.624290 -4.407340 0
M  V30 32 S -1.229712 0.081975 -4.456360 0
M  V30 33 C 0.350196 2.708815 -0.270282 0
M  V30 34 C 0.978741 2.703694 4.376425 0
M  V30 35 C 2.423894 2.806636 4.048191 0
M  V30 36 F 2.793078 1.562643 3.567666 0
M  V30 37 F 3.097899 3.047717 5.251419 0
M  V30 38 F 2.747037 3.833734 3.224087 0
M  V30 39 C 0.508924 2.927332 5.648558 0
M  V30 40 H -2.597907 2.913296 8.588976 0
M  V30 41 H -4.346760 2.659101 9.734544 0
M  V30 42 H -2.270780 3.508545 10.470257 0
M  V30 43 H -0.440186 3.433081 7.968580 0
M  V30 44 H -2.755871 2.402771 5.148599 0
M  V30 45 H -1.963568 2.006120 2.945158 0
M  V30 46 H -1.135741 2.165638 1.134981 0
M  V30 47 H -1.122384 0.303462 -0.056051 0
M  V30 48 H -0.460856 -0.111355 1.523506 0
M  V30 49 H 0.562518 -0.922658 -0.887668 0
M  V30 50 H 1.593736 -0.859113 0.545243 0
M  V30 51 H 2.606990 1.226947 -0.231177 0
M  V30 52 H 2.311932 0.320592 -1.727085 0
M  V30 53 H 1.639048 2.591697 -1.964015 0
M  V30 54 H -1.031063 1.839575 -2.135932 0
M  V30 55 H 1.821301 -1.590481 -5.226447 0
M  V30 56 H -2.077387 -3.946111 -7.350680 0
M  V30 57 H -2.643910 -3.293920 -5.790559 0
M  V30 58 H 0.915435 -7.147992 -5.010925 0
M  V30 59 H 1.789164 -7.076914 -2.742534 0
M  V30 60 H 0.204145 -7.918598 -2.336849 0
M  V30 61 H 1.100025 -6.962368 -1.126927 0
M  V30 62 H -1.608448 -6.968747 -1.624761 0
M  V30 63 H -2.120414 -5.595368 -2.664273 0
M  V30 64 H -1.388266 -5.313976 -1.013856 0
M  V30 65 H 0.186292 -4.149778 -1.137405 0
M  V30 66 H 0.852400 -3.840102 -2.770732 0
M  V30 67 H 1.774877 -4.863448 -1.641075 0
M  V30 68 H -0.527377 3.234288 -0.748201 0
M  V30 69 H 1.024845 3.511635 0.069594 0
M  V30 70 H 1.263545 3.185441 6.374424 0
M  V30 END ATOM
M  V30 BEGIN BOND
M  V30 1 2 1 2
M  V30 2 1 2 3
M  V30 3 2 3 4
M  V30 4 1 3 5
M  V30 5 1 5 6
M  V30 6 2 6 7
M  V30 7 1 7 8
M  V30 8 2 8 9
M  V30 9 1 9 10
M  V30 10 1 10 11
M  V30 11 1 11 12
M  V30 12 1 12 13
M  V30 13 1 13 14
M  V30 14 1 14 15
M  V30 15 1 15 16
M  V30 16 1 16 17
M  V30 17 2 17 18
M  V30 18 1 18 19
M  V30 19 2 19 20
M  V30 20 1 20 21
M  V30 21 1 21 22
M  V30 22 1 22 23
M  V30 23 2 23 24
M  V30 24 1 24 25
M  V30 25 2 25 26
M  V30 26 1 26 27
M  V30 27 1 27 28
M  V30 28 1 27 29
M  V30 29 1 27 30
M  V30 30 1 26 31
M  V30 31 1 20 32
M  V30 32 1 15 33
M  V30 33 1 9 34
M  V30 34 1 34 35
M  V30 35 1 35 36
M  V30 36 1 35 37
M  V30 37 1 35 38
M  V30 38 2 34 39
M  V30 39 1 39 6
M  V30 40 1 33 11
M  V30 41 1 32 17
M  V30 42 1 31 23
M  V30 43 1 1 40
M  V30 44 1 1 41
M  V30 45 1 2 42
M  V30 46 1 5 43
M  V30 47 1 7 44
M  V30 48 1 8 45
M  V30 49 1 11 46 CFG=1
M  V30 50 1 12 47
M  V30 51 1 12 48
M  V30 52 1 13 49
M  V30 53 1 13 50
M  V30 54 1 14 51
M  V30 55 1 14 52
M  V30 56 1 15 53 CFG=3
M  V30 57 1 16 54
M  V30 58 1 19 55
M  V30 59 1 22 56
M  V30 60 1 22 57
M  V30 61 1 25 58
M  V30 62 1 28 59
M  V30 63 1 28 60
M  V30 64 1 28 61
M  V30 65 1 29 62
M  V30 66 1 29 63
M  V30 67 1 29 64
M  V30 68 1 30 65
M  V30 69 1 30 66
M  V30 70 1 30 67
M  V30 71 1 33 68
M  V30 72 1 33 69
M  V30 73 1 39 70
M  V30 END BOND
M  V30 END CTAB
M  END
>  <Dataset>  (489) 
ChEMBL_Kinases

>  <Ligand_Instance>  (489) 
nan

>  <PDB_ID>  (489) 
nan

>  <Standardized_SMILES>  (489) 
C=CC(=O)Nc1ccc(O[C@@H]2CCC[C@@H](Nc3ncc(SCc4ncc(C(C)(C)C)o4)s3)C2)c(C(F)(F)F)c1

>  <Name>  (489) 
nan

>  <Pocket>  (489) 
nan

>  <ATP_Site>  (489) 
nan

>  <Peripheral>  (489) 
nan

>  <Num_H_Atoms_ProtBoundConf>  (489) 
nan

>  <Num_Resolved_Atoms>  (489) 
nan

>  <Num_Not_Resolved_Atoms>  (489) 
nan

$$$$
CHEMBL4439756
     RDKit          3D

  0  0  0  0  0  0  0  0  0  0999 V3000
M  V30 BEGIN CTAB
M  V30 COUNTS 54 57 0 0 0
M  V30 BEGIN ATOM
M  V30 1 C -1.633951 -4.662843 3.414244 0
M  V30 2 N -0.722528 -3.606375 3.140157 0
M  V30 3 N 0.291062 -3.282776 3.965016 0
M  V30 4 C 0.980309 -2.253774 3.436492 0
M  V30 5 C 0.361154 -1.929948 2.230556 0
M  V30 6 N 0.967868 -0.862480 1.567339 0
M  V30 7 C 2.010728 -0.684503 0.619797 0
M  V30 8 O 2.586308 -1.726226 0.224675 0
M  V30 9 C 2.382264 0.641762 0.141459 0
M  V30 10 N 1.825812 1.776105 0.535612 0
M  V30 11 C 2.196902 2.876199 0.090093 0
M  V30 12 C 1.682307 4.261975 0.425465 0
M  V30 13 C 2.274942 5.323901 -0.209962 0
M  V30 14 F 3.271524 5.215487 -1.101140 0
M  V30 15 C 1.751520 6.548127 0.150301 0
M  V30 16 C 0.719779 6.722127 1.068761 0
M  V30 17 C 0.173496 5.590569 1.668810 0
M  V30 18 C 0.666995 4.351128 1.337005 0
M  V30 19 F 0.115793 3.256952 1.939433 0
M  V30 20 S 3.490469 2.622017 -1.061411 0
M  V30 21 C 3.444887 0.734560 -0.834244 0
M  V30 22 N 4.211397 -0.304528 -1.429730 0
M  V30 23 C -0.708953 -2.790633 2.058725 0
M  V30 24 N -1.556724 -2.718941 0.959015 0
M  V30 25 C -2.763909 -3.467106 0.856991 0
M  V30 26 C -2.673148 -4.636495 -0.101767 0
M  V30 27 C -2.067813 -4.197682 -1.410828 0
M  V30 28 N -0.642593 -4.249683 -1.424684 0
M  V30 29 C -2.689693 -2.918164 -1.828009 0
M  V30 30 C -2.176227 -1.675103 -1.216476 0
M  V30 31 F -3.228736 -0.876672 -0.810946 0
M  V30 32 C -1.152744 -1.840555 -0.139741 0
M  V30 33 H -1.805802 -5.391923 2.604443 0
M  V30 34 H -1.154828 -5.340872 4.197175 0
M  V30 35 H -2.565599 -4.361140 3.964756 0
M  V30 36 H 1.838454 -1.894157 4.020702 0
M  V30 37 H 0.503569 0.044960 1.880336 0
M  V30 38 H 2.120159 7.464286 -0.270077 0
M  V30 39 H 0.311575 7.670592 1.350794 0
M  V30 40 H -0.628878 5.714955 2.382402 0
M  V30 41 H 4.940712 -0.642443 -0.794284 0
M  V30 42 H 3.867891 -0.510282 -2.404602 0
M  V30 43 H -3.267753 -3.726054 1.800859 0
M  V30 44 H -3.570808 -2.823891 0.364913 0
M  V30 45 H -2.086994 -5.481826 0.237267 0
M  V30 46 H -3.721832 -4.959538 -0.332506 0
M  V30 47 H -2.405882 -4.983798 -2.154252 0
M  V30 48 H -0.255886 -4.733608 -2.265376 0
M  V30 49 H -0.317468 -4.840843 -0.607143 0
M  V30 50 H -3.794281 -3.021479 -1.641819 0
M  V30 51 H -2.633491 -2.891403 -2.958553 0
M  V30 52 H -1.657182 -1.097749 -2.012420 0
M  V30 53 H -1.057645 -0.834532 0.311772 0
M  V30 54 H -0.155570 -2.119130 -0.526695 0
M  V30 END ATOM
M  V30 BEGIN BOND
M  V30 1 1 1 2
M  V30 2 1 2 3
M  V30 3 2 3 4
M  V30 4 1 4 5
M  V30 5 1 5 6
M  V30 6 1 6 7
M  V30 7 2 7 8
M  V30 8 1 7 9
M  V30 9 1 9 10
M  V30 10 2 10 11
M  V30 11 1 11 12
M  V30 12 2 12 13
M  V30 13 1 13 14
M  V30 14 1 13 15
M  V30 15 2 15 16
M  V30 16 1 16 17
M  V30 17 2 17 18
M  V30 18 1 18 19
M  V30 19 1 11 20
M  V30 20 1 20 21
M  V30 21 1 21 22
M  V30 22 2 5 23
M  V30 23 1 23 24
M  V30 24 1 24 25
M  V30 25 1 25 26
M  V30 26 1 26 27
M  V30 27 1 27 28
M  V30 28 1 27 29
M  V30 29 1 29 30
M  V30 30 1 30 31
M  V30 31 1 30 32
M  V30 32 1 23 2
M  V30 33 1 32 24
M  V30 34 2 21 9
M  V30 35 1 18 12
M  V30 36 1 1 33
M  V30 37 1 1 34
M  V30 38 1 1 35
M  V30 39 1 4 36
M  V30 40 1 6 37
M  V30 41 1 15 38
M  V30 42 1 16 39
M  V30 43 1 17 40
M  V30 44 1 22 41
M  V30 45 1 22 42
M  V30 46 1 25 43
M  V30 47 1 25 44
M  V30 48 1 26 45
M  V30 49 1 26 46
M  V30 50 1 27 47
M  V30 51 1 28 48
M  V30 52 1 28 49
M  V30 53 1 29 50
M  V30 54 1 29 51
M  V30 55 1 30 52
M  V30 56 1 32 53
M  V30 57 1 32 54
M  V30 END BOND
M  V30 END CTAB
M  END
>  <Dataset>  (490) 
ChEMBL_Kinases

>  <Ligand_Instance>  (490) 
nan

>  <PDB_ID>  (490) 
nan

>  <Standardized_SMILES>  (490) 
Cn1ncc(NC(=O)c2nc(-c3c(F)cccc3F)sc2N)c1N1CCC(N)CC(F)C1

>  <Name>  (490) 
nan

>  <Pocket>  (490) 
nan

>  <ATP_Site>  (490) 
nan

>  <Peripheral>  (490) 
nan

>  <Num_H_Atoms_ProtBoundConf>  (490) 
nan

>  <Num_Resolved_Atoms>  (490) 
nan

>  <Num_Not_Resolved_Atoms>  (490) 
nan

$$$$
CHEMBL4439862
     RDKit          3D

  0  0  0  0  0  0  0  0  0  0999 V3000
M  V30 BEGIN CTAB
M  V30 COUNTS 31 34 0 0 0
M  V30 BEGIN ATOM
M  V30 1 C 1.722743 -2.956247 3.343904 0
M  V30 2 C 0.927112 -3.338309 2.131927 0
M  V30 3 C 0.652242 -4.659360 1.843562 0
M  V30 4 C -0.090291 -4.999192 0.710666 0
M  V30 5 C -0.555459 -4.006196 -0.131229 0
M  V30 6 C -0.240881 -2.711489 0.222605 0
M  V30 7 N -0.704706 -1.742517 -0.614519 0
M  V30 8 C -0.482395 -0.432749 -0.407736 0
M  V30 9 C 0.246923 -0.050770 0.699711 0
M  V30 10 N 0.714610 -0.995866 1.540308 0
M  V30 11 C 0.484916 -2.305307 1.321851 0
M  V30 12 C 0.361045 1.403483 0.720155 0
M  V30 13 C 0.950425 2.335625 1.546731 0
M  V30 14 C 0.914343 3.699151 1.340389 0
M  V30 15 C 0.231717 4.136009 0.216781 0
M  V30 16 C -0.382944 3.259872 -0.655769 0
M  V30 17 C -0.314354 1.903541 -0.398986 0
M  V30 18 C -0.868109 0.779597 -1.148440 0
M  V30 19 N -1.554380 0.819448 -2.234240 0
M  V30 20 O -2.011834 -0.315077 -2.830722 0
M  V30 21 H 2.225746 -3.839647 3.794268 0
M  V30 22 H 0.951986 -2.635958 4.099208 0
M  V30 23 H 2.401841 -2.105103 3.163080 0
M  V30 24 H 1.023056 -5.446306 2.514187 0
M  V30 25 H -0.314153 -6.036905 0.471613 0
M  V30 26 H -1.134054 -4.215756 -1.020073 0
M  V30 27 H 1.469065 1.913168 2.410351 0
M  V30 28 H 1.418436 4.305771 2.068249 0
M  V30 29 H 0.215868 5.225024 0.072355 0
M  V30 30 H -0.887843 3.680979 -1.497579 0
M  V30 31 H -2.216037 -1.193226 -2.377142 0
M  V30 END ATOM
M  V30 BEGIN BOND
M  V30 1 1 1 2
M  V30 2 2 2 3
M  V30 3 1 3 4
M  V30 4 2 4 5
M  V30 5 1 5 6
M  V30 6 2 6 7
M  V30 7 1 7 8
M  V30 8 2 8 9
M  V30 9 1 9 10
M  V30 10 2 10 11
M  V30 11 1 9 12
M  V30 12 2 12 13
M  V30 13 1 13 14
M  V30 14 2 14 15
M  V30 15 1 15 16
M  V30 16 2 16 17
M  V30 17 1 17 18
M  V30 18 2 18 19
M  V30 19 1 19 20
M  V30 20 1 11 2
M  V30 21 1 17 12
M  V30 22 1 11 6
M  V30 23 1 18 8
M  V30 24 1 1 21
M  V30 25 1 1 22
M  V30 26 1 1 23
M  V30 27 1 3 24
M  V30 28 1 4 25
M  V30 29 1 5 26
M  V30 30 1 13 27
M  V30 31 1 14 28
M  V30 32 1 15 29
M  V30 33 1 16 30
M  V30 34 1 20 31
M  V30 END BOND
M  V30 END CTAB
M  END
>  <Dataset>  (491) 
ChEMBL_Kinases

>  <Ligand_Instance>  (491) 
nan

>  <PDB_ID>  (491) 
nan

>  <Standardized_SMILES>  (491) 
Cc1cccc2nc3c(nc12)-c1ccccc1/C3=N/O

>  <Name>  (491) 
nan

>  <Pocket>  (491) 
nan

>  <ATP_Site>  (491) 
nan

>  <Peripheral>  (491) 
nan

>  <Num_H_Atoms_ProtBoundConf>  (491) 
nan

>  <Num_Resolved_Atoms>  (491) 
nan

>  <Num_Not_Resolved_Atoms>  (491) 
nan

$$$$
CHEMBL4752070
     RDKit          3D

  0  0  0  0  0  0  0  0  0  0999 V3000
M  V30 BEGIN CTAB
M  V30 COUNTS 47 51 0 0 0
M  V30 BEGIN ATOM
M  V30 1 C -2.011739 -8.329856 -0.310637 0
M  V30 2 N -0.772736 -7.558443 -0.188800 0
M  V30 3 C -0.705890 -6.244528 -0.513632 0
M  V30 4 C 0.607139 -5.893719 -0.263956 0
M  V30 5 C 1.209960 -4.599030 -0.443629 0
M  V30 6 C 2.558377 -4.496268 -0.785742 0
M  V30 7 C 3.122082 -3.249961 -0.954190 0
M  V30 8 C 2.435053 -2.073223 -0.805877 0
M  V30 9 C 3.153290 -0.915152 -1.011451 0
M  V30 10 N 2.438030 0.237942 -0.855373 0
M  V30 11 C 1.121774 0.213582 -0.522888 0
M  V30 12 N 0.393106 1.455926 -0.365155 0
M  V30 13 C 0.529580 1.816187 1.008403 0
M  V30 14 O 1.218871 0.987619 1.678877 0
M  V30 15 C -0.026090 2.994542 1.675904 0
M  V30 16 C 0.263157 3.093589 3.022110 0
M  V30 17 C -0.272363 4.222291 3.656147 0
M  V30 18 C -1.027895 5.153428 2.975131 0
M  V30 19 C -1.294509 5.017663 1.627988 0
M  V30 20 C -2.065265 6.083651 1.212000 0
M  V30 21 N -2.247089 6.840015 2.318168 0
M  V30 22 N -1.640669 6.300795 3.359861 0
M  V30 23 C -1.659685 6.890383 4.695750 0
M  V30 24 C -0.775926 3.902758 0.961793 0
M  V30 25 C 0.415266 -0.975911 -0.319617 0
M  V30 26 C 1.101317 -2.167634 -0.467568 0
M  V30 27 C 0.504046 -3.401230 -0.290924 0
M  V30 28 C 1.302778 -6.996246 0.203905 0
M  V30 29 N 0.407160 -7.997557 0.232067 0
M  V30 30 H -2.768863 -8.040234 0.447922 0
M  V30 31 H -2.451578 -8.083193 -1.294315 0
M  V30 32 H -1.823167 -9.411141 -0.194418 0
M  V30 33 H -1.499478 -5.616377 -0.883463 0
M  V30 34 H 3.105012 -5.434354 -0.903601 0
M  V30 35 H 4.164080 -3.276679 -1.216387 0
M  V30 36 H 4.182726 -0.891913 -1.271484 0
M  V30 37 H -0.181925 2.139194 -0.943928 0
M  V30 38 H 0.849001 2.382821 3.576334 0
M  V30 39 H -0.082708 4.367408 4.730401 0
M  V30 40 H -2.401483 6.195551 0.188739 0
M  V30 41 H -1.401327 6.093722 5.420792 0
M  V30 42 H -0.908817 7.686142 4.780819 0
M  V30 43 H -2.662045 7.312610 4.841773 0
M  V30 44 H -0.989090 3.803796 -0.093167 0
M  V30 45 H -0.628160 -0.989570 -0.056059 0
M  V30 46 H -0.544854 -3.450516 -0.025396 0
M  V30 47 H 2.351635 -7.043151 0.488367 0
M  V30 END ATOM
M  V30 BEGIN BOND
M  V30 1 1 1 2
M  V30 2 1 2 3
M  V30 3 2 3 4
M  V30 4 1 4 5
M  V30 5 2 5 6
M  V30 6 1 6 7
M  V30 7 2 7 8
M  V30 8 1 8 9
M  V30 9 2 9 10
M  V30 10 1 10 11
M  V30 11 1 11 12
M  V30 12 1 12 13
M  V30 13 2 13 14
M  V30 14 1 13 15
M  V30 15 2 15 16
M  V30 16 1 16 17
M  V30 17 2 17 18
M  V30 18 1 18 19
M  V30 19 1 19 20
M  V30 20 2 20 21
M  V30 21 1 21 22
M  V30 22 1 22 23
M  V30 23 2 19 24
M  V30 24 2 11 25
M  V30 25 1 25 26
M  V30 26 2 26 27
M  V30 27 1 4 28
M  V30 28 2 28 29
M  V30 29 1 29 2
M  V30 30 1 27 5
M  V30 31 1 26 8
M  V30 32 1 24 15
M  V30 33 1 22 18
M  V30 34 1 1 30
M  V30 35 1 1 31
M  V30 36 1 1 32
M  V30 37 1 3 33
M  V30 38 1 6 34
M  V30 39 1 7 35
M  V30 40 1 9 36
M  V30 41 1 12 37
M  V30 42 1 16 38
M  V30 43 1 17 39
M  V30 44 1 20 40
M  V30 45 1 23 41
M  V30 46 1 23 42
M  V30 47 1 23 43
M  V30 48 1 24 44
M  V30 49 1 25 45
M  V30 50 1 27 46
M  V30 51 1 28 47
M  V30 END BOND
M  V30 END CTAB
M  END
>  <Dataset>  (492) 
ChEMBL_Kinases

>  <Ligand_Instance>  (492) 
nan

>  <PDB_ID>  (492) 
nan

>  <Standardized_SMILES>  (492) 
Cn1cc(-c2ccc3cnc(NC(=O)c4ccc5c(cnn5C)c4)cc3c2)cn1

>  <Name>  (492) 
nan

>  <Pocket>  (492) 
nan

>  <ATP_Site>  (492) 
nan

>  <Peripheral>  (492) 
nan

>  <Num_H_Atoms_ProtBoundConf>  (492) 
nan

>  <Num_Resolved_Atoms>  (492) 
nan

>  <Num_Not_Resolved_Atoms>  (492) 
nan

$$$$
CHEMBL4440880
     RDKit          3D

  0  0  0  0  0  0  0  0  0  0999 V3000
M  V30 BEGIN CTAB
M  V30 COUNTS 59 64 0 0 0
M  V30 BEGIN ATOM
M  V30 1 C 4.365694 -3.301725 2.967603 0
M  V30 2 N 4.554724 -2.930621 1.556890 0
M  V30 3 C 5.464378 -3.590820 0.623583 0
M  V30 4 C 6.095574 -2.494085 -0.219851 0
M  V30 5 O 5.075854 -1.843648 -0.955900 0
M  V30 6 C 4.030376 -1.270036 -0.225040 0
M  V30 7 C 3.803204 -1.834862 1.012330 0
M  V30 8 C 2.771490 -1.270665 1.736618 0
M  V30 9 N 2.034181 -0.243731 1.278719 0
M  V30 10 N 2.256973 0.300559 0.080861 0
M  V30 11 C 1.705651 1.316472 -0.648469 0
M  V30 12 C 0.587311 2.050967 -0.058107 0
M  V30 13 C 0.792657 3.254157 0.580595 0
M  V30 14 C -0.272451 3.929993 1.130611 0
M  V30 15 C -1.513135 3.344478 1.004884 0
M  V30 16 C -2.592712 3.998687 1.545203 0
M  V30 17 C -3.905170 3.603179 1.537328 0
M  V30 18 C -4.127876 2.407369 0.906209 0
M  V30 19 C -3.119526 1.669920 0.331024 0
M  V30 20 N -3.166937 0.423772 -0.353247 0
M  V30 21 C -3.222821 -0.799126 -1.023280 0
M  V30 22 C -3.787666 -1.947592 -0.196161 0
M  V30 23 C -3.811739 -3.209153 -0.987794 0
M  V30 24 C -3.007809 -4.320850 -0.322293 0
M  V30 25 N -1.633443 -3.905578 -0.104301 0
M  V30 26 C -1.559213 -2.696787 0.675096 0
M  V30 27 C -2.922920 -2.157398 1.038188 0
M  V30 28 C -1.807965 2.145654 0.383397 0
M  V30 29 C -0.682023 1.529928 -0.143089 0
M  V30 30 N 2.374899 1.409730 -1.834925 0
M  V30 31 N 3.325576 0.462948 -1.835902 0
M  V30 32 C 3.262341 -0.215405 -0.677991 0
M  V30 33 H 5.284348 -3.765666 3.386782 0
M  V30 34 H 4.226106 -2.329143 3.507983 0
M  V30 35 H 3.482878 -3.939035 3.045327 0
M  V30 36 H 4.837306 -4.249838 -0.007670 0
M  V30 37 H 6.228267 -4.148458 1.188222 0
M  V30 38 H 6.895137 -2.860033 -0.866993 0
M  V30 39 H 6.506911 -1.753616 0.516513 0
M  V30 40 H 2.488416 -1.613952 2.712243 0
M  V30 41 H 1.764747 3.702380 0.673336 0
M  V30 42 H -0.142448 4.873369 1.635491 0
M  V30 43 H -2.426331 4.938472 2.042040 0
M  V30 44 H -4.757497 4.106960 1.957640 0
M  V30 45 H -5.134613 2.013019 0.849119 0
M  V30 46 H -4.211151 0.287915 -0.259044 0
M  V30 47 H -3.806427 -0.743688 -1.972872 0
M  V30 48 H -2.161305 -1.109958 -1.281530 0
M  V30 49 H -4.801454 -1.678523 0.123315 0
M  V30 50 H -4.862332 -3.618473 -1.040323 0
M  V30 51 H -3.495928 -3.064023 -2.028525 0
M  V30 52 H -3.489847 -4.649324 0.603174 0
M  V30 53 H -3.017991 -5.166750 -1.037893 0
M  V30 54 H -1.084270 -3.885536 -0.984233 0
M  V30 55 H -0.980511 -1.882909 0.188898 0
M  V30 56 H -1.047962 -2.881229 1.663576 0
M  V30 57 H -2.744355 -1.177964 1.529820 0
M  V30 58 H -3.453044 -2.836836 1.705851 0
M  V30 59 H -0.795260 0.602170 -0.643489 0
M  V30 END ATOM
M  V30 BEGIN BOND
M  V30 1 1 1 2
M  V30 2 1 2 3
M  V30 3 1 3 4
M  V30 4 1 4 5
M  V30 5 1 5 6
M  V30 6 2 6 7
M  V30 7 1 7 8
M  V30 8 2 8 9
M  V30 9 1 9 10
M  V30 10 1 10 11
M  V30 11 1 11 12
M  V30 12 2 12 13
M  V30 13 1 13 14
M  V30 14 2 14 15
M  V30 15 1 15 16
M  V30 16 2 16 17
M  V30 17 1 17 18
M  V30 18 2 18 19
M  V30 19 1 19 20
M  V30 20 1 20 21
M  V30 21 1 21 22
M  V30 22 1 22 23
M  V30 23 1 23 24
M  V30 24 1 24 25
M  V30 25 1 25 26
M  V30 26 1 26 27
M  V30 27 1 19 28
M  V30 28 2 28 29
M  V30 29 2 11 30
M  V30 30 1 30 31
M  V30 31 2 31 32
M  V30 32 1 7 2
M  V30 33 1 32 10
M  V30 34 1 32 6
M  V30 35 1 29 12
M  V30 36 1 28 15
M  V30 37 1 27 22
M  V30 38 1 1 33
M  V30 39 1 1 34
M  V30 40 1 1 35
M  V30 41 1 3 36
M  V30 42 1 3 37
M  V30 43 1 4 38
M  V30 44 1 4 39
M  V30 45 1 8 40
M  V30 46 1 13 41
M  V30 47 1 14 42
M  V30 48 1 16 43
M  V30 49 1 17 44
M  V30 50 1 18 45
M  V30 51 1 20 46
M  V30 52 1 21 47
M  V30 53 1 21 48
M  V30 54 1 22 49
M  V30 55 1 23 50
M  V30 56 1 23 51
M  V30 57 1 24 52
M  V30 58 1 24 53
M  V30 59 1 25 54
M  V30 60 1 26 55
M  V30 61 1 26 56
M  V30 62 1 27 57
M  V30 63 1 27 58
M  V30 64 1 29 59
M  V30 END BOND
M  V30 END CTAB
M  END
>  <Dataset>  (493) 
ChEMBL_Kinases

>  <Ligand_Instance>  (493) 
nan

>  <PDB_ID>  (493) 
nan

>  <Standardized_SMILES>  (493) 
CN1CCOc2c1cnn1c(-c3ccc4cccc(NCC5CCNCC5)c4c3)nnc21

>  <Name>  (493) 
nan

>  <Pocket>  (493) 
nan

>  <ATP_Site>  (493) 
nan

>  <Peripheral>  (493) 
nan

>  <Num_H_Atoms_ProtBoundConf>  (493) 
nan

>  <Num_Resolved_Atoms>  (493) 
nan

>  <Num_Not_Resolved_Atoms>  (493) 
nan

$$$$
CHEMBL4441121
     RDKit          3D

  0  0  0  0  0  0  0  0  0  0999 V3000
M  V30 BEGIN CTAB
M  V30 COUNTS 77 81 0 0 0
M  V30 BEGIN ATOM
M  V30 1 C 6.981922 -2.097203 -1.339517 0
M  V30 2 C 5.835237 -1.237675 -0.902335 0
M  V30 3 C 5.782512 -1.091715 0.613987 0 CFG=2
M  V30 4 C 5.624510 -2.490767 1.146574 0
M  V30 5 O 6.439282 -3.219500 1.749378 0
M  V30 6 N 4.310845 -3.038766 0.901060 0
M  V30 7 C 4.122869 -4.487138 0.844308 0
M  V30 8 C 3.156222 -2.215347 0.707164 0
M  V30 9 C 1.942168 -2.812707 0.476853 0
M  V30 10 N 0.960117 -1.920278 0.313808 0
M  V30 11 C 1.073371 -0.590201 0.356991 0
M  V30 12 N 0.014311 0.336339 0.177797 0
M  V30 13 C -1.376552 0.183783 -0.070138 0
M  V30 14 C -1.838011 -1.139955 -0.139404 0
M  V30 15 C -3.165695 -1.423676 -0.372094 0
M  V30 16 F -3.657658 -2.685277 -0.449656 0
M  V30 17 C -4.108210 -0.435120 -0.549079 0
M  V30 18 C -5.537446 -0.531721 -0.793108 0
M  V30 19 O -6.287780 0.479873 -1.015475 0
M  V30 20 N -6.306220 -1.698479 -0.824672 0
M  V30 21 C -7.731133 -1.781830 -1.071402 0
M  V30 22 C -8.000141 -2.653840 -2.266544 0
M  V30 23 C -8.065476 -4.121470 -1.895624 0
M  V30 24 O -8.876247 -4.351397 -0.812258 0
M  V30 25 C -8.315210 -3.788922 0.309304 0
M  V30 26 C -8.413792 -2.289724 0.176820 0
M  V30 27 C -3.606763 0.846179 -0.472839 0
M  V30 28 C -2.306582 1.225679 -0.245055 0
M  V30 29 O -1.710107 2.396423 -0.151360 0
M  V30 30 C -1.900714 3.733174 -0.187367 0
M  V30 31 C -2.778703 4.356112 0.859605 0
M  V30 32 O -4.049100 3.853266 0.813718 0
M  V30 33 N 2.294459 -0.080489 0.587412 0
M  V30 34 C 3.371319 -0.858398 0.769292 0
M  V30 35 N 4.646834 -0.272360 1.009961 0
M  V30 36 C 4.757041 1.045654 1.611290 0
M  V30 37 C 5.458311 2.054664 0.771559 0
M  V30 38 C 6.836498 2.250148 1.331567 0
M  V30 39 C 6.887455 1.567810 2.663412 0
M  V30 40 C 5.518677 0.991709 2.919104 0
M  V30 41 H 6.635443 -3.131020 -1.611611 0
M  V30 42 H 7.419129 -1.684628 -2.269765 0
M  V30 43 H 7.796109 -2.153871 -0.593318 0
M  V30 44 H 5.890792 -0.266743 -1.420442 0
M  V30 45 H 4.891316 -1.773903 -1.190578 0
M  V30 46 H 6.679374 -0.651976 1.045809 0
M  V30 47 H 5.096128 -4.969478 1.012065 0
M  V30 48 H 3.707675 -4.802591 -0.132071 0
M  V30 49 H 3.436666 -4.851500 1.632234 0
M  V30 50 H 1.793660 -3.874358 0.431991 0
M  V30 51 H 0.268660 1.368175 0.232997 0
M  V30 52 H -1.285013 -2.056478 -0.032556 0
M  V30 53 H -5.841315 -2.612920 -0.656472 0
M  V30 54 H -8.114015 -0.762645 -1.260414 0
M  V30 55 H -7.265541 -2.458983 -3.053190 0
M  V30 56 H -8.993850 -2.387213 -2.675032 0
M  V30 57 H -8.462069 -4.735803 -2.729475 0
M  V30 58 H -7.007726 -4.456135 -1.747150 0
M  V30 59 H -7.252259 -4.055101 0.427496 0
M  V30 60 H -8.938306 -4.105868 1.172505 0
M  V30 61 H -7.922722 -1.841864 1.060301 0
M  V30 62 H -9.481971 -2.003897 0.192893 0
M  V30 63 H -4.276620 1.676609 -0.616672 0
M  V30 64 H -2.371727 3.993557 -1.198422 0
M  V30 65 H -0.926845 4.326801 -0.251763 0
M  V30 66 H -2.333409 4.124402 1.856827 0
M  V30 67 H -2.746509 5.468023 0.732805 0
M  V30 68 H -4.774343 4.508564 0.773056 0
M  V30 69 H 3.733486 1.409929 1.817439 0
M  V30 70 H 4.902795 3.039047 0.793810 0
M  V30 71 H 5.546901 1.818895 -0.296919 0
M  V30 72 H 7.051356 3.337550 1.393822 0
M  V30 73 H 7.604689 1.843871 0.632408 0
M  V30 74 H 7.699705 0.815716 2.649828 0
M  V30 75 H 7.155627 2.341367 3.419937 0
M  V30 76 H 5.549154 -0.023806 3.358069 0
M  V30 77 H 5.014894 1.668422 3.652191 0
M  V30 END ATOM
M  V30 BEGIN BOND
M  V30 1 1 1 2
M  V30 2 1 2 3
M  V30 3 1 3 4
M  V30 4 2 4 5
M  V30 5 1 4 6
M  V30 6 1 6 7
M  V30 7 1 6 8
M  V30 8 2 8 9
M  V30 9 1 9 10
M  V30 10 2 10 11
M  V30 11 1 11 12
M  V30 12 1 12 13
M  V30 13 2 13 14
M  V30 14 1 14 15
M  V30 15 1 15 16
M  V30 16 2 15 17
M  V30 17 1 17 18
M  V30 18 2 18 19
M  V30 19 1 18 20
M  V30 20 1 20 21
M  V30 21 1 21 22
M  V30 22 1 22 23
M  V30 23 1 23 24
M  V30 24 1 24 25
M  V30 25 1 25 26
M  V30 26 1 17 27
M  V30 27 2 27 28
M  V30 28 1 28 29
M  V30 29 1 29 30
M  V30 30 1 30 31
M  V30 31 1 31 32
M  V30 32 1 11 33
M  V30 33 2 33 34
M  V30 34 1 34 35
M  V30 35 1 35 36
M  V30 36 1 36 37
M  V30 37 1 37 38
M  V30 38 1 38 39
M  V30 39 1 39 40
M  V30 40 1 35 3
M  V30 41 1 40 36
M  V30 42 1 34 8
M  V30 43 1 28 13
M  V30 44 1 26 21
M  V30 45 1 1 41
M  V30 46 1 1 42
M  V30 47 1 1 43
M  V30 48 1 2 44
M  V30 49 1 2 45
M  V30 50 1 3 46 CFG=1
M  V30 51 1 7 47
M  V30 52 1 7 48
M  V30 53 1 7 49
M  V30 54 1 9 50
M  V30 55 1 12 51
M  V30 56 1 14 52
M  V30 57 1 20 53
M  V30 58 1 21 54
M  V30 59 1 22 55
M  V30 60 1 22 56
M  V30 61 1 23 57
M  V30 62 1 23 58
M  V30 63 1 25 59
M  V30 64 1 25 60
M  V30 65 1 26 61
M  V30 66 1 26 62
M  V30 67 1 27 63
M  V30 68 1 30 64
M  V30 69 1 30 65
M  V30 70 1 31 66
M  V30 71 1 31 67
M  V30 72 1 32 68
M  V30 73 1 36 69
M  V30 74 1 37 70
M  V30 75 1 37 71
M  V30 76 1 38 72
M  V30 77 1 38 73
M  V30 78 1 39 74
M  V30 79 1 39 75
M  V30 80 1 40 76
M  V30 81 1 40 77
M  V30 END BOND
M  V30 END CTAB
M  END
>  <Dataset>  (494) 
ChEMBL_Kinases

>  <Ligand_Instance>  (494) 
nan

>  <PDB_ID>  (494) 
nan

>  <Standardized_SMILES>  (494) 
CC[C@@H]1C(=O)N(C)c2cnc(Nc3cc(F)c(C(=O)NC4CCOCC4)cc3OCCO)nc2N1C1CCCC1

>  <Name>  (494) 
nan

>  <Pocket>  (494) 
nan

>  <ATP_Site>  (494) 
nan

>  <Peripheral>  (494) 
nan

>  <Num_H_Atoms_ProtBoundConf>  (494) 
nan

>  <Num_Resolved_Atoms>  (494) 
nan

>  <Num_Not_Resolved_Atoms>  (494) 
nan

$$$$
CHEMBL4751675
     RDKit          3D

  0  0  0  0  0  0  0  0  0  0999 V3000
M  V30 BEGIN CTAB
M  V30 COUNTS 58 63 0 0 0
M  V30 BEGIN ATOM
M  V30 1 C 3.634287 -0.688412 7.046539 0
M  V30 2 C 4.985385 -0.958801 6.479258 0
M  V30 3 C 4.950118 -1.967784 5.343372 0
M  V30 4 C 4.104952 -1.452541 4.270190 0
M  V30 5 O 3.588072 -0.327587 4.463658 0
M  V30 6 N 3.830636 -2.113208 3.052769 0
M  V30 7 C 3.035420 -1.714264 1.950881 0
M  V30 8 C 2.931580 -2.557524 0.869337 0
M  V30 9 N 2.200655 -2.252640 -0.212447 0
M  V30 10 C 1.515657 -1.099857 -0.318656 0
M  V30 11 C 1.577119 -0.207126 0.733255 0
M  V30 12 C 0.849347 1.059627 0.656060 0
M  V30 13 C 1.263823 2.239192 1.262314 0
M  V30 14 N 0.506850 3.368143 1.120520 0
M  V30 15 C -0.629102 3.310428 0.392562 0
M  V30 16 N -1.541979 4.258201 0.097021 0
M  V30 17 N -2.514814 3.754226 -0.661765 0
M  V30 18 C -2.282080 2.453867 -0.896753 0
M  V30 19 C -3.087894 1.524448 -1.681563 0
M  V30 20 N -2.797901 0.229971 -1.879362 0
M  V30 21 C -3.761198 -0.310102 -2.649998 0
M  V30 22 C -4.003591 -1.565694 -3.174412 0
M  V30 23 C -3.072829 -2.656759 -2.905994 0
M  V30 24 C -2.051305 -2.772414 -3.845075 0
M  V30 25 C -1.098599 -3.765796 -3.711283 0
M  V30 26 C -1.136050 -4.657638 -2.655090 0
M  V30 27 C -2.150423 -4.525988 -1.741590 0
M  V30 28 C -3.113179 -3.546276 -1.849270 0
M  V30 29 F -4.148063 -3.359973 -0.976680 0
M  V30 30 C -5.151618 -1.683559 -3.937907 0
M  V30 31 N -5.985099 -0.673939 -4.168971 0
M  V30 32 C -5.791856 0.564976 -3.680653 0
M  V30 33 C -4.640044 0.718954 -2.904113 0
M  V30 34 N -4.234158 1.864242 -2.308706 0
M  V30 35 C -1.099629 2.176012 -0.235370 0
M  V30 36 C -0.335295 1.035136 -0.092384 0
M  V30 37 C 2.335339 -0.541590 1.836435 0
M  V30 38 H 3.699521 -0.714672 8.152837 0
M  V30 39 H 2.907719 -1.473190 6.745874 0
M  V30 40 H 3.212521 0.300828 6.803218 0
M  V30 41 H 5.628076 -1.415084 7.258230 0
M  V30 42 H 5.442302 0.001243 6.155796 0
M  V30 43 H 4.607138 -2.919957 5.792245 0
M  V30 44 H 5.993832 -2.127308 4.998693 0
M  V30 45 H 4.319014 -3.039935 3.014115 0
M  V30 46 H 3.455166 -3.517518 0.868421 0
M  V30 47 H 0.940857 -0.908858 -1.220364 0
M  V30 48 H 2.185662 2.213661 1.831569 0
M  V30 49 H -1.583765 5.266635 0.366277 0
M  V30 50 H -1.872242 -2.165667 -4.724620 0
M  V30 51 H -0.265473 -3.926917 -4.401087 0
M  V30 52 H -0.442076 -5.453733 -2.474736 0
M  V30 53 H -2.315968 -5.146917 -0.859515 0
M  V30 54 H -5.345793 -2.669680 -4.352430 0
M  V30 55 H -6.468091 1.388459 -3.866807 0
M  V30 56 H -4.694522 2.805559 -2.323064 0
M  V30 57 H -0.696832 0.137799 -0.582060 0
M  V30 58 H 2.355025 0.169449 2.618540 0
M  V30 END ATOM
M  V30 BEGIN BOND
M  V30 1 1 1 2
M  V30 2 1 2 3
M  V30 3 1 3 4
M  V30 4 2 4 5
M  V30 5 1 4 6
M  V30 6 1 6 7
M  V30 7 2 7 8
M  V30 8 1 8 9
M  V30 9 2 9 10
M  V30 10 1 10 11
M  V30 11 1 11 12
M  V30 12 2 12 13
M  V30 13 1 13 14
M  V30 14 2 14 15
M  V30 15 1 15 16
M  V30 16 1 16 17
M  V30 17 2 17 18
M  V30 18 1 18 19
M  V30 19 2 19 20
M  V30 20 1 20 21
M  V30 21 2 21 22
M  V30 22 1 22 23
M  V30 23 2 23 24
M  V30 24 1 24 25
M  V30 25 2 25 26
M  V30 26 1 26 27
M  V30 27 2 27 28
M  V30 28 1 28 29
M  V30 29 1 22 30
M  V30 30 2 30 31
M  V30 31 1 31 32
M  V30 32 2 32 33
M  V30 33 1 33 34
M  V30 34 1 18 35
M  V30 35 2 35 36
M  V30 36 2 11 37
M  V30 37 1 37 7
M  V30 38 1 36 12
M  V30 39 1 35 15
M  V30 40 1 34 19
M  V30 41 1 33 21
M  V30 42 1 28 23
M  V30 43 1 1 38
M  V30 44 1 1 39
M  V30 45 1 1 40
M  V30 46 1 2 41
M  V30 47 1 2 42
M  V30 48 1 3 43
M  V30 49 1 3 44
M  V30 50 1 6 45
M  V30 51 1 8 46
M  V30 52 1 10 47
M  V30 53 1 13 48
M  V30 54 1 16 49
M  V30 55 1 24 50
M  V30 56 1 25 51
M  V30 57 1 26 52
M  V30 58 1 27 53
M  V30 59 1 30 54
M  V30 60 1 32 55
M  V30 61 1 34 56
M  V30 62 1 36 57
M  V30 63 1 37 58
M  V30 END BOND
M  V30 END CTAB
M  END
>  <Dataset>  (495) 
ChEMBL_Kinases

>  <Ligand_Instance>  (495) 
nan

>  <PDB_ID>  (495) 
nan

>  <Standardized_SMILES>  (495) 
CCCC(=O)Nc1cncc(-c2cnc3[nH]nc(-c4nc5c(-c6ccccc6F)cncc5[nH]4)c3c2)c1

>  <Name>  (495) 
nan

>  <Pocket>  (495) 
nan

>  <ATP_Site>  (495) 
nan

>  <Peripheral>  (495) 
nan

>  <Num_H_Atoms_ProtBoundConf>  (495) 
nan

>  <Num_Resolved_Atoms>  (495) 
nan

>  <Num_Not_Resolved_Atoms>  (495) 
nan

$$$$
CHEMBL4751489
     RDKit          3D

  0  0  0  0  0  0  0  0  0  0999 V3000
M  V30 BEGIN CTAB
M  V30 COUNTS 60 66 0 0 0
M  V30 BEGIN ATOM
M  V30 1 F 5.136575 -0.365020 6.337275 0
M  V30 2 C 5.540108 -0.441188 5.018993 0
M  V30 3 F 5.605809 -1.773309 4.671525 0
M  V30 4 C 6.866089 0.257536 4.893327 0
M  V30 5 C 6.448622 1.640569 4.408004 0
M  V30 6 N 5.463923 1.280251 3.388955 0
M  V30 7 C 4.717474 2.470534 3.042724 0
M  V30 8 C 3.677486 2.192300 1.997534 0
M  V30 9 C 4.089105 2.339927 0.692346 0
M  V30 10 N 3.285225 2.131133 -0.391130 0
M  V30 11 C 2.004483 1.755909 -0.170801 0
M  V30 12 C 1.544843 1.594664 1.123923 0
M  V30 13 C 0.160276 1.186808 1.462198 0
M  V30 14 C -0.423258 1.640494 2.636173 0
M  V30 15 N -1.682004 1.230521 2.880089 0
M  V30 16 C -2.357134 0.423236 2.042843 0
M  V30 17 N -3.586423 -0.120892 2.044297 0
M  V30 18 N -3.772982 -0.855787 0.969421 0
M  V30 19 C -2.687957 -0.860260 0.169227 0
M  V30 20 C -2.544838 -1.559669 -1.088494 0
M  V30 21 C -3.584332 -2.333901 -1.605545 0
M  V30 22 C -3.243229 -2.910405 -2.805092 0
M  V30 23 C -3.884783 -3.735758 -3.702373 0
M  V30 24 C -5.239249 -4.191032 -3.440857 0
M  V30 25 C -6.154194 -4.074866 -4.493171 0
M  V30 26 C -7.459962 -4.509688 -4.272242 0
M  V30 27 N -7.845488 -5.025946 -3.094506 0
M  V30 28 C -6.997624 -5.155460 -2.057052 0
M  V30 29 C -5.704285 -4.729692 -2.261920 0
M  V30 30 C -3.227351 -4.135039 -4.847817 0
M  V30 31 N -1.969929 -3.712086 -5.069904 0
M  V30 32 C -1.335720 -2.906359 -4.199115 0
M  V30 33 C -1.960334 -2.488683 -3.047699 0
M  V30 34 N -1.611335 -1.709165 -2.017242 0
M  V30 35 C -1.820962 -0.053229 0.865836 0
M  V30 36 C -0.534497 0.358564 0.604705 0
M  V30 37 C 2.375778 1.810889 2.224392 0
M  V30 38 C 4.610417 0.342949 4.121626 0
M  V30 39 H 7.449433 0.298267 5.824784 0
M  V30 40 H 7.461600 -0.181816 4.057196 0
M  V30 41 H 5.890298 2.192070 5.195452 0
M  V30 42 H 7.294171 2.216200 3.978417 0
M  V30 43 H 4.139986 2.760467 3.964254 0
M  V30 44 H 5.377602 3.293187 2.758373 0
M  V30 45 H 5.101424 2.638932 0.408431 0
M  V30 46 H 1.293223 1.568063 -0.989262 0
M  V30 47 H 0.121719 2.294517 3.315942 0
M  V30 48 H -4.328523 -0.009141 2.770598 0
M  V30 49 H -4.571024 -2.506014 -1.174306 0
M  V30 50 H -5.932140 -3.669371 -5.481586 0
M  V30 51 H -8.217505 -4.455471 -5.022892 0
M  V30 52 H -7.289086 -5.574821 -1.083279 0
M  V30 53 H -5.001218 -4.825951 -1.448605 0
M  V30 54 H -3.726465 -4.786558 -5.562051 0
M  V30 55 H -0.324735 -2.567995 -4.379893 0
M  V30 56 H -0.686513 -1.282663 -1.989535 0
M  V30 57 H -0.029138 0.042251 -0.285844 0
M  V30 58 H 2.089057 1.705585 3.250933 0
M  V30 59 H 4.119666 -0.375822 3.439830 0
M  V30 60 H 3.826500 0.872268 4.687459 0
M  V30 END ATOM
M  V30 BEGIN BOND
M  V30 1 1 1 2
M  V30 2 1 2 3
M  V30 3 1 2 4
M  V30 4 1 4 5
M  V30 5 1 5 6
M  V30 6 1 6 7
M  V30 7 1 7 8
M  V30 8 2 8 9
M  V30 9 1 9 10
M  V30 10 2 10 11
M  V30 11 1 11 12
M  V30 12 1 12 13
M  V30 13 2 13 14
M  V30 14 1 14 15
M  V30 15 2 15 16
M  V30 16 1 16 17
M  V30 17 1 17 18
M  V30 18 2 18 19
M  V30 19 1 19 20
M  V30 20 2 20 21
M  V30 21 1 21 22
M  V30 22 2 22 23
M  V30 23 1 23 24
M  V30 24 2 24 25
M  V30 25 1 25 26
M  V30 26 2 26 27
M  V30 27 1 27 28
M  V30 28 2 28 29
M  V30 29 1 23 30
M  V30 30 2 30 31
M  V30 31 1 31 32
M  V30 32 2 32 33
M  V30 33 1 33 34
M  V30 34 1 19 35
M  V30 35 2 35 36
M  V30 36 2 12 37
M  V30 37 1 6 38
M  V30 38 1 38 2
M  V30 39 1 37 8
M  V30 40 1 36 13
M  V30 41 1 35 16
M  V30 42 1 34 20
M  V30 43 1 33 22
M  V30 44 1 29 24
M  V30 45 1 4 39
M  V30 46 1 4 40
M  V30 47 1 5 41
M  V30 48 1 5 42
M  V30 49 1 7 43
M  V30 50 1 7 44
M  V30 51 1 9 45
M  V30 52 1 11 46
M  V30 53 1 14 47
M  V30 54 1 17 48
M  V30 55 1 21 49
M  V30 56 1 25 50
M  V30 57 1 26 51
M  V30 58 1 28 52
M  V30 59 1 29 53
M  V30 60 1 30 54
M  V30 61 1 32 55
M  V30 62 1 34 56
M  V30 63 1 36 57
M  V30 64 1 37 58
M  V30 65 1 38 59
M  V30 66 1 38 60
M  V30 END BOND
M  V30 END CTAB
M  END
>  <Dataset>  (496) 
ChEMBL_Kinases

>  <Ligand_Instance>  (496) 
nan

>  <PDB_ID>  (496) 
nan

>  <Standardized_SMILES>  (496) 
FC1(F)CCN(Cc2cncc(-c3cnc4[nH]nc(-c5cc6c(-c7ccncc7)cncc6[nH]5)c4c3)c2)C1

>  <Name>  (496) 
nan

>  <Pocket>  (496) 
nan

>  <ATP_Site>  (496) 
nan

>  <Peripheral>  (496) 
nan

>  <Num_H_Atoms_ProtBoundConf>  (496) 
nan

>  <Num_Resolved_Atoms>  (496) 
nan

>  <Num_Not_Resolved_Atoms>  (496) 
nan

$$$$
CHEMBL4751483
     RDKit          3D

  0  0  0  0  0  0  0  0  0  0999 V3000
M  V30 BEGIN CTAB
M  V30 COUNTS 74 80 0 0 0
M  V30 BEGIN ATOM
M  V30 1 C 8.188803 1.409134 2.453295 0
M  V30 2 N 7.223565 0.689757 3.215445 0
M  V30 3 C 7.384684 -0.722938 3.150864 0
M  V30 4 C 6.526251 -1.426473 2.127152 0
M  V30 5 N 5.155448 -0.985122 2.302014 0
M  V30 6 C 4.255224 -1.601177 1.429623 0
M  V30 7 C 4.386528 -2.894145 0.994257 0
M  V30 8 C 3.536810 -3.613670 0.189458 0
M  V30 9 N 2.417417 -2.955489 -0.230845 0
M  V30 10 C 2.228582 -1.674351 0.162346 0
M  V30 11 N 1.239256 -0.814229 -0.120865 0
M  V30 12 C 1.372576 0.388917 0.422336 0
M  V30 13 C 0.626891 1.630455 0.445227 0
M  V30 14 N 0.956517 2.777006 1.076340 0
M  V30 15 N 0.060000 3.717046 0.894974 0
M  V30 16 C -0.945921 3.269203 0.123492 0
M  V30 17 C -2.094937 3.869949 -0.331889 0
M  V30 18 N -2.890091 3.094366 -1.095359 0
M  V30 19 C -2.613897 1.813335 -1.412958 0
M  V30 20 C -3.581252 1.111424 -2.242521 0
M  V30 21 C -4.697576 1.785991 -2.655228 0
M  V30 22 N -5.637313 1.160579 -3.419624 0
M  V30 23 C -5.494381 -0.125128 -3.785674 0
M  V30 24 C -4.382522 -0.863382 -3.397430 0
M  V30 25 C -4.297299 -2.263116 -3.836893 0
M  V30 26 N -4.991475 -3.094388 -2.878391 0
M  V30 27 C -4.414323 -2.948082 -1.583865 0
M  V30 28 C -5.106804 -3.813243 -0.545976 0
M  V30 29 C -6.577221 -3.463861 -0.420955 0
M  V30 30 C -6.559073 -2.175790 0.376155 0
M  V30 31 C -5.525341 -2.475026 1.439633 0
M  V30 32 C -4.541418 -3.426819 0.811161 0
M  V30 33 C -3.454987 -0.202290 -2.628349 0
M  V30 34 C -1.448691 1.273891 -0.925155 0
M  V30 35 C -0.567355 1.971581 -0.140005 0
M  V30 36 C 2.567268 0.272279 1.118209 0
M  V30 37 C 3.105055 -0.985939 0.970744 0
M  V30 38 C 4.963137 -0.027747 3.357993 0
M  V30 39 C 5.852882 1.148698 3.038607 0
M  V30 40 H 8.479357 2.377077 2.956712 0
M  V30 41 H 9.103610 0.774183 2.348740 0
M  V30 42 H 7.865473 1.689826 1.421439 0
M  V30 43 H 7.286720 -1.202964 4.156947 0
M  V30 44 H 8.440481 -0.918923 2.848199 0
M  V30 45 H 6.578852 -2.528113 2.377951 0
M  V30 46 H 6.883906 -1.245431 1.090063 0
M  V30 47 H 5.248450 -3.509313 1.273629 0
M  V30 48 H 3.676991 -4.629146 -0.127954 0
M  V30 49 H 0.447255 -1.091002 -0.719094 0
M  V30 50 H 0.182408 4.672086 1.330091 0
M  V30 51 H -2.340901 4.891115 -0.090904 0
M  V30 52 H -4.918240 2.835447 -2.416654 0
M  V30 53 H -6.252593 -0.604495 -4.391337 0
M  V30 54 H -4.772336 -2.379677 -4.854514 0
M  V30 55 H -3.243115 -2.606712 -3.970509 0
M  V30 56 H -4.924175 -4.120779 -3.140097 0
M  V30 57 H -3.340204 -3.282686 -1.571905 0
M  V30 58 H -4.488066 -1.892871 -1.258166 0
M  V30 59 H -4.986031 -4.883190 -0.750388 0
M  V30 60 H -7.069464 -4.272719 0.131083 0
M  V30 61 H -7.050482 -3.338146 -1.421204 0
M  V30 62 H -7.537749 -1.947269 0.820037 0
M  V30 63 H -6.192815 -1.363831 -0.287760 0
M  V30 64 H -5.078518 -1.533030 1.761285 0
M  V30 65 H -6.021532 -3.008120 2.285104 0
M  V30 66 H -3.551224 -2.946450 0.736653 0
M  V30 67 H -4.393708 -4.324470 1.457192 0
M  V30 68 H -2.591705 -0.772994 -2.326582 0
M  V30 69 H -1.265732 0.255738 -1.199153 0
M  V30 70 H 3.056901 1.030548 1.697364 0
M  V30 71 H 5.424815 -0.482964 4.292463 0
M  V30 72 H 3.946754 0.198748 3.646342 0
M  V30 73 H 5.773346 1.476728 1.977470 0
M  V30 74 H 5.634464 2.037387 3.661576 0
M  V30 END ATOM
M  V30 BEGIN BOND
M  V30 1 1 1 2
M  V30 2 1 2 3
M  V30 3 1 3 4
M  V30 4 1 4 5
M  V30 5 1 5 6
M  V30 6 2 6 7
M  V30 7 1 7 8
M  V30 8 2 8 9
M  V30 9 1 9 10
M  V30 10 1 10 11
M  V30 11 1 11 12
M  V30 12 1 12 13
M  V30 13 2 13 14
M  V30 14 1 14 15
M  V30 15 1 15 16
M  V30 16 2 16 17
M  V30 17 1 17 18
M  V30 18 2 18 19
M  V30 19 1 19 20
M  V30 20 2 20 21
M  V30 21 1 21 22
M  V30 22 2 22 23
M  V30 23 1 23 24
M  V30 24 1 24 25
M  V30 25 1 25 26
M  V30 26 1 26 27
M  V30 27 1 27 28
M  V30 28 1 28 29
M  V30 29 1 29 30
M  V30 30 1 30 31
M  V30 31 1 31 32
M  V30 32 2 24 33
M  V30 33 1 19 34
M  V30 34 2 34 35
M  V30 35 2 12 36
M  V30 36 1 36 37
M  V30 37 1 5 38
M  V30 38 1 38 39
M  V30 39 1 39 2
M  V30 40 1 37 6
M  V30 41 2 37 10
M  V30 42 1 35 13
M  V30 43 1 35 16
M  V30 44 1 33 20
M  V30 45 1 32 28
M  V30 46 1 1 40
M  V30 47 1 1 41
M  V30 48 1 1 42
M  V30 49 1 3 43
M  V30 50 1 3 44
M  V30 51 1 4 45
M  V30 52 1 4 46
M  V30 53 1 7 47
M  V30 54 1 8 48
M  V30 55 1 11 49
M  V30 56 1 15 50
M  V30 57 1 17 51
M  V30 58 1 21 52
M  V30 59 1 23 53
M  V30 60 1 25 54
M  V30 61 1 25 55
M  V30 62 1 26 56
M  V30 63 1 27 57
M  V30 64 1 27 58
M  V30 65 1 28 59
M  V30 66 1 29 60
M  V30 67 1 29 61
M  V30 68 1 30 62
M  V30 69 1 30 63
M  V30 70 1 31 64
M  V30 71 1 31 65
M  V30 72 1 32 66
M  V30 73 1 32 67
M  V30 74 1 33 68
M  V30 75 1 34 69
M  V30 76 1 36 70
M  V30 77 1 38 71
M  V30 78 1 38 72
M  V30 79 1 39 73
M  V30 80 1 39 74
M  V30 END BOND
M  V30 END CTAB
M  END
>  <Dataset>  (497) 
ChEMBL_Kinases

>  <Ligand_Instance>  (497) 
nan

>  <PDB_ID>  (497) 
nan

>  <Standardized_SMILES>  (497) 
CN1CCN(c2ccnc3[nH]c(-c4n[nH]c5cnc(-c6cncc(CNCC7CCCC7)c6)cc45)cc23)CC1

>  <Name>  (497) 
nan

>  <Pocket>  (497) 
nan

>  <ATP_Site>  (497) 
nan

>  <Peripheral>  (497) 
nan

>  <Num_H_Atoms_ProtBoundConf>  (497) 
nan

>  <Num_Resolved_Atoms>  (497) 
nan

>  <Num_Not_Resolved_Atoms>  (497) 
nan

$$$$
CHEMBL4442768
     RDKit          3D

  0  0  0  0  0  0  0  0  0  0999 V3000
M  V30 BEGIN CTAB
M  V30 COUNTS 77 80 0 0 0
M  V30 BEGIN ATOM
M  V30 1 C 5.247700 -1.830007 4.463125 0
M  V30 2 C 5.588128 -2.672251 3.288920 0
M  V30 3 C 4.590754 -2.637001 2.175706 0 CFG=2
M  V30 4 C 5.129209 -3.588056 1.131211 0
M  V30 5 O 6.192982 -4.289079 1.282657 0
M  V30 6 N 4.419084 -3.716798 -0.090704 0
M  V30 7 C 4.409367 -4.926649 -0.862134 0
M  V30 8 C 3.713470 -2.556445 -0.505242 0
M  V30 9 C 3.009518 -2.661545 -1.683124 0
M  V30 10 N 2.323759 -1.552032 -2.078541 0
M  V30 11 C 2.364163 -0.433276 -1.319542 0
M  V30 12 N 1.617079 0.710327 -1.785129 0
M  V30 13 C 0.208826 0.688055 -1.483269 0
M  V30 14 C -0.394465 -0.361942 -0.854276 0
M  V30 15 C -1.738152 -0.413023 -0.569127 0
M  V30 16 F -2.360914 -1.434415 0.052085 0
M  V30 17 C -2.556631 0.636215 -0.921867 0
M  V30 18 C -3.980634 0.839258 -0.752243 0
M  V30 19 O -4.657742 1.867549 -1.041910 0
M  V30 20 N -4.848550 -0.129204 -0.215173 0
M  V30 21 C -6.243389 -0.313593 0.106572 0
M  V30 22 C -6.929625 -1.343343 -0.731192 0
M  V30 23 C -7.774506 -2.209834 0.153717 0
M  V30 24 N -7.041067 -2.833790 1.222355 0
M  V30 25 C -6.100324 -3.819864 0.727832 0
M  V30 26 C -6.386502 -1.881953 2.087514 0
M  V30 27 C -6.474633 -0.469447 1.588706 0
M  V30 28 C -1.957575 1.696632 -1.554495 0
M  V30 29 C -0.614265 1.762252 -1.846583 0
M  V30 30 O 0.015120 2.819392 -2.481980 0
M  V30 31 C -0.777330 3.923204 -2.865820 0
M  V30 32 C 0.051209 4.997874 -3.537244 0
M  V30 33 O 1.010275 5.423831 -2.648508 0
M  V30 34 N 3.057090 -0.362645 -0.182430 0
M  V30 35 C 3.780218 -1.413155 0.307003 0
M  V30 36 N 4.521152 -1.302553 1.558020 0
M  V30 37 C 4.975299 0.031974 1.902901 0
M  V30 38 C 5.033189 0.924144 0.653917 0
M  V30 39 C 4.084314 0.714595 2.927039 0
M  V30 40 H 5.883123 -0.925611 4.476749 0
M  V30 41 H 4.165068 -1.644319 4.533285 0
M  V30 42 H 5.478878 -2.433627 5.404008 0
M  V30 43 H 5.758980 -3.738747 3.628672 0
M  V30 44 H 6.608380 -2.392964 2.876925 0
M  V30 45 H 3.585333 -2.972133 2.448094 0
M  V30 46 H 4.875871 -4.721448 -1.869878 0
M  V30 47 H 3.357799 -5.237406 -1.128968 0
M  V30 48 H 4.969470 -5.744315 -0.399110 0
M  V30 49 H 3.012698 -3.564219 -2.238790 0
M  V30 50 H 1.997189 1.522236 -2.304126 0
M  V30 51 H 0.216260 -1.201763 -0.562232 0
M  V30 52 H -4.528593 -1.067931 0.095303 0
M  V30 53 H -6.729339 0.679123 -0.141682 0
M  V30 54 H -6.223082 -1.929944 -1.354821 0
M  V30 55 H -7.636018 -0.858438 -1.449738 0
M  V30 56 H -8.638544 -1.643047 0.510111 0
M  V30 57 H -8.182657 -3.036582 -0.474808 0
M  V30 58 H -6.604332 -4.591846 0.130348 0
M  V30 59 H -5.226541 -3.387303 0.213545 0
M  V30 60 H -5.699594 -4.351627 1.636049 0
M  V30 61 H -6.931128 -1.923210 3.053192 0
M  V30 62 H -5.360924 -2.237330 2.297288 0
M  V30 63 H -5.683559 0.115518 2.105015 0
M  V30 64 H -7.445054 -0.043030 1.913839 0
M  V30 65 H -2.459864 2.595188 -1.895645 0
M  V30 66 H -1.166030 4.359650 -1.919740 0
M  V30 67 H -1.639275 3.674552 -3.485599 0
M  V30 68 H 0.470850 4.564331 -4.474902 0
M  V30 69 H -0.583573 5.831737 -3.841492 0
M  V30 70 H 0.706255 6.279773 -2.233277 0
M  V30 71 H 6.005836 -0.015387 2.295254 0
M  V30 72 H 5.919005 1.630744 0.756924 0
M  V30 73 H 5.294131 0.294946 -0.200023 0
M  V30 74 H 4.150682 1.548003 0.528676 0
M  V30 75 H 4.662369 0.985544 3.832418 0
M  V30 76 H 3.748767 1.691999 2.507145 0
M  V30 77 H 3.227303 0.092493 3.218918 0
M  V30 END ATOM
M  V30 BEGIN BOND
M  V30 1 1 1 2
M  V30 2 1 2 3
M  V30 3 1 3 4
M  V30 4 2 4 5
M  V30 5 1 4 6
M  V30 6 1 6 7
M  V30 7 1 6 8
M  V30 8 2 8 9
M  V30 9 1 9 10
M  V30 10 2 10 11
M  V30 11 1 11 12
M  V30 12 1 12 13
M  V30 13 2 13 14
M  V30 14 1 14 15
M  V30 15 1 15 16
M  V30 16 2 15 17
M  V30 17 1 17 18
M  V30 18 2 18 19
M  V30 19 1 18 20
M  V30 20 1 20 21
M  V30 21 1 21 22
M  V30 22 1 22 23
M  V30 23 1 23 24
M  V30 24 1 24 25
M  V30 25 1 24 26
M  V30 26 1 26 27
M  V30 27 1 17 28
M  V30 28 2 28 29
M  V30 29 1 29 30
M  V30 30 1 30 31
M  V30 31 1 31 32
M  V30 32 1 32 33
M  V30 33 1 11 34
M  V30 34 2 34 35
M  V30 35 1 35 36
M  V30 36 1 36 37
M  V30 37 1 37 38
M  V30 38 1 37 39
M  V30 39 1 36 3
M  V30 40 1 35 8
M  V30 41 1 29 13
M  V30 42 1 27 21
M  V30 43 1 1 40
M  V30 44 1 1 41
M  V30 45 1 1 42
M  V30 46 1 2 43
M  V30 47 1 2 44
M  V30 48 1 3 45 CFG=1
M  V30 49 1 7 46
M  V30 50 1 7 47
M  V30 51 1 7 48
M  V30 52 1 9 49
M  V30 53 1 12 50
M  V30 54 1 14 51
M  V30 55 1 20 52
M  V30 56 1 21 53
M  V30 57 1 22 54
M  V30 58 1 22 55
M  V30 59 1 23 56
M  V30 60 1 23 57
M  V30 61 1 25 58
M  V30 62 1 25 59
M  V30 63 1 25 60
M  V30 64 1 26 61
M  V30 65 1 26 62
M  V30 66 1 27 63
M  V30 67 1 27 64
M  V30 68 1 28 65
M  V30 69 1 31 66
M  V30 70 1 31 67
M  V30 71 1 32 68
M  V30 72 1 32 69
M  V30 73 1 33 70
M  V30 74 1 37 71
M  V30 75 1 38 72
M  V30 76 1 38 73
M  V30 77 1 38 74
M  V30 78 1 39 75
M  V30 79 1 39 76
M  V30 80 1 39 77
M  V30 END BOND
M  V30 END CTAB
M  END
>  <Dataset>  (498) 
ChEMBL_Kinases

>  <Ligand_Instance>  (498) 
nan

>  <PDB_ID>  (498) 
nan

>  <Standardized_SMILES>  (498) 
CC[C@@H]1C(=O)N(C)c2cnc(Nc3cc(F)c(C(=O)NC4CCN(C)CC4)cc3OCCO)nc2N1C(C)C

>  <Name>  (498) 
nan

>  <Pocket>  (498) 
nan

>  <ATP_Site>  (498) 
nan

>  <Peripheral>  (498) 
nan

>  <Num_H_Atoms_ProtBoundConf>  (498) 
nan

>  <Num_Resolved_Atoms>  (498) 
nan

>  <Num_Not_Resolved_Atoms>  (498) 
nan

$$$$
CHEMBL4751376
     RDKit          3D

  0  0  0  0  0  0  0  0  0  0999 V3000
M  V30 BEGIN CTAB
M  V30 COUNTS 61 64 0 0 0
M  V30 BEGIN ATOM
M  V30 1 C 4.290517 -0.143179 2.932104 0
M  V30 2 C 5.560055 -0.436683 2.159801 0
M  V30 3 C 5.886732 -1.903030 2.422416 0
M  V30 4 N 5.399032 -0.189915 0.729845 0
M  V30 5 C 5.047212 1.166446 0.408548 0
M  V30 6 C 5.928029 2.191722 0.152806 0
M  V30 7 N 5.408481 3.409998 -0.134069 0
M  V30 8 C 4.074016 3.578668 -0.159947 0
M  V30 9 C 3.171540 2.567727 0.092696 0
M  V30 10 C 1.726272 2.766280 0.059963 0
M  V30 11 C 1.109764 3.967831 -0.222037 0
M  V30 12 C -0.263270 4.100624 -0.241701 0
M  V30 13 C -1.056075 3.005204 0.027419 0
M  V30 14 C -2.428539 3.012013 0.037575 0
M  V30 15 N -3.172534 1.927770 0.303464 0
M  V30 16 C -2.638495 0.727153 0.586101 0
M  V30 17 N -3.511903 -0.356679 0.850147 0
M  V30 18 C -3.207240 -1.701496 1.173843 0
M  V30 19 O -1.996966 -2.028139 1.250555 0
M  V30 20 C -4.246265 -2.730001 1.423516 0
M  V30 21 C -5.135761 -2.917785 0.189661 0
M  V30 22 C -4.227051 -3.233828 -0.948609 0
M  V30 23 N -3.410138 -4.349952 -0.670128 0
M  V30 24 C -3.412806 -5.331212 -1.735137 0
M  V30 25 C -2.698703 -4.685766 -2.929185 0
M  V30 26 F -2.635947 -5.527423 -4.012782 0
M  V30 27 C -3.507619 -4.975912 0.591978 0
M  V30 28 C -3.590236 -4.046733 1.764377 0
M  V30 29 C -1.275498 0.707551 0.579025 0
M  V30 30 C -0.468793 1.787892 0.313570 0
M  V30 31 C 0.911633 1.690541 0.324636 0
M  V30 32 N 3.717624 1.366188 0.375192 0
M  V30 33 H 3.474054 -0.659220 2.370549 0
M  V30 34 H 4.382943 -0.703514 3.888820 0
M  V30 35 H 4.110643 0.915330 3.126761 0
M  V30 36 H 6.411693 0.167706 2.499329 0
M  V30 37 H 6.550252 -2.339113 1.653415 0
M  V30 38 H 4.938015 -2.509927 2.416085 0
M  V30 39 H 6.291859 -1.998568 3.444990 0
M  V30 40 H 5.508547 -0.874720 -0.076469 0
M  V30 41 H 6.955685 1.871773 0.218021 0
M  V30 42 H 3.733726 4.572299 -0.394554 0
M  V30 43 H 1.719515 4.828356 -0.433035 0
M  V30 44 H -0.755509 5.032292 -0.460203 0
M  V30 45 H -2.942718 3.936014 -0.179277 0
M  V30 46 H -4.542442 -0.189625 0.813023 0
M  V30 47 H -4.909616 -2.356058 2.225082 0
M  V30 48 H -5.742014 -2.017602 0.061097 0
M  V30 49 H -5.773168 -3.795177 0.403757 0
M  V30 50 H -4.810773 -3.461020 -1.872167 0
M  V30 51 H -3.578969 -2.359666 -1.168107 0
M  V30 52 H -2.851108 -6.227410 -1.390582 0
M  V30 53 H -4.464737 -5.562474 -2.016904 0
M  V30 54 H -1.674194 -4.397959 -2.624911 0
M  V30 55 H -3.303012 -3.804548 -3.245557 0
M  V30 56 H -4.337028 -5.712610 0.640170 0
M  V30 57 H -2.567876 -5.582691 0.741190 0
M  V30 58 H -4.204539 -4.533144 2.548207 0
M  V30 59 H -2.593143 -3.853569 2.210230 0
M  V30 60 H -0.757043 -0.192037 0.790195 0
M  V30 61 H 1.356074 0.730391 0.550636 0
M  V30 END ATOM
M  V30 BEGIN BOND
M  V30 1 1 1 2
M  V30 2 1 2 3
M  V30 3 1 2 4
M  V30 4 1 4 5
M  V30 5 2 5 6
M  V30 6 1 6 7
M  V30 7 2 7 8
M  V30 8 1 8 9
M  V30 9 1 9 10
M  V30 10 2 10 11
M  V30 11 1 11 12
M  V30 12 2 12 13
M  V30 13 1 13 14
M  V30 14 2 14 15
M  V30 15 1 15 16
M  V30 16 1 16 17
M  V30 17 1 17 18
M  V30 18 2 18 19
M  V30 19 1 18 20
M  V30 20 1 20 21
M  V30 21 1 21 22
M  V30 22 1 22 23
M  V30 23 1 23 24
M  V30 24 1 24 25
M  V30 25 1 25 26
M  V30 26 1 23 27
M  V30 27 1 27 28
M  V30 28 2 16 29
M  V30 29 1 29 30
M  V30 30 2 30 31
M  V30 31 2 9 32
M  V30 32 1 32 5
M  V30 33 1 31 10
M  V30 34 1 30 13
M  V30 35 1 28 20
M  V30 36 1 1 33
M  V30 37 1 1 34
M  V30 38 1 1 35
M  V30 39 1 2 36
M  V30 40 1 3 37
M  V30 41 1 3 38
M  V30 42 1 3 39
M  V30 43 1 4 40
M  V30 44 1 6 41
M  V30 45 1 8 42
M  V30 46 1 11 43
M  V30 47 1 12 44
M  V30 48 1 14 45
M  V30 49 1 17 46
M  V30 50 1 20 47
M  V30 51 1 21 48
M  V30 52 1 21 49
M  V30 53 1 22 50
M  V30 54 1 22 51
M  V30 55 1 24 52
M  V30 56 1 24 53
M  V30 57 1 25 54
M  V30 58 1 25 55
M  V30 59 1 27 56
M  V30 60 1 27 57
M  V30 61 1 28 58
M  V30 62 1 28 59
M  V30 63 1 29 60
M  V30 64 1 31 61
M  V30 END BOND
M  V30 END CTAB
M  END
>  <Dataset>  (499) 
ChEMBL_Kinases

>  <Ligand_Instance>  (499) 
nan

>  <PDB_ID>  (499) 
nan

>  <Standardized_SMILES>  (499) 
CC(C)Nc1cncc(-c2ccc3cnc(NC(=O)C4CCN(CCF)CC4)cc3c2)n1

>  <Name>  (499) 
nan

>  <Pocket>  (499) 
nan

>  <ATP_Site>  (499) 
nan

>  <Peripheral>  (499) 
nan

>  <Num_H_Atoms_ProtBoundConf>  (499) 
nan

>  <Num_Resolved_Atoms>  (499) 
nan

>  <Num_Not_Resolved_Atoms>  (499) 
nan

$$$$
CHEMBL4751301
     RDKit          3D

  0  0  0  0  0  0  0  0  0  0999 V3000
M  V30 BEGIN CTAB
M  V30 COUNTS 76 81 0 0 0
M  V30 BEGIN ATOM
M  V30 1 C 7.885398 0.198886 1.618634 0
M  V30 2 N 6.625930 0.392045 2.332298 0
M  V30 3 N 6.373847 0.116189 3.594735 0
M  V30 4 C 5.097405 0.434370 3.881332 0
M  V30 5 C 4.500816 0.947047 2.719877 0
M  V30 6 C 3.107404 1.362181 2.773584 0
M  V30 7 C 2.726148 2.185534 3.843811 0
M  V30 8 C 1.437663 2.678771 4.065280 0
M  V30 9 C 0.479429 2.313451 3.144061 0
M  V30 10 C -0.810652 2.772512 3.314406 0
M  V30 11 N -1.777699 2.428887 2.422561 0
M  V30 12 C -1.463071 1.630775 1.364176 0
M  V30 13 N -2.478717 1.250557 0.403466 0
M  V30 14 C -3.083654 0.049090 0.854914 0
M  V30 15 O -2.575853 -0.350030 1.954165 0
M  V30 16 C -4.164220 -0.658718 0.152140 0
M  V30 17 C -3.802889 -1.123103 -1.240689 0
M  V30 18 C -5.065151 -1.780560 -1.797508 0
M  V30 19 N -6.099574 -1.916164 -0.777290 0
M  V30 20 C -6.645349 -3.163773 -0.307687 0
M  V30 21 O -7.532602 -3.352056 0.562591 0
M  V30 22 C -6.146526 -4.408834 -0.875484 0
M  V30 23 C -4.797150 -4.663072 -0.836268 0
M  V30 24 C -4.195224 -5.802931 -1.337631 0
M  V30 25 C -4.994601 -6.762592 -1.922069 0
M  V30 26 C -6.373856 -6.543363 -1.982456 0
M  V30 27 C -6.925720 -5.387512 -1.466707 0
M  V30 28 C -6.571518 -0.657547 -0.234575 0
M  V30 29 C -5.354470 0.248093 -0.006090 0
M  V30 30 C -0.167748 1.147173 1.159571 0
M  V30 31 C 0.800950 1.505817 2.073953 0
M  V30 32 C 2.076814 1.056458 1.912753 0
M  V30 33 C 5.486913 0.902631 1.782362 0
M  V30 34 C 5.299288 1.350555 0.407714 0
M  V30 35 N 4.602181 0.519571 -0.478324 0
M  V30 36 C 5.119505 -0.771517 -0.719399 0
M  V30 37 C 4.589416 -1.394383 -1.993946 0
M  V30 38 C 3.085554 -1.193071 -1.971103 0
M  V30 39 C 2.835089 0.286656 -2.171099 0
M  V30 40 C 3.864294 1.145252 -1.518976 0
M  V30 41 H 8.087621 1.003521 0.908314 0
M  V30 42 H 8.669987 0.027349 2.377045 0
M  V30 43 H 7.753426 -0.794179 1.098421 0
M  V30 44 H 4.751456 0.257525 4.897818 0
M  V30 45 H 3.493017 2.475515 4.578136 0
M  V30 46 H 1.266348 3.306773 4.927087 0
M  V30 47 H -1.023455 3.406748 4.170472 0
M  V30 48 H -2.823773 1.678307 -0.507091 0
M  V30 49 H -4.519427 -1.555434 0.693355 0
M  V30 50 H -2.965345 -1.846424 -1.240179 0
M  V30 51 H -3.537444 -0.219474 -1.826894 0
M  V30 52 H -4.875623 -2.706789 -2.339167 0
M  V30 53 H -5.498218 -1.066998 -2.558927 0
M  V30 54 H -4.120146 -3.939805 -0.387256 0
M  V30 55 H -3.116995 -5.954702 -1.280417 0
M  V30 56 H -4.505425 -7.652102 -2.309157 0
M  V30 57 H -6.987283 -7.304730 -2.443367 0
M  V30 58 H -8.001309 -5.207124 -1.509592 0
M  V30 59 H -7.050905 -0.901050 0.756853 0
M  V30 60 H -7.334384 -0.179167 -0.880559 0
M  V30 61 H -5.223506 0.810945 -0.969857 0
M  V30 62 H -5.497305 0.972876 0.792256 0
M  V30 63 H 0.026483 0.511089 0.293750 0
M  V30 64 H 2.328057 0.433642 1.094053 0
M  V30 65 H 4.812913 2.355532 0.400799 0
M  V30 66 H 6.319903 1.556081 -0.024340 0
M  V30 67 H 6.225882 -0.720535 -0.805602 0
M  V30 68 H 4.922788 -1.514031 0.079987 0
M  V30 69 H 4.817603 -2.493980 -1.952040 0
M  V30 70 H 5.024011 -0.962815 -2.906376 0
M  V30 71 H 2.724192 -1.512028 -0.954370 0
M  V30 72 H 2.541683 -1.747931 -2.734187 0
M  V30 73 H 1.798940 0.465097 -1.827057 0
M  V30 74 H 2.839988 0.460652 -3.270111 0
M  V30 75 H 3.350549 2.037368 -1.092199 0
M  V30 76 H 4.590496 1.547170 -2.263231 0
M  V30 END ATOM
M  V30 BEGIN BOND
M  V30 1 1 1 2
M  V30 2 1 2 3
M  V30 3 2 3 4
M  V30 4 1 4 5
M  V30 5 1 5 6
M  V30 6 2 6 7
M  V30 7 1 7 8
M  V30 8 2 8 9
M  V30 9 1 9 10
M  V30 10 2 10 11
M  V30 11 1 11 12
M  V30 12 1 12 13
M  V30 13 1 13 14
M  V30 14 2 14 15
M  V30 15 1 14 16
M  V30 16 1 16 17
M  V30 17 1 17 18
M  V30 18 1 18 19
M  V30 19 1 19 20
M  V30 20 2 20 21
M  V30 21 1 20 22
M  V30 22 2 22 23
M  V30 23 1 23 24
M  V30 24 2 24 25
M  V30 25 1 25 26
M  V30 26 2 26 27
M  V30 27 1 19 28
M  V30 28 1 28 29
M  V30 29 2 12 30
M  V30 30 1 30 31
M  V30 31 2 31 32
M  V30 32 2 5 33
M  V30 33 1 33 34
M  V30 34 1 34 35
M  V30 35 1 35 36
M  V30 36 1 36 37
M  V30 37 1 37 38
M  V30 38 1 38 39
M  V30 39 1 39 40
M  V30 40 1 33 2
M  V30 41 1 40 35
M  V30 42 1 32 6
M  V30 43 1 31 9
M  V30 44 1 29 16
M  V30 45 1 27 22
M  V30 46 1 1 41
M  V30 47 1 1 42
M  V30 48 1 1 43
M  V30 49 1 4 44
M  V30 50 1 7 45
M  V30 51 1 8 46
M  V30 52 1 10 47
M  V30 53 1 13 48
M  V30 54 1 16 49
M  V30 55 1 17 50
M  V30 56 1 17 51
M  V30 57 1 18 52
M  V30 58 1 18 53
M  V30 59 1 23 54
M  V30 60 1 24 55
M  V30 61 1 25 56
M  V30 62 1 26 57
M  V30 63 1 27 58
M  V30 64 1 28 59
M  V30 65 1 28 60
M  V30 66 1 29 61
M  V30 67 1 29 62
M  V30 68 1 30 63
M  V30 69 1 32 64
M  V30 70 1 34 65
M  V30 71 1 34 66
M  V30 72 1 36 67
M  V30 73 1 36 68
M  V30 74 1 37 69
M  V30 75 1 37 70
M  V30 76 1 38 71
M  V30 77 1 38 72
M  V30 78 1 39 73
M  V30 79 1 39 74
M  V30 80 1 40 75
M  V30 81 1 40 76
M  V30 END BOND
M  V30 END CTAB
M  END
>  <Dataset>  (500) 
ChEMBL_Kinases

>  <Ligand_Instance>  (500) 
nan

>  <PDB_ID>  (500) 
nan

>  <Standardized_SMILES>  (500) 
Cn1ncc(-c2ccc3cnc(NC(=O)C4CCN(C(=O)c5ccccc5)CC4)cc3c2)c1CN1CCCCC1

>  <Name>  (500) 
nan

>  <Pocket>  (500) 
nan

>  <ATP_Site>  (500) 
nan

>  <Peripheral>  (500) 
nan

>  <Num_H_Atoms_ProtBoundConf>  (500) 
nan

>  <Num_Resolved_Atoms>  (500) 
nan

>  <Num_Not_Resolved_Atoms>  (500) 
nan

$$$$
CHEMBL4751276
     RDKit          3D

  0  0  0  0  0  0  0  0  0  0999 V3000
M  V30 BEGIN CTAB
M  V30 COUNTS 54 59 0 0 0
M  V30 BEGIN ATOM
M  V30 1 C 6.130136 0.652459 3.203302 0
M  V30 2 C 5.466061 -0.495917 2.521269 0
M  V30 3 C 5.563347 -1.785243 3.308626 0
M  V30 4 N 4.087918 -0.219868 2.135890 0
M  V30 5 C 3.770402 0.818711 1.231030 0
M  V30 6 C 4.714830 1.630505 0.650391 0
M  V30 7 N 4.368676 2.623237 -0.217066 0
M  V30 8 C 3.077053 2.859449 -0.550430 0
M  V30 9 C 2.092202 2.070594 0.006600 0
M  V30 10 C 0.652157 2.227934 -0.277205 0
M  V30 11 C 0.136759 3.499159 -0.555809 0
M  V30 12 C -1.206703 3.613473 -0.816611 0
M  V30 13 C -2.032838 2.510239 -0.806298 0
M  V30 14 N -3.341432 2.298462 -1.013605 0
M  V30 15 N -3.630398 1.027521 -0.881397 0
M  V30 16 C -2.537389 0.285041 -0.574573 0
M  V30 17 C -2.518814 -1.150231 -0.363081 0
M  V30 18 N -3.638649 -1.878836 -0.461918 0
M  V30 19 C -3.393759 -3.166999 -0.230630 0
M  V30 20 C -4.217195 -4.294520 -0.217617 0
M  V30 21 C -5.650154 -4.163195 -0.498407 0
M  V30 22 C -6.448040 -3.507459 -1.425514 0
M  V30 23 C -7.757501 -3.822611 -1.107154 0
M  V30 24 O -7.759859 -4.617112 -0.056711 0
M  V30 25 C -6.530684 -4.842800 0.334096 0
M  V30 26 N -3.659596 -5.469420 0.054266 0
M  V30 27 C -2.350689 -5.625179 0.315691 0
M  V30 28 C -1.485336 -4.526025 0.314398 0
M  V30 29 C -2.061699 -3.306996 0.032754 0
M  V30 30 N -1.589985 -2.054856 -0.062536 0
M  V30 31 C -1.556518 1.249423 -0.536273 0
M  V30 32 C -0.207614 1.163442 -0.278623 0
M  V30 33 C 2.458580 1.065980 0.886239 0
M  V30 34 H 7.111456 0.836055 2.738592 0
M  V30 35 H 6.345018 0.296484 4.255852 0
M  V30 36 H 5.523157 1.582574 3.248787 0
M  V30 37 H 5.993845 -0.694431 1.565072 0
M  V30 38 H 5.495802 -2.634105 2.600867 0
M  V30 39 H 6.567041 -1.803760 3.797462 0
M  V30 40 H 4.794197 -1.905098 4.076552 0
M  V30 41 H 3.325886 -0.805081 2.540445 0
M  V30 42 H 5.764812 1.497728 0.869906 0
M  V30 43 H 2.775406 3.640814 -1.236383 0
M  V30 44 H 0.778772 4.361437 -0.564487 0
M  V30 45 H -1.642506 4.563460 -1.034005 0
M  V30 46 H -4.062246 3.015925 -1.249022 0
M  V30 47 H -5.932699 -2.914413 -2.171027 0
M  V30 48 H -8.542588 -3.394630 -1.732184 0
M  V30 49 H -6.403132 -5.496405 1.207940 0
M  V30 50 H -1.879739 -6.573481 0.538973 0
M  V30 51 H -0.420691 -4.557763 0.513523 0
M  V30 52 H -0.594953 -1.856633 0.090222 0
M  V30 53 H 0.244682 0.231026 -0.060958 0
M  V30 54 H 1.706168 0.418481 1.349477 0
M  V30 END ATOM
M  V30 BEGIN BOND
M  V30 1 1 1 2
M  V30 2 1 2 3
M  V30 3 1 2 4
M  V30 4 1 4 5
M  V30 5 2 5 6
M  V30 6 1 6 7
M  V30 7 2 7 8
M  V30 8 1 8 9
M  V30 9 1 9 10
M  V30 10 2 10 11
M  V30 11 1 11 12
M  V30 12 2 12 13
M  V30 13 1 13 14
M  V30 14 1 14 15
M  V30 15 2 15 16
M  V30 16 1 16 17
M  V30 17 2 17 18
M  V30 18 1 18 19
M  V30 19 2 19 20
M  V30 20 1 20 21
M  V30 21 1 21 22
M  V30 22 2 22 23
M  V30 23 1 23 24
M  V30 24 1 24 25
M  V30 25 1 20 26
M  V30 26 2 26 27
M  V30 27 1 27 28
M  V30 28 2 28 29
M  V30 29 1 29 30
M  V30 30 1 16 31
M  V30 31 2 31 32
M  V30 32 2 9 33
M  V30 33 1 33 5
M  V30 34 1 32 10
M  V30 35 1 31 13
M  V30 36 1 30 17
M  V30 37 1 29 19
M  V30 38 2 25 21
M  V30 39 1 1 34
M  V30 40 1 1 35
M  V30 41 1 1 36
M  V30 42 1 2 37
M  V30 43 1 3 38
M  V30 44 1 3 39
M  V30 45 1 3 40
M  V30 46 1 4 41
M  V30 47 1 6 42
M  V30 48 1 8 43
M  V30 49 1 11 44
M  V30 50 1 12 45
M  V30 51 1 14 46
M  V30 52 1 22 47
M  V30 53 1 23 48
M  V30 54 1 25 49
M  V30 55 1 27 50
M  V30 56 1 28 51
M  V30 57 1 30 52
M  V30 58 1 32 53
M  V30 59 1 33 54
M  V30 END BOND
M  V30 END CTAB
M  END
>  <Dataset>  (501) 
ChEMBL_Kinases

>  <Ligand_Instance>  (501) 
nan

>  <PDB_ID>  (501) 
nan

>  <Standardized_SMILES>  (501) 
CC(C)Nc1cncc(-c2ccc3[nH]nc(-c4nc5c(-c6ccoc6)nccc5[nH]4)c3c2)c1

>  <Name>  (501) 
nan

>  <Pocket>  (501) 
nan

>  <ATP_Site>  (501) 
nan

>  <Peripheral>  (501) 
nan

>  <Num_H_Atoms_ProtBoundConf>  (501) 
nan

>  <Num_Resolved_Atoms>  (501) 
nan

>  <Num_Not_Resolved_Atoms>  (501) 
nan

$$$$
CHEMBL4751252
     RDKit          3D

  0  0  0  0  0  0  0  0  0  0999 V3000
M  V30 BEGIN CTAB
M  V30 COUNTS 50 55 0 0 0
M  V30 BEGIN ATOM
M  V30 1 O 3.080116 -3.036114 -2.336051 0
M  V30 2 C 2.328881 -3.529221 -1.449795 0
M  V30 3 N 2.245537 -2.988928 -0.129131 0
M  V30 4 C 2.825601 -1.922533 0.602020 0
M  V30 5 C 3.993826 -2.174108 1.286148 0
M  V30 6 N 4.616512 -1.199105 2.037935 0
M  V30 7 C 4.069455 0.024428 2.105085 0
M  V30 8 C 2.899330 0.341573 1.443827 0
M  V30 9 C 2.397115 1.683168 1.631022 0
M  V30 10 C 3.208679 2.763214 1.848996 0
M  V30 11 N 2.602416 3.973917 2.034376 0
M  V30 12 C 1.238524 4.014765 1.986995 0
M  V30 13 N 0.591758 5.144583 2.169879 0
M  V30 14 N -0.578261 4.776325 2.062593 0
M  V30 15 C -1.072334 3.658625 1.842978 0
M  V30 16 C -1.866020 2.436216 1.598754 0
M  V30 17 C -3.127489 3.118312 1.783953 0
M  V30 18 C -4.222573 2.237818 1.639379 0
M  V30 19 C -5.610414 2.106357 1.661983 0
M  V30 20 N -6.195811 0.908619 1.433871 0
M  V30 21 C -5.550364 -0.226676 1.174358 0
M  V30 22 C -4.151261 -0.193520 1.127950 0
M  V30 23 C -3.588833 1.038120 1.365014 0
M  V30 24 N -2.279425 1.248476 1.364818 0
M  V30 25 C 0.237947 3.051581 1.780497 0
M  V30 26 C 1.042898 1.886008 1.610302 0
M  V30 27 C 2.275488 -0.637255 0.686218 0
M  V30 28 C 1.481267 -4.710162 -1.711689 0
M  V30 29 C 0.505725 -5.190789 -0.871533 0
M  V30 30 C -0.236964 -6.332931 -1.160385 0
M  V30 31 C -0.000135 -7.020083 -2.323707 0
M  V30 32 C 0.981612 -6.511212 -3.143292 0
M  V30 33 C 1.749929 -5.386741 -2.912690 0
M  V30 34 H 1.662468 -3.313866 0.674554 0
M  V30 35 H 4.460420 -3.172726 1.244771 0
M  V30 36 H 4.609512 0.762790 2.723856 0
M  V30 37 H 4.264712 2.691461 1.881051 0
M  V30 38 H 0.676057 6.151352 2.356857 0
M  V30 39 H -3.611562 4.097496 2.003869 0
M  V30 40 H -6.092862 3.047882 1.875935 0
M  V30 41 H -6.143074 -1.100475 1.016113 0
M  V30 42 H -3.597417 -1.076891 0.923308 0
M  V30 43 H -1.489881 0.634815 1.200798 0
M  V30 44 H 0.515611 0.969168 1.434673 0
M  V30 45 H 1.354291 -0.400645 0.162145 0
M  V30 46 H 0.302639 -4.661859 0.041665 0
M  V30 47 H -0.998290 -6.632982 -0.421540 0
M  V30 48 H -0.570586 -7.903928 -2.546954 0
M  V30 49 H 1.157173 -7.061659 -4.053139 0
M  V30 50 H 2.509578 -5.024095 -3.589375 0
M  V30 END ATOM
M  V30 BEGIN BOND
M  V30 1 2 1 2
M  V30 2 1 2 3
M  V30 3 1 3 4
M  V30 4 2 4 5
M  V30 5 1 5 6
M  V30 6 2 6 7
M  V30 7 1 7 8
M  V30 8 1 8 9
M  V30 9 2 9 10
M  V30 10 1 10 11
M  V30 11 2 11 12
M  V30 12 1 12 13
M  V30 13 1 13 14
M  V30 14 2 14 15
M  V30 15 1 15 16
M  V30 16 2 16 17
M  V30 17 1 17 18
M  V30 18 2 18 19
M  V30 19 1 19 20
M  V30 20 2 20 21
M  V30 21 1 21 22
M  V30 22 2 22 23
M  V30 23 1 23 24
M  V30 24 1 15 25
M  V30 25 2 25 26
M  V30 26 2 8 27
M  V30 27 1 2 28
M  V30 28 2 28 29
M  V30 29 1 29 30
M  V30 30 2 30 31
M  V30 31 1 31 32
M  V30 32 2 32 33
M  V30 33 1 27 4
M  V30 34 1 33 28
M  V30 35 1 26 9
M  V30 36 1 25 12
M  V30 37 1 24 16
M  V30 38 1 23 18
M  V30 39 1 3 34
M  V30 40 1 5 35
M  V30 41 1 7 36
M  V30 42 1 10 37
M  V30 43 1 13 38
M  V30 44 1 17 39
M  V30 45 1 19 40
M  V30 46 1 21 41
M  V30 47 1 22 42
M  V30 48 1 24 43
M  V30 49 1 26 44
M  V30 50 1 27 45
M  V30 51 1 29 46
M  V30 52 1 30 47
M  V30 53 1 31 48
M  V30 54 1 32 49
M  V30 55 1 33 50
M  V30 END BOND
M  V30 END CTAB
M  END
>  <Dataset>  (502) 
ChEMBL_Kinases

>  <Ligand_Instance>  (502) 
nan

>  <PDB_ID>  (502) 
nan

>  <Standardized_SMILES>  (502) 
O=C(Nc1cncc(-c2cnc3[nH]nc(-c4cc5cnccc5[nH]4)c3c2)c1)c1ccccc1

>  <Name>  (502) 
nan

>  <Pocket>  (502) 
nan

>  <ATP_Site>  (502) 
nan

>  <Peripheral>  (502) 
nan

>  <Num_H_Atoms_ProtBoundConf>  (502) 
nan

>  <Num_Resolved_Atoms>  (502) 
nan

>  <Num_Not_Resolved_Atoms>  (502) 
nan

$$$$
CHEMBL4444272
     RDKit          3D

  0  0  0  0  0  0  0  0  0  0999 V3000
M  V30 BEGIN CTAB
M  V30 COUNTS 53 60 0 0 0
M  V30 BEGIN ATOM
M  V30 1 C 3.271475 0.392461 -0.577509 0
M  V30 2 C 2.211057 -0.549700 0.051876 0 CFG=2
M  V30 3 O 2.167729 -0.138755 1.361549 0
M  V30 4 C 1.667622 -0.895290 2.329528 0 CFG=2
M  V30 5 C 1.770616 -2.381843 2.179667 0
M  V30 6 C 1.652412 -2.813308 0.729083 0 CFG=2
M  V30 7 O 1.999779 -4.127541 0.551402 0
M  V30 8 C 2.674125 -1.956549 0.019316 0 CFG=1
M  V30 9 O 3.022163 -2.443736 -1.217077 0
M  V30 10 N 0.220926 -0.623715 2.416372 0
M  V30 11 C -0.530755 -0.656957 3.523700 0
M  V30 12 C -0.059866 -0.919489 4.792931 0
M  V30 13 C -0.961436 -0.918845 5.836070 0
M  V30 14 C -2.305916 -0.652012 5.552142 0
M  V30 15 C -2.659639 -0.405446 4.257294 0
M  V30 16 C -1.842013 -0.387539 3.183461 0
M  V30 17 C -1.909623 -0.183568 1.850314 0
M  V30 18 C -2.916056 0.090383 0.996363 0
M  V30 19 C -2.617682 0.215119 -0.341323 0
M  V30 20 C -1.342763 0.066083 -0.768164 0
M  V30 21 C -0.774744 0.134779 -2.009042 0
M  V30 22 C -1.157298 0.352974 -3.299296 0
M  V30 23 C -0.349803 0.359383 -4.414180 0
M  V30 24 C 1.015793 0.118035 -4.228925 0
M  V30 25 C 1.449405 -0.109399 -2.930221 0
M  V30 26 C 0.570539 -0.100271 -1.843481 0
M  V30 27 N 0.910158 -0.314758 -0.577204 0
M  V30 28 C -0.298169 -0.208680 0.060223 0
M  V30 29 C -0.615844 -0.334758 1.402239 0
M  V30 30 C -3.860962 0.504349 -1.023302 0
M  V30 31 O -4.174021 0.706642 -2.196006 0
M  V30 32 N -4.913988 0.550372 -0.062120 0
M  V30 33 C -4.332848 0.290146 1.223838 0
M  V30 34 O -5.085708 0.283167 2.220301 0
M  V30 35 H 4.041322 -0.161165 -1.120849 0
M  V30 36 H 2.790294 1.229308 -1.109653 0
M  V30 37 H 3.862157 0.918199 0.237746 0
M  V30 38 H 2.080211 -0.613109 3.312983 0
M  V30 39 H 2.744249 -2.740604 2.556881 0
M  V30 40 H 0.979280 -2.904677 2.748278 0
M  V30 41 H 0.658665 -2.537278 0.304578 0
M  V30 42 H 1.587328 -4.518785 -0.258848 0
M  V30 43 H 3.602986 -2.032755 0.646816 0
M  V30 44 H 2.409317 -3.131354 -1.546887 0
M  V30 45 H 0.953575 -1.123448 5.026507 0
M  V30 46 H -0.656291 -1.116841 6.851430 0
M  V30 47 H -2.999216 -0.654144 6.372361 0
M  V30 48 H -3.676150 -0.212729 4.104097 0
M  V30 49 H -2.180434 0.541664 -3.509056 0
M  V30 50 H -0.720841 0.540234 -5.411176 0
M  V30 51 H 1.664665 0.117416 -5.078675 0
M  V30 52 H 2.500252 -0.296261 -2.870932 0
M  V30 53 H -5.949968 0.740611 -0.237819 0
M  V30 END ATOM
M  V30 BEGIN BOND
M  V30 1 1 2 1 CFG=3
M  V30 2 1 2 3
M  V30 3 1 3 4
M  V30 4 1 4 5
M  V30 5 1 5 6
M  V30 6 1 6 7
M  V30 7 1 6 8
M  V30 8 1 8 9
M  V30 9 1 4 10
M  V30 10 1 10 11
M  V30 11 2 11 12
M  V30 12 1 12 13
M  V30 13 2 13 14
M  V30 14 1 14 15
M  V30 15 2 15 16
M  V30 16 1 16 17
M  V30 17 2 17 18
M  V30 18 1 18 19
M  V30 19 2 19 20
M  V30 20 1 20 21
M  V30 21 2 21 22
M  V30 22 1 22 23
M  V30 23 2 23 24
M  V30 24 1 24 25
M  V30 25 2 25 26
M  V30 26 1 26 27
M  V30 27 1 27 28
M  V30 28 2 28 29
M  V30 29 1 19 30
M  V30 30 2 30 31
M  V30 31 1 30 32
M  V30 32 1 32 33
M  V30 33 2 33 34
M  V30 34 1 8 2
M  V30 35 1 29 10
M  V30 36 1 27 2
M  V30 37 1 16 11
M  V30 38 1 29 17
M  V30 39 1 33 18
M  V30 40 1 28 20
M  V30 41 1 26 21
M  V30 42 1 1 35
M  V30 43 1 1 36
M  V30 44 1 1 37
M  V30 45 1 4 38 CFG=1
M  V30 46 1 5 39
M  V30 47 1 5 40
M  V30 48 1 6 41 CFG=3
M  V30 49 1 7 42
M  V30 50 1 8 43 CFG=1
M  V30 51 1 9 44
M  V30 52 1 12 45
M  V30 53 1 13 46
M  V30 54 1 14 47
M  V30 55 1 15 48
M  V30 56 1 22 49
M  V30 57 1 23 50
M  V30 58 1 24 51
M  V30 59 1 25 52
M  V30 60 1 32 53
M  V30 END BOND
M  V30 END CTAB
M  END
>  <Dataset>  (503) 
ChEMBL_Kinases

>  <Ligand_Instance>  (503) 
nan

>  <PDB_ID>  (503) 
nan

>  <Standardized_SMILES>  (503) 
C[C@]12O[C@H](C[C@H](O)[C@H]1O)n1c3ccccc3c3c4c(c5c6ccccc6n2c5c31)C(=O)NC4=O

>  <Name>  (503) 
nan

>  <Pocket>  (503) 
nan

>  <ATP_Site>  (503) 
nan

>  <Peripheral>  (503) 
nan

>  <Num_H_Atoms_ProtBoundConf>  (503) 
nan

>  <Num_Resolved_Atoms>  (503) 
nan

>  <Num_Not_Resolved_Atoms>  (503) 
nan

$$$$
CHEMBL258844
     RDKit          3D

  0  0  0  0  0  0  0  0  0  0999 V3000
M  V30 BEGIN CTAB
M  V30 COUNTS 71 78 0 0 0
M  V30 BEGIN ATOM
M  V30 1 O 6.562191 -1.655262 -2.108114 0
M  V30 2 C 5.467564 -1.899329 -1.483568 0
M  V30 3 N 5.691013 -2.069491 -0.166038 0
M  V30 4 C 4.553429 -2.327671 0.502182 0
M  V30 5 C 4.097089 -2.588892 1.777147 0
M  V30 6 C 2.782746 -2.821643 2.089139 0
M  V30 7 C 1.895274 -2.780758 1.019099 0
M  V30 8 C 2.280232 -2.527942 -0.265175 0
M  V30 9 C 3.612839 -2.303640 -0.502887 0
M  V30 10 N 4.123317 -2.047972 -1.716099 0
M  V30 11 C 3.801614 -1.883020 -3.084314 0
M  V30 12 C 4.265115 -0.525168 -3.587197 0
M  V30 13 C 3.231236 0.553406 -3.446915 0
M  V30 14 N 2.188749 0.102628 -2.543223 0
M  V30 15 C 1.265499 1.210554 -2.328988 0
M  V30 16 C 0.156442 0.851045 -1.435081 0
M  V30 17 C -1.076618 0.380734 -1.837352 0
M  V30 18 C -2.095248 0.041966 -0.972558 0
M  V30 19 C -1.899223 0.171066 0.385506 0
M  V30 20 C -2.828458 -0.134175 1.466647 0
M  V30 21 N -3.058180 -1.476989 1.524343 0
M  V30 22 C -3.896643 -1.982064 2.473844 0
M  V30 23 C -4.160336 -3.345344 2.572381 0
M  V30 24 C -5.003085 -3.871998 3.525750 0
M  V30 25 N -5.411289 -5.125170 3.821452 0
M  V30 26 C -6.247594 -5.031453 4.870720 0
M  V30 27 N -6.371871 -3.734952 5.239996 0
M  V30 28 C -5.600439 -2.974871 4.413187 0
M  V30 29 C -5.373783 -1.600427 4.362230 0
M  V30 30 C -4.517823 -1.150733 3.379778 0
M  V30 31 N -4.268235 0.180758 3.295389 0
M  V30 32 C -3.445815 0.705457 2.368962 0
M  V30 33 C -3.113269 2.093643 2.187476 0
M  V30 34 C -3.524498 2.560373 0.933152 0
M  V30 35 C -3.297109 3.887655 0.558181 0
M  V30 36 C -2.664422 4.756509 1.417722 0
M  V30 37 C -2.248293 4.303352 2.673412 0
M  V30 38 C -2.482903 2.991830 3.021436 0
M  V30 39 C -0.670365 0.642850 0.845513 0
M  V30 40 C 0.325304 0.971534 -0.050522 0
M  V30 41 C 1.464035 -0.908272 -3.284435 0
M  V30 42 C 2.402648 -2.041901 -3.526807 0
M  V30 43 H 6.553673 -2.045796 0.455055 0
M  V30 44 H 4.874939 -2.598784 2.546734 0
M  V30 45 H 2.522486 -3.017432 3.120718 0
M  V30 46 H 0.846848 -2.965610 1.262104 0
M  V30 47 H 1.515867 -2.525289 -1.015417 0
M  V30 48 H 4.387913 -2.659164 -3.696224 0
M  V30 49 H 5.160161 -0.137683 -3.063443 0
M  V30 50 H 4.606781 -0.633484 -4.655448 0
M  V30 51 H 3.660465 1.525359 -3.093857 0
M  V30 52 H 2.768255 0.740110 -4.461225 0
M  V30 53 H 1.800593 2.140341 -2.047693 0
M  V30 54 H 0.870287 1.429551 -3.365096 0
M  V30 55 H -1.279217 0.271257 -2.893824 0
M  V30 56 H -3.054422 -0.322639 -1.250978 0
M  V30 57 H -3.665536 -3.986574 1.854472 0
M  V30 58 H -5.072104 -5.944827 3.265227 0
M  V30 59 H -6.726213 -5.883737 5.320564 0
M  V30 60 H -5.848979 -0.925694 5.061248 0
M  V30 61 H -4.036290 1.963921 0.163809 0
M  V30 62 H -3.621727 4.252462 -0.428899 0
M  V30 63 H -2.475325 5.785284 1.157413 0
M  V30 64 H -1.743144 4.922774 3.410084 0
M  V30 65 H -2.206316 2.518125 3.973313 0
M  V30 66 H -0.415881 0.780324 1.889722 0
M  V30 67 H 1.295100 1.342663 0.292652 0
M  V30 68 H 1.119355 -0.413753 -4.214456 0
M  V30 69 H 0.534311 -1.222900 -2.763608 0
M  V30 70 H 2.460669 -2.124027 -4.671196 0
M  V30 71 H 1.893889 -2.990430 -3.267525 0
M  V30 END ATOM
M  V30 BEGIN BOND
M  V30 1 2 1 2
M  V30 2 1 2 3
M  V30 3 1 3 4
M  V30 4 2 4 5
M  V30 5 1 5 6
M  V30 6 2 6 7
M  V30 7 1 7 8
M  V30 8 2 8 9
M  V30 9 1 9 10
M  V30 10 1 10 11
M  V30 11 1 11 12
M  V30 12 1 12 13
M  V30 13 1 13 14
M  V30 14 1 14 15
M  V30 15 1 15 16
M  V30 16 2 16 17
M  V30 17 1 17 18
M  V30 18 2 18 19
M  V30 19 1 19 20
M  V30 20 2 20 21
M  V30 21 1 21 22
M  V30 22 2 22 23
M  V30 23 1 23 24
M  V30 24 1 24 25
M  V30 25 1 25 26
M  V30 26 2 26 27
M  V30 27 1 27 28
M  V30 28 1 28 29
M  V30 29 2 29 30
M  V30 30 1 30 31
M  V30 31 2 31 32
M  V30 32 1 32 33
M  V30 33 2 33 34
M  V30 34 1 34 35
M  V30 35 2 35 36
M  V30 36 1 36 37
M  V30 37 2 37 38
M  V30 38 1 19 39
M  V30 39 2 39 40
M  V30 40 1 14 41
M  V30 41 1 41 42
M  V30 42 1 10 2
M  V30 43 1 42 11
M  V30 44 1 9 4
M  V30 45 1 40 16
M  V30 46 1 32 20
M  V30 47 1 38 33
M  V30 48 1 30 22
M  V30 49 2 28 24
M  V30 50 1 3 43
M  V30 51 1 5 44
M  V30 52 1 6 45
M  V30 53 1 7 46
M  V30 54 1 8 47
M  V30 55 1 11 48
M  V30 56 1 12 49
M  V30 57 1 12 50
M  V30 58 1 13 51
M  V30 59 1 13 52
M  V30 60 1 15 53
M  V30 61 1 15 54
M  V30 62 1 17 55
M  V30 63 1 18 56
M  V30 64 1 23 57
M  V30 65 1 25 58
M  V30 66 1 26 59
M  V30 67 1 29 60
M  V30 68 1 34 61
M  V30 69 1 35 62
M  V30 70 1 36 63
M  V30 71 1 37 64
M  V30 72 1 38 65
M  V30 73 1 39 66
M  V30 74 1 40 67
M  V30 75 1 41 68
M  V30 76 1 41 69
M  V30 77 1 42 70
M  V30 78 1 42 71
M  V30 END BOND
M  V30 END CTAB
M  END
>  <Dataset>  (504) 
ChEMBL_Kinases

>  <Ligand_Instance>  (504) 
nan

>  <PDB_ID>  (504) 
nan

>  <Standardized_SMILES>  (504) 
O=c1[nH]c2ccccc2n1C1CCN(Cc2ccc(-c3nc4cc5[nH]cnc5cc4nc3-c3ccccc3)cc2)CC1

>  <Name>  (504) 
nan

>  <Pocket>  (504) 
nan

>  <ATP_Site>  (504) 
nan

>  <Peripheral>  (504) 
nan

>  <Num_H_Atoms_ProtBoundConf>  (504) 
nan

>  <Num_Resolved_Atoms>  (504) 
nan

>  <Num_Not_Resolved_Atoms>  (504) 
nan

$$$$
CHEMBL4751115
     RDKit          3D

  0  0  0  0  0  0  0  0  0  0999 V3000
M  V30 BEGIN CTAB
M  V30 COUNTS 53 58 0 0 0
M  V30 BEGIN ATOM
M  V30 1 C 0.535276 -0.725183 5.073818 0
M  V30 2 N 0.016532 -1.914559 4.457950 0
M  V30 3 C 0.990767 -2.989276 4.439882 0
M  V30 4 C 2.207247 -2.577017 3.684067 0
M  V30 5 N 1.933303 -1.792506 2.494046 0
M  V30 6 C 2.865431 -0.903489 1.901731 0
M  V30 7 C 4.113137 -0.801922 2.475011 0
M  V30 8 N 5.037287 0.021509 1.957503 0
M  V30 9 C 4.843462 0.791377 0.879140 0
M  V30 10 C 3.611631 0.727201 0.267613 0
M  V30 11 N 3.018150 1.313252 -0.803384 0
M  V30 12 C 1.755499 0.879791 -0.966944 0
M  V30 13 C 0.840415 1.309106 -2.020401 0
M  V30 14 N 1.181357 2.208790 -2.960254 0
M  V30 15 N 0.140238 2.399723 -3.785034 0
M  V30 16 C -0.867399 1.604404 -3.350855 0
M  V30 17 C -2.170305 1.393080 -3.817114 0
M  V30 18 C -2.979514 0.498002 -3.146431 0
M  V30 19 C -2.571342 -0.200117 -2.039452 0
M  V30 20 C -3.458539 -1.139863 -1.356514 0
M  V30 21 C -4.796094 -0.790212 -1.411519 0
M  V30 22 C -5.723557 -1.626753 -0.787294 0
M  V30 23 C -5.229554 -2.763443 -0.148464 0
M  V30 24 N -3.912212 -3.077466 -0.112897 0
M  V30 25 C -2.999139 -2.277735 -0.712800 0
M  V30 26 C -1.284992 -0.001967 -1.565876 0
M  V30 27 C -0.458823 0.888059 -2.220712 0
M  V30 28 N 1.552435 -0.001146 0.027899 0
M  V30 29 C 2.653701 -0.115433 0.790304 0
M  V30 30 C 0.593261 -2.105677 2.084177 0
M  V30 31 C -0.421412 -1.618976 3.106113 0
M  V30 32 H -0.082051 0.128608 4.686943 0
M  V30 33 H 0.444817 -0.740795 6.178810 0
M  V30 34 H 1.569387 -0.523964 4.757458 0
M  V30 35 H 1.246452 -3.213770 5.488058 0
M  V30 36 H 0.514498 -3.873030 3.994017 0
M  V30 37 H 2.768482 -3.511233 3.407752 0
M  V30 38 H 2.897322 -2.029974 4.389117 0
M  V30 39 H 4.480763 -1.328557 3.343035 0
M  V30 40 H 5.541536 1.460095 0.429487 0
M  V30 41 H 3.554461 2.016680 -1.387790 0
M  V30 42 H 0.000737 3.010263 -4.631168 0
M  V30 43 H -2.519036 1.930072 -4.688014 0
M  V30 44 H -3.975666 0.373499 -3.549467 0
M  V30 45 H -5.166856 0.088680 -1.906743 0
M  V30 46 H -6.788610 -1.445080 -0.771681 0
M  V30 47 H -5.872395 -3.486912 0.372379 0
M  V30 48 H -1.941893 -2.463871 -0.724716 0
M  V30 49 H -0.901794 -0.509923 -0.712112 0
M  V30 50 H 0.457970 -3.218424 1.940925 0
M  V30 51 H 0.286286 -1.675813 1.113198 0
M  V30 52 H -1.390889 -2.090334 2.872235 0
M  V30 53 H -0.553706 -0.521756 3.032572 0
M  V30 END ATOM
M  V30 BEGIN BOND
M  V30 1 1 1 2
M  V30 2 1 2 3
M  V30 3 1 3 4
M  V30 4 1 4 5
M  V30 5 1 5 6
M  V30 6 2 6 7
M  V30 7 1 7 8
M  V30 8 2 8 9
M  V30 9 1 9 10
M  V30 10 1 10 11
M  V30 11 1 11 12
M  V30 12 1 12 13
M  V30 13 2 13 14
M  V30 14 1 14 15
M  V30 15 1 15 16
M  V30 16 2 16 17
M  V30 17 1 17 18
M  V30 18 2 18 19
M  V30 19 1 19 20
M  V30 20 2 20 21
M  V30 21 1 21 22
M  V30 22 2 22 23
M  V30 23 1 23 24
M  V30 24 2 24 25
M  V30 25 1 19 26
M  V30 26 2 26 27
M  V30 27 2 12 28
M  V30 28 1 28 29
M  V30 29 1 5 30
M  V30 30 1 30 31
M  V30 31 1 31 2
M  V30 32 1 29 6
M  V30 33 2 29 10
M  V30 34 1 27 13
M  V30 35 1 27 16
M  V30 36 1 25 20
M  V30 37 1 1 32
M  V30 38 1 1 33
M  V30 39 1 1 34
M  V30 40 1 3 35
M  V30 41 1 3 36
M  V30 42 1 4 37
M  V30 43 1 4 38
M  V30 44 1 7 39
M  V30 45 1 9 40
M  V30 46 1 11 41
M  V30 47 1 15 42
M  V30 48 1 17 43
M  V30 49 1 18 44
M  V30 50 1 21 45
M  V30 51 1 22 46
M  V30 52 1 23 47
M  V30 53 1 25 48
M  V30 54 1 26 49
M  V30 55 1 30 50
M  V30 56 1 30 51
M  V30 57 1 31 52
M  V30 58 1 31 53
M  V30 END BOND
M  V30 END CTAB
M  END
>  <Dataset>  (505) 
ChEMBL_Kinases

>  <Ligand_Instance>  (505) 
nan

>  <PDB_ID>  (505) 
nan

>  <Standardized_SMILES>  (505) 
CN1CCN(c2cncc3[nH]c(-c4n[nH]c5ccc(-c6cccnc6)cc45)nc23)CC1

>  <Name>  (505) 
nan

>  <Pocket>  (505) 
nan

>  <ATP_Site>  (505) 
nan

>  <Peripheral>  (505) 
nan

>  <Num_H_Atoms_ProtBoundConf>  (505) 
nan

>  <Num_Resolved_Atoms>  (505) 
nan

>  <Num_Not_Resolved_Atoms>  (505) 
nan

$$$$
CHEMBL4751049
     RDKit          3D

  0  0  0  0  0  0  0  0  0  0999 V3000
M  V30 BEGIN CTAB
M  V30 COUNTS 57 61 0 0 0
M  V30 BEGIN ATOM
M  V30 1 C 5.466475 -3.451895 3.406999 0
M  V30 2 N 6.383851 -3.658089 2.332698 0
M  V30 3 C 6.799272 -2.467328 1.664459 0
M  V30 4 C 6.150644 -2.298006 0.307667 0
M  V30 5 C 4.745242 -2.868358 0.307824 0
M  V30 6 O 3.936236 -2.061897 1.142355 0
M  V30 7 C 2.834381 -1.338688 0.711512 0
M  V30 8 C 2.253229 -0.638394 1.780106 0
M  V30 9 C 1.123905 0.140705 1.491876 0
M  V30 10 C 0.615719 0.207047 0.208095 0
M  V30 11 N -0.523122 0.991539 -0.064185 0
M  V30 12 C -0.839070 2.289140 -0.442004 0
M  V30 13 O 0.242242 2.917861 -0.564423 0
M  V30 14 C -2.100868 2.931288 -0.682800 0
M  V30 15 N -2.020744 4.262223 -0.980981 0
M  V30 16 N -3.237472 4.733032 -1.182187 0
M  V30 17 C -4.183846 3.815471 -1.045792 0
M  V30 18 C -5.529935 3.659809 -1.117049 0
M  V30 19 C -6.188597 2.460475 -0.896688 0
M  V30 20 F -7.523085 2.438131 -0.997718 0
M  V30 21 C -5.398145 1.376708 -0.588145 0
M  V30 22 C -6.122005 0.120987 -0.360930 0
M  V30 23 C -7.280397 0.039055 0.413898 0
M  V30 24 N -7.637384 -1.256696 0.381523 0
M  V30 25 N -6.784804 -1.949973 -0.349562 0
M  V30 26 C -6.891139 -3.372151 -0.579911 0
M  V30 27 C -5.835351 -1.127184 -0.823056 0
M  V30 28 C -4.011444 1.462295 -0.497753 0
M  V30 29 C -3.451504 2.691411 -0.732476 0
M  V30 30 C 1.240049 -0.516094 -0.821348 0
M  V30 31 N 2.322302 -1.258876 -0.528583 0
M  V30 32 C 4.723140 -4.306335 0.726408 0
M  V30 33 C 6.034341 -4.664628 1.383420 0
M  V30 34 H 5.878345 -3.760669 4.392771 0
M  V30 35 H 4.499905 -3.973323 3.316199 0
M  V30 36 H 5.320703 -2.337116 3.507420 0
M  V30 37 H 7.893658 -2.385213 1.636827 0
M  V30 38 H 6.416570 -1.608280 2.287111 0
M  V30 39 H 6.733767 -2.878732 -0.432452 0
M  V30 40 H 6.176781 -1.243786 0.021202 0
M  V30 41 H 4.339708 -2.795853 -0.717606 0
M  V30 42 H 2.593932 -0.643478 2.805449 0
M  V30 43 H 0.650225 0.700667 2.314527 0
M  V30 44 H -1.297757 0.320860 0.091315 0
M  V30 45 H -3.457037 5.739159 -1.428408 0
M  V30 46 H -6.100599 4.564303 -1.367754 0
M  V30 47 H -7.813120 0.834128 0.947885 0
M  V30 48 H -6.608054 -3.909508 0.354552 0
M  V30 49 H -7.970070 -3.597140 -0.783022 0
M  V30 50 H -6.249668 -3.707891 -1.427423 0
M  V30 51 H -5.017822 -1.421554 -1.444226 0
M  V30 52 H -3.469954 0.592601 -0.259100 0
M  V30 53 H 0.880522 -0.495934 -1.841893 0
M  V30 54 H 4.632184 -4.935910 -0.185384 0
M  V30 55 H 3.915519 -4.517786 1.456057 0
M  V30 56 H 6.848725 -4.679560 0.613428 0
M  V30 57 H 5.953434 -5.676323 1.830367 0
M  V30 END ATOM
M  V30 BEGIN BOND
M  V30 1 1 1 2
M  V30 2 1 2 3
M  V30 3 1 3 4
M  V30 4 1 4 5
M  V30 5 1 5 6
M  V30 6 1 6 7
M  V30 7 2 7 8
M  V30 8 1 8 9
M  V30 9 2 9 10
M  V30 10 1 10 11
M  V30 11 1 11 12
M  V30 12 2 12 13
M  V30 13 1 12 14
M  V30 14 2 14 15
M  V30 15 1 15 16
M  V30 16 1 16 17
M  V30 17 2 17 18
M  V30 18 1 18 19
M  V30 19 1 19 20
M  V30 20 2 19 21
M  V30 21 1 21 22
M  V30 22 1 22 23
M  V30 23 2 23 24
M  V30 24 1 24 25
M  V30 25 1 25 26
M  V30 26 1 25 27
M  V30 27 1 21 28
M  V30 28 2 28 29
M  V30 29 1 10 30
M  V30 30 2 30 31
M  V30 31 1 5 32
M  V30 32 1 32 33
M  V30 33 1 33 2
M  V30 34 1 31 7
M  V30 35 1 29 14
M  V30 36 1 29 17
M  V30 37 2 27 22
M  V30 38 1 1 34
M  V30 39 1 1 35
M  V30 40 1 1 36
M  V30 41 1 3 37
M  V30 42 1 3 38
M  V30 43 1 4 39
M  V30 44 1 4 40
M  V30 45 1 5 41
M  V30 46 1 8 42
M  V30 47 1 9 43
M  V30 48 1 11 44
M  V30 49 1 16 45
M  V30 50 1 18 46
M  V30 51 1 23 47
M  V30 52 1 26 48
M  V30 53 1 26 49
M  V30 54 1 26 50
M  V30 55 1 27 51
M  V30 56 1 28 52
M  V30 57 1 30 53
M  V30 58 1 32 54
M  V30 59 1 32 55
M  V30 60 1 33 56
M  V30 61 1 33 57
M  V30 END BOND
M  V30 END CTAB
M  END
>  <Dataset>  (506) 
ChEMBL_Kinases

>  <Ligand_Instance>  (506) 
nan

>  <PDB_ID>  (506) 
nan

>  <Standardized_SMILES>  (506) 
CN1CCC(Oc2ccc(NC(=O)c3n[nH]c4cc(F)c(-c5cnn(C)c5)cc34)cn2)CC1

>  <Name>  (506) 
nan

>  <Pocket>  (506) 
nan

>  <ATP_Site>  (506) 
nan

>  <Peripheral>  (506) 
nan

>  <Num_H_Atoms_ProtBoundConf>  (506) 
nan

>  <Num_Resolved_Atoms>  (506) 
nan

>  <Num_Not_Resolved_Atoms>  (506) 
nan

$$$$
CHEMBL4750787
     RDKit          3D

  0  0  0  0  0  0  0  0  0  0999 V3000
M  V30 BEGIN CTAB
M  V30 COUNTS 56 61 0 0 0
M  V30 BEGIN ATOM
M  V30 1 C 7.016042 1.562925 6.373621 0
M  V30 2 C 6.239501 1.881716 5.106386 0
M  V30 3 C 5.564093 0.635980 4.573531 0
M  V30 4 C 4.812240 0.989824 3.331845 0
M  V30 5 O 4.592145 2.007081 2.625773 0
M  V30 6 N 4.160964 -0.173841 2.807806 0
M  V30 7 C 3.359081 -0.191825 1.632829 0
M  V30 8 C 3.735986 -0.423546 0.329538 0
M  V30 9 N 2.818976 -0.396809 -0.653473 0
M  V30 10 C 1.512896 -0.146859 -0.415131 0
M  V30 11 C 1.068759 0.093109 0.864166 0
M  V30 12 C -0.331256 0.368054 1.169600 0
M  V30 13 C -0.576133 1.206769 2.253285 0
M  V30 14 N -1.807507 1.556592 2.661786 0
M  V30 15 C -2.917363 1.097137 2.020036 0
M  V30 16 N -4.251651 1.225012 2.134480 0
M  V30 17 N -4.850512 0.508297 1.176503 0
M  V30 18 C -3.923049 -0.102306 0.416684 0
M  V30 19 C -4.247402 -0.960821 -0.718579 0
M  V30 20 N -3.415354 -1.618547 -1.545979 0
M  V30 21 C -4.139846 -2.297585 -2.464725 0
M  V30 22 C -3.860523 -3.126122 -3.539184 0
M  V30 23 C -2.467910 -3.414465 -3.859830 0
M  V30 24 C -1.837375 -3.415176 -5.098065 0
M  V30 25 C -0.522567 -3.755955 -4.828092 0
M  V30 26 O -0.391467 -3.939257 -3.545782 0
M  V30 27 C -1.520448 -3.749482 -2.913229 0
M  V30 28 C -4.875504 -3.670306 -4.293919 0
M  V30 29 C -6.192314 -3.407219 -4.002967 0
M  V30 30 C -6.516166 -2.589991 -2.945169 0
M  V30 31 C -5.481215 -2.038581 -2.180142 0
M  V30 32 N -5.503017 -1.209991 -1.095923 0
M  V30 33 C -2.696539 0.258962 0.935938 0
M  V30 34 C -1.429668 -0.113366 0.499649 0
M  V30 35 C 2.005959 0.067837 1.885534 0
M  V30 36 H 6.277028 1.171088 7.131507 0
M  V30 37 H 7.435238 2.491703 6.806570 0
M  V30 38 H 7.798773 0.796749 6.202687 0
M  V30 39 H 6.994013 2.289794 4.383670 0
M  V30 40 H 5.545565 2.695467 5.334337 0
M  V30 41 H 6.367940 -0.065585 4.277304 0
M  V30 42 H 4.910831 0.251234 5.369193 0
M  V30 43 H 4.137261 -1.180336 3.149613 0
M  V30 44 H 4.793370 -0.616142 0.212034 0
M  V30 45 H 0.818414 -0.138706 -1.253106 0
M  V30 46 H 0.156317 1.677843 2.894538 0
M  V30 47 H -4.584097 1.833879 2.915403 0
M  V30 48 H -2.425870 -3.170135 -5.995719 0
M  V30 49 H 0.179534 -3.823954 -5.642226 0
M  V30 50 H -1.575431 -3.865610 -1.828590 0
M  V30 51 H -4.688903 -4.318305 -5.135603 0
M  V30 52 H -7.045745 -3.811136 -4.567324 0
M  V30 53 H -7.551532 -2.374399 -2.704960 0
M  V30 54 H -6.428429 -0.877009 -0.697549 0
M  V30 55 H -1.240876 -0.752692 -0.326355 0
M  V30 56 H 1.618248 0.263142 2.898618 0
M  V30 END ATOM
M  V30 BEGIN BOND
M  V30 1 1 1 2
M  V30 2 1 2 3
M  V30 3 1 3 4
M  V30 4 2 4 5
M  V30 5 1 4 6
M  V30 6 1 6 7
M  V30 7 2 7 8
M  V30 8 1 8 9
M  V30 9 2 9 10
M  V30 10 1 10 11
M  V30 11 1 11 12
M  V30 12 2 12 13
M  V30 13 1 13 14
M  V30 14 2 14 15
M  V30 15 1 15 16
M  V30 16 1 16 17
M  V30 17 2 17 18
M  V30 18 1 18 19
M  V30 19 2 19 20
M  V30 20 1 20 21
M  V30 21 2 21 22
M  V30 22 1 22 23
M  V30 23 1 23 24
M  V30 24 2 24 25
M  V30 25 1 25 26
M  V30 26 1 26 27
M  V30 27 1 22 28
M  V30 28 2 28 29
M  V30 29 1 29 30
M  V30 30 2 30 31
M  V30 31 1 31 32
M  V30 32 1 18 33
M  V30 33 2 33 34
M  V30 34 2 11 35
M  V30 35 1 35 7
M  V30 36 1 34 12
M  V30 37 1 33 15
M  V30 38 1 32 19
M  V30 39 1 31 21
M  V30 40 2 27 23
M  V30 41 1 1 36
M  V30 42 1 1 37
M  V30 43 1 1 38
M  V30 44 1 2 39
M  V30 45 1 2 40
M  V30 46 1 3 41
M  V30 47 1 3 42
M  V30 48 1 6 43
M  V30 49 1 8 44
M  V30 50 1 10 45
M  V30 51 1 13 46
M  V30 52 1 16 47
M  V30 53 1 24 48
M  V30 54 1 25 49
M  V30 55 1 27 50
M  V30 56 1 28 51
M  V30 57 1 29 52
M  V30 58 1 30 53
M  V30 59 1 32 54
M  V30 60 1 34 55
M  V30 61 1 35 56
M  V30 END BOND
M  V30 END CTAB
M  END
>  <Dataset>  (507) 
ChEMBL_Kinases

>  <Ligand_Instance>  (507) 
nan

>  <PDB_ID>  (507) 
nan

>  <Standardized_SMILES>  (507) 
CCCC(=O)Nc1cncc(-c2cnc3[nH]nc(-c4nc5c(-c6ccoc6)cccc5[nH]4)c3c2)c1

>  <Name>  (507) 
nan

>  <Pocket>  (507) 
nan

>  <ATP_Site>  (507) 
nan

>  <Peripheral>  (507) 
nan

>  <Num_H_Atoms_ProtBoundConf>  (507) 
nan

>  <Num_Resolved_Atoms>  (507) 
nan

>  <Num_Not_Resolved_Atoms>  (507) 
nan

$$$$
CHEMBL4750750
     RDKit          3D

  0  0  0  0  0  0  0  0  0  0999 V3000
M  V30 BEGIN CTAB
M  V30 COUNTS 56 61 0 0 0
M  V30 BEGIN ATOM
M  V30 1 C 5.577847 0.860070 4.945983 0
M  V30 2 C 5.726019 1.051026 3.446076 0
M  V30 3 N 5.172250 -0.099768 2.757207 0
M  V30 4 C 5.270557 -0.002883 1.330031 0
M  V30 5 C 4.552241 1.178089 0.812498 0
M  V30 6 C 5.238510 2.372683 0.695872 0
M  V30 7 N 4.575785 3.431409 0.226121 0
M  V30 8 C 3.262607 3.369869 -0.136238 0
M  V30 9 C 2.543346 2.215714 -0.039777 0
M  V30 10 C 1.144751 2.230713 -0.447307 0
M  V30 11 C 0.309576 1.137066 -0.400248 0
M  V30 12 C -0.991113 1.190397 -0.789720 0
M  V30 13 C -1.974943 0.233318 -0.821651 0
M  V30 14 C -1.989476 -1.165652 -0.457441 0
M  V30 15 C -3.131985 -1.945038 -0.582306 0
M  V30 16 C -2.915638 -3.239684 -0.178800 0
M  V30 17 C -3.673393 -4.388560 -0.096977 0
M  V30 18 C -5.074351 -4.355689 -0.502438 0
M  V30 19 C -6.086681 -3.467769 -0.207268 0
M  V30 20 C -7.331156 -3.700634 -0.753352 0
M  V30 21 C -7.609890 -4.762995 -1.568729 0
M  V30 22 N -6.612231 -5.631394 -1.854818 0
M  V30 23 C -5.367273 -5.440749 -1.337691 0
M  V30 24 C -3.113224 -5.577388 0.375617 0
M  V30 25 N -1.818300 -5.566419 0.746654 0
M  V30 26 C -1.061289 -4.458768 0.675643 0
M  V30 27 C -1.603862 -3.283789 0.211606 0
M  V30 28 N -1.117670 -2.047265 0.026503 0
M  V30 29 N -3.035524 0.932495 -1.312002 0
M  V30 30 N -2.714823 2.186201 -1.549640 0
M  V30 31 C -1.442142 2.411846 -1.241674 0
M  V30 32 C -0.641844 3.522705 -1.303305 0
M  V30 33 N 0.650336 3.383671 -0.893733 0
M  V30 34 C 3.223283 1.119176 0.444897 0
M  V30 35 H 5.088204 -0.121676 5.145481 0
M  V30 36 H 4.962345 1.677366 5.414139 0
M  V30 37 H 6.548606 0.818257 5.466342 0
M  V30 38 H 5.101430 1.941408 3.179450 0
M  V30 39 H 6.790533 1.189032 3.256417 0
M  V30 40 H 4.237301 -0.358210 3.092414 0
M  V30 41 H 4.732670 -0.899688 0.922704 0
M  V30 42 H 6.296934 -0.080517 0.961716 0
M  V30 43 H 6.273726 2.484475 0.964915 0
M  V30 44 H 2.835782 4.295358 -0.502810 0
M  V30 45 H 0.737695 0.224041 -0.036116 0
M  V30 46 H -4.117344 -1.650115 -0.946824 0
M  V30 47 H -5.756583 -2.685920 0.435241 0
M  V30 48 H -8.067552 -2.944920 -0.463374 0
M  V30 49 H -8.628506 -4.822697 -1.925856 0
M  V30 50 H -4.715754 -6.242412 -1.685522 0
M  V30 51 H -3.671119 -6.492375 0.453689 0
M  V30 52 H -0.023363 -4.469133 0.978152 0
M  V30 53 H -0.133625 -1.832789 0.254372 0
M  V30 54 H -3.429264 2.843114 -1.928925 0
M  V30 55 H -1.063643 4.442973 -1.667526 0
M  V30 56 H 2.684729 0.186560 0.535173 0
M  V30 END ATOM
M  V30 BEGIN BOND
M  V30 1 1 1 2
M  V30 2 1 2 3
M  V30 3 1 3 4
M  V30 4 1 4 5
M  V30 5 2 5 6
M  V30 6 1 6 7
M  V30 7 2 7 8
M  V30 8 1 8 9
M  V30 9 1 9 10
M  V30 10 2 10 11
M  V30 11 1 11 12
M  V30 12 1 12 13
M  V30 13 1 13 14
M  V30 14 2 14 15
M  V30 15 1 15 16
M  V30 16 2 16 17
M  V30 17 1 17 18
M  V30 18 2 18 19
M  V30 19 1 19 20
M  V30 20 2 20 21
M  V30 21 1 21 22
M  V30 22 2 22 23
M  V30 23 1 17 24
M  V30 24 2 24 25
M  V30 25 1 25 26
M  V30 26 2 26 27
M  V30 27 1 27 28
M  V30 28 2 13 29
M  V30 29 1 29 30
M  V30 30 1 30 31
M  V30 31 1 31 32
M  V30 32 2 32 33
M  V30 33 2 9 34
M  V30 34 1 34 5
M  V30 35 1 33 10
M  V30 36 2 31 12
M  V30 37 1 28 14
M  V30 38 1 27 16
M  V30 39 1 23 18
M  V30 40 1 1 35
M  V30 41 1 1 36
M  V30 42 1 1 37
M  V30 43 1 2 38
M  V30 44 1 2 39
M  V30 45 1 3 40
M  V30 46 1 4 41
M  V30 47 1 4 42
M  V30 48 1 6 43
M  V30 49 1 8 44
M  V30 50 1 11 45
M  V30 51 1 15 46
M  V30 52 1 19 47
M  V30 53 1 20 48
M  V30 54 1 21 49
M  V30 55 1 23 50
M  V30 56 1 24 51
M  V30 57 1 26 52
M  V30 58 1 28 53
M  V30 59 1 30 54
M  V30 60 1 32 55
M  V30 61 1 34 56
M  V30 END BOND
M  V30 END CTAB
M  END
>  <Dataset>  (508) 
ChEMBL_Kinases

>  <Ligand_Instance>  (508) 
nan

>  <PDB_ID>  (508) 
nan

>  <Standardized_SMILES>  (508) 
CCNCc1cncc(-c2cc3c(-c4cc5c(-c6cccnc6)cncc5[nH]4)n[nH]c3cn2)c1

>  <Name>  (508) 
nan

>  <Pocket>  (508) 
nan

>  <ATP_Site>  (508) 
nan

>  <Peripheral>  (508) 
nan

>  <Num_H_Atoms_ProtBoundConf>  (508) 
nan

>  <Num_Resolved_Atoms>  (508) 
nan

>  <Num_Not_Resolved_Atoms>  (508) 
nan

$$$$
CHEMBL4750641
     RDKit          3D

  0  0  0  0  0  0  0  0  0  0999 V3000
M  V30 BEGIN CTAB
M  V30 COUNTS 48 53 0 0 0
M  V30 BEGIN ATOM
M  V30 1 C -0.439669 -1.210459 -4.602240 0
M  V30 2 O 0.890393 -1.261405 -4.997382 0
M  V30 3 C 1.974465 -0.812695 -4.262919 0
M  V30 4 C 3.229377 -0.946857 -4.821445 0
M  V30 5 N 4.368277 -0.551688 -4.214298 0
M  V30 6 C 4.295928 0.011070 -2.985890 0
M  V30 7 C 3.078740 0.180320 -2.359722 0
M  V30 8 C 2.926461 0.787503 -1.017535 0
M  V30 9 C 3.794103 1.773302 -0.573808 0
M  V30 10 C 3.607057 2.305487 0.686749 0
M  V30 11 C 2.568009 1.852976 1.481239 0
M  V30 12 N 2.140928 2.159781 2.705756 0
M  V30 13 N 1.093101 1.437679 3.023123 0
M  V30 14 C 0.747167 0.587080 2.012591 0
M  V30 15 C -0.361528 -0.342211 2.047149 0
M  V30 16 C -1.193993 -0.447445 3.151640 0
M  V30 17 C -2.175680 -1.390089 2.963937 0
M  V30 18 C -3.228445 -1.882775 3.704981 0
M  V30 19 C -3.452235 -1.341132 5.039291 0
M  V30 20 C -3.710094 -2.295677 6.030529 0
M  V30 21 C -3.893298 -1.577025 7.212805 0
M  V30 22 O -3.756307 -0.301726 6.948862 0
M  V30 23 C -3.495494 -0.120221 5.678052 0
M  V30 24 N -4.005857 -2.839602 3.172909 0
M  V30 25 C -3.825289 -3.352392 1.958500 0
M  V30 26 C -2.782614 -2.877251 1.201110 0
M  V30 27 C -1.955823 -1.895238 1.702227 0
M  V30 28 N -0.887064 -1.242654 1.226248 0
M  V30 29 C 1.694412 0.872839 1.056977 0
M  V30 30 C 1.907947 0.374193 -0.183759 0
M  V30 31 C 1.930880 -0.235236 -3.009006 0
M  V30 32 H -1.058620 -1.310561 -5.535586 0
M  V30 33 H -0.757358 -2.075882 -3.971170 0
M  V30 34 H -0.747499 -0.296361 -4.097737 0
M  V30 35 H 3.331131 -1.398580 -5.816701 0
M  V30 36 H 5.194090 0.339872 -2.469696 0
M  V30 37 H 4.609275 2.105578 -1.237391 0
M  V30 38 H 4.265719 3.075764 1.062794 0
M  V30 39 H 2.529646 2.859035 3.374324 0
M  V30 40 H -1.162522 0.098319 4.096166 0
M  V30 41 H -3.784991 -3.374309 6.043102 0
M  V30 42 H -4.115761 -1.990321 8.208277 0
M  V30 43 H -3.312314 0.736934 5.035309 0
M  V30 44 H -4.423123 -4.119844 1.492216 0
M  V30 45 H -2.586875 -3.256385 0.206669 0
M  V30 46 H -0.528192 -1.455364 0.280812 0
M  V30 47 H 1.266508 -0.390982 -0.577040 0
M  V30 48 H 0.941056 -0.132578 -2.576295 0
M  V30 END ATOM
M  V30 BEGIN BOND
M  V30 1 1 1 2
M  V30 2 1 2 3
M  V30 3 2 3 4
M  V30 4 1 4 5
M  V30 5 2 5 6
M  V30 6 1 6 7
M  V30 7 1 7 8
M  V30 8 2 8 9
M  V30 9 1 9 10
M  V30 10 2 10 11
M  V30 11 1 11 12
M  V30 12 1 12 13
M  V30 13 2 13 14
M  V30 14 1 14 15
M  V30 15 2 15 16
M  V30 16 1 16 17
M  V30 17 2 17 18
M  V30 18 1 18 19
M  V30 19 1 19 20
M  V30 20 2 20 21
M  V30 21 1 21 22
M  V30 22 1 22 23
M  V30 23 1 18 24
M  V30 24 2 24 25
M  V30 25 1 25 26
M  V30 26 2 26 27
M  V30 27 1 27 28
M  V30 28 1 14 29
M  V30 29 2 29 30
M  V30 30 2 7 31
M  V30 31 1 31 3
M  V30 32 1 30 8
M  V30 33 1 29 11
M  V30 34 1 28 15
M  V30 35 1 27 17
M  V30 36 2 23 19
M  V30 37 1 1 32
M  V30 38 1 1 33
M  V30 39 1 1 34
M  V30 40 1 4 35
M  V30 41 1 6 36
M  V30 42 1 9 37
M  V30 43 1 10 38
M  V30 44 1 12 39
M  V30 45 1 16 40
M  V30 46 1 20 41
M  V30 47 1 21 42
M  V30 48 1 23 43
M  V30 49 1 25 44
M  V30 50 1 26 45
M  V30 51 1 28 46
M  V30 52 1 30 47
M  V30 53 1 31 48
M  V30 END BOND
M  V30 END CTAB
M  END
>  <Dataset>  (509) 
ChEMBL_Kinases

>  <Ligand_Instance>  (509) 
nan

>  <PDB_ID>  (509) 
nan

>  <Standardized_SMILES>  (509) 
COc1cncc(-c2ccc3[nH]nc(-c4cc5c(-c6ccoc6)nccc5[nH]4)c3c2)c1

>  <Name>  (509) 
nan

>  <Pocket>  (509) 
nan

>  <ATP_Site>  (509) 
nan

>  <Peripheral>  (509) 
nan

>  <Num_H_Atoms_ProtBoundConf>  (509) 
nan

>  <Num_Resolved_Atoms>  (509) 
nan

>  <Num_Not_Resolved_Atoms>  (509) 
nan

$$$$
CHEMBL4750631
     RDKit          3D

  0  0  0  0  0  0  0  0  0  0999 V3000
M  V30 BEGIN CTAB
M  V30 COUNTS 61 66 0 0 0
M  V30 BEGIN ATOM
M  V30 1 C 6.807779 -3.512171 4.712185 0
M  V30 2 N 6.286502 -2.170255 4.618112 0
M  V30 3 C 7.118157 -1.300138 3.803465 0
M  V30 4 C 6.889067 -1.544394 2.326594 0
M  V30 5 N 5.561440 -1.073555 2.004879 0
M  V30 6 C 5.213410 -0.624617 0.703526 0
M  V30 7 C 3.954654 -0.194766 0.444554 0
M  V30 8 C 3.619801 0.240516 -0.819085 0
M  V30 9 C 2.338144 0.734137 -1.294425 0
M  V30 10 O 2.064384 1.128544 -2.457639 0
M  V30 11 N 1.286296 0.773528 -0.340590 0
M  V30 12 C -0.089811 1.161562 -0.328257 0
M  V30 13 C -1.096390 0.260882 -0.622218 0
M  V30 14 C -2.442087 0.536793 -0.635584 0
M  V30 15 C -3.392871 -0.416630 -0.939536 0
M  V30 16 C -4.716129 -0.005624 -0.916723 0
M  V30 17 C -5.740479 -1.009354 -1.238134 0
M  V30 18 C -5.591424 -2.074192 -2.114481 0
M  V30 19 N -6.725014 -2.780471 -2.162402 0
M  V30 20 N -7.570798 -2.178540 -1.337458 0
M  V30 21 C -8.935690 -2.622061 -1.085280 0
M  V30 22 C -10.063969 -1.743769 -1.438276 0
M  V30 23 C -9.805218 -2.920918 -2.316681 0
M  V30 24 C -7.032329 -1.088015 -0.739040 0
M  V30 25 C -5.118940 1.294025 -0.608469 0
M  V30 26 C -4.105598 2.187763 -0.315946 0
M  V30 27 C -2.769772 1.859489 -0.316750 0
M  V30 28 C -1.779453 2.779946 -0.018726 0
M  V30 29 N -0.462308 2.432660 -0.025499 0
M  V30 30 C 4.602560 0.227195 -1.816463 0
M  V30 31 C 5.869310 -0.219710 -1.502403 0
M  V30 32 N 6.182885 -0.645806 -0.250511 0
M  V30 33 C 4.637050 -1.102338 3.116888 0
M  V30 34 C 4.944595 -2.247630 4.082905 0
M  V30 35 H 5.974456 -4.252801 4.661814 0
M  V30 36 H 7.291253 -3.622545 5.696998 0
M  V30 37 H 7.487902 -3.691153 3.849108 0
M  V30 38 H 8.169382 -1.478504 4.072525 0
M  V30 39 H 6.862476 -0.271534 4.058928 0
M  V30 40 H 7.617316 -0.875028 1.800919 0
M  V30 41 H 7.091735 -2.581902 2.037318 0
M  V30 42 H 3.150261 -0.157040 1.161454 0
M  V30 43 H 1.294859 0.497569 0.662244 0
M  V30 44 H -0.814435 -0.759160 -0.866447 0
M  V30 45 H -3.107360 -1.426166 -1.180930 0
M  V30 46 H -4.662411 -2.243010 -2.645294 0
M  V30 47 H -9.054156 -3.406811 -0.282643 0
M  V30 48 H -10.994508 -1.854672 -0.820161 0
M  V30 49 H -9.803396 -0.727221 -1.767695 0
M  V30 50 H -10.462480 -3.790846 -2.299061 0
M  V30 51 H -9.347184 -2.698937 -3.314398 0
M  V30 52 H -7.496978 -0.433403 -0.038815 0
M  V30 53 H -6.160123 1.508553 -0.618367 0
M  V30 54 H -4.406831 3.210539 -0.072238 0
M  V30 55 H -2.063388 3.783247 0.220891 0
M  V30 56 H 4.430487 0.552037 -2.842109 0
M  V30 57 H 6.694369 -0.268543 -2.197532 0
M  V30 58 H 3.591567 -1.251197 2.815691 0
M  V30 59 H 4.805038 -0.167020 3.708778 0
M  V30 60 H 4.185797 -2.176110 4.893703 0
M  V30 61 H 4.760780 -3.221045 3.568217 0
M  V30 END ATOM
M  V30 BEGIN BOND
M  V30 1 1 1 2
M  V30 2 1 2 3
M  V30 3 1 3 4
M  V30 4 1 4 5
M  V30 5 1 5 6
M  V30 6 2 6 7
M  V30 7 1 7 8
M  V30 8 1 8 9
M  V30 9 2 9 10
M  V30 10 1 9 11
M  V30 11 1 11 12
M  V30 12 2 12 13
M  V30 13 1 13 14
M  V30 14 2 14 15
M  V30 15 1 15 16
M  V30 16 1 16 17
M  V30 17 1 17 18
M  V30 18 2 18 19
M  V30 19 1 19 20
M  V30 20 1 20 21
M  V30 21 1 21 22
M  V30 22 1 22 23
M  V30 23 1 20 24
M  V30 24 2 16 25
M  V30 25 1 25 26
M  V30 26 2 26 27
M  V30 27 1 27 28
M  V30 28 2 28 29
M  V30 29 2 8 30
M  V30 30 1 30 31
M  V30 31 2 31 32
M  V30 32 1 5 33
M  V30 33 1 33 34
M  V30 34 1 34 2
M  V30 35 1 32 6
M  V30 36 1 29 12
M  V30 37 1 27 14
M  V30 38 2 24 17
M  V30 39 1 23 21
M  V30 40 1 1 35
M  V30 41 1 1 36
M  V30 42 1 1 37
M  V30 43 1 3 38
M  V30 44 1 3 39
M  V30 45 1 4 40
M  V30 46 1 4 41
M  V30 47 1 7 42
M  V30 48 1 11 43
M  V30 49 1 13 44
M  V30 50 1 15 45
M  V30 51 1 18 46
M  V30 52 1 21 47
M  V30 53 1 22 48
M  V30 54 1 22 49
M  V30 55 1 23 50
M  V30 56 1 23 51
M  V30 57 1 24 52
M  V30 58 1 25 53
M  V30 59 1 26 54
M  V30 60 1 28 55
M  V30 61 1 30 56
M  V30 62 1 31 57
M  V30 63 1 33 58
M  V30 64 1 33 59
M  V30 65 1 34 60
M  V30 66 1 34 61
M  V30 END BOND
M  V30 END CTAB
M  END
>  <Dataset>  (510) 
ChEMBL_Kinases

>  <Ligand_Instance>  (510) 
nan

>  <PDB_ID>  (510) 
nan

>  <Standardized_SMILES>  (510) 
CN1CCN(c2cc(C(=O)Nc3cc4cc(-c5cnn(C6CC6)c5)ccc4cn3)ccn2)CC1

>  <Name>  (510) 
nan

>  <Pocket>  (510) 
nan

>  <ATP_Site>  (510) 
nan

>  <Peripheral>  (510) 
nan

>  <Num_H_Atoms_ProtBoundConf>  (510) 
nan

>  <Num_Resolved_Atoms>  (510) 
nan

>  <Num_Not_Resolved_Atoms>  (510) 
nan

$$$$
CHEMBL4750609
     RDKit          3D

  0  0  0  0  0  0  0  0  0  0999 V3000
M  V30 BEGIN CTAB
M  V30 COUNTS 48 53 0 0 0
M  V30 BEGIN ATOM
M  V30 1 N 6.256920 -5.860365 0.878866 0
M  V30 2 C 5.116129 -5.191871 1.419225 0
M  V30 3 C 4.314574 -5.821092 2.351741 0
M  V30 4 N 3.249331 -5.166486 2.841204 0
M  V30 5 C 2.948079 -3.915750 2.443692 0
M  V30 6 C 3.741788 -3.273204 1.510513 0
M  V30 7 C 3.458256 -1.915525 1.045936 0
M  V30 8 C 4.520538 -1.114778 0.679104 0
M  V30 9 C 4.292985 0.172107 0.235710 0
M  V30 10 C 2.995499 0.630153 0.169695 0
M  V30 11 N 2.443081 1.795704 -0.205959 0
M  V30 12 N 1.134278 1.736206 -0.085952 0
M  V30 13 C 0.714168 0.541594 0.373441 0
M  V30 14 C -0.658875 0.145291 0.618684 0
M  V30 15 C -1.717148 1.004398 0.389741 0
M  V30 16 C -2.928794 0.425934 0.687846 0
M  V30 17 C -4.245706 0.835669 0.639478 0
M  V30 18 C -4.585553 2.177501 0.183433 0
M  V30 19 C -5.889500 2.619412 0.122782 0
M  V30 20 C -6.291642 3.872712 -0.296846 0
M  V30 21 C -5.330197 4.777107 -0.693687 0
M  V30 22 C -4.025965 4.347387 -0.637447 0
M  V30 23 N -3.712871 3.112943 -0.217890 0
M  V30 24 C -5.198023 -0.076250 1.037870 0
M  V30 25 C -4.882979 -1.346111 1.469787 0
M  V30 26 N -3.583604 -1.687488 1.494949 0
M  V30 27 C -2.609797 -0.840115 1.118043 0
M  V30 28 N -1.276148 -0.949357 1.057447 0
M  V30 29 C 1.903143 -0.129200 0.523939 0
M  V30 30 C 2.186150 -1.401706 0.958047 0
M  V30 31 C 4.861072 -3.921147 0.976120 0
M  V30 32 H 7.155285 -6.296779 1.192352 0
M  V30 33 H 6.300063 -6.008774 -0.151871 0
M  V30 34 H 4.604055 -6.833610 2.638567 0
M  V30 35 H 2.076964 -3.398438 2.853014 0
M  V30 36 H 5.535409 -1.449096 0.722158 0
M  V30 37 H 5.056684 0.892301 -0.079698 0
M  V30 38 H 2.915518 2.656882 -0.549941 0
M  V30 39 H -1.658539 2.026880 0.018633 0
M  V30 40 H -6.726840 2.000597 0.407805 0
M  V30 41 H -7.310700 4.200215 -0.337833 0
M  V30 42 H -5.490065 5.779703 -1.041478 0
M  V30 43 H -3.134669 4.932063 -0.914222 0
M  V30 44 H -6.249467 0.156167 1.033230 0
M  V30 45 H -5.647786 -2.043240 1.777161 0
M  V30 46 H -0.810748 -1.824911 1.336711 0
M  V30 47 H 1.413499 -2.076518 1.257850 0
M  V30 48 H 5.516170 -3.464326 0.242779 0
M  V30 END ATOM
M  V30 BEGIN BOND
M  V30 1 1 1 2
M  V30 2 2 2 3
M  V30 3 1 3 4
M  V30 4 2 4 5
M  V30 5 1 5 6
M  V30 6 1 6 7
M  V30 7 2 7 8
M  V30 8 1 8 9
M  V30 9 2 9 10
M  V30 10 1 10 11
M  V30 11 1 11 12
M  V30 12 2 12 13
M  V30 13 1 13 14
M  V30 14 2 14 15
M  V30 15 1 15 16
M  V30 16 2 16 17
M  V30 17 1 17 18
M  V30 18 2 18 19
M  V30 19 1 19 20
M  V30 20 2 20 21
M  V30 21 1 21 22
M  V30 22 2 22 23
M  V30 23 1 17 24
M  V30 24 2 24 25
M  V30 25 1 25 26
M  V30 26 2 26 27
M  V30 27 1 27 28
M  V30 28 1 13 29
M  V30 29 2 29 30
M  V30 30 2 6 31
M  V30 31 1 31 2
M  V30 32 1 30 7
M  V30 33 1 29 10
M  V30 34 1 28 14
M  V30 35 1 27 16
M  V30 36 1 23 18
M  V30 37 1 1 32
M  V30 38 1 1 33
M  V30 39 1 3 34
M  V30 40 1 5 35
M  V30 41 1 8 36
M  V30 42 1 9 37
M  V30 43 1 11 38
M  V30 44 1 15 39
M  V30 45 1 19 40
M  V30 46 1 20 41
M  V30 47 1 21 42
M  V30 48 1 22 43
M  V30 49 1 24 44
M  V30 50 1 25 45
M  V30 51 1 28 46
M  V30 52 1 30 47
M  V30 53 1 31 48
M  V30 END BOND
M  V30 END CTAB
M  END
>  <Dataset>  (511) 
ChEMBL_Kinases

>  <Ligand_Instance>  (511) 
nan

>  <PDB_ID>  (511) 
nan

>  <Standardized_SMILES>  (511) 
Nc1cncc(-c2ccc3[nH]nc(-c4cc5c(-c6ccccn6)ccnc5[nH]4)c3c2)c1

>  <Name>  (511) 
nan

>  <Pocket>  (511) 
nan

>  <ATP_Site>  (511) 
nan

>  <Peripheral>  (511) 
nan

>  <Num_H_Atoms_ProtBoundConf>  (511) 
nan

>  <Num_Resolved_Atoms>  (511) 
nan

>  <Num_Not_Resolved_Atoms>  (511) 
nan

$$$$
CHEMBL4750400
     RDKit          3D

  0  0  0  0  0  0  0  0  0  0999 V3000
M  V30 BEGIN CTAB
M  V30 COUNTS 72 77 0 0 0
M  V30 BEGIN ATOM
M  V30 1 C 0.534287 -5.676186 2.566556 0
M  V30 2 C 1.033079 -5.405712 1.179478 0
M  V30 3 N 1.794526 -4.162402 1.073727 0
M  V30 4 C 2.236808 -3.938532 -0.286932 0
M  V30 5 C 3.051223 -2.720747 -0.357943 0
M  V30 6 C 4.407882 -2.988141 -0.136234 0
M  V30 7 N 5.271950 -1.929817 -0.186824 0
M  V30 8 C 4.786837 -0.693769 -0.444132 0
M  V30 9 C 3.468175 -0.376567 -0.668606 0
M  V30 10 C 3.055368 0.981499 -0.954128 0
M  V30 11 C 4.000386 1.980509 -1.033615 0
M  V30 12 C 3.697441 3.295535 -1.322405 0
M  V30 13 C 2.358257 3.639942 -1.547797 0
M  V30 14 N 1.782702 4.796135 -1.845636 0
M  V30 15 N 0.515836 4.527290 -1.948223 0
M  V30 16 C 0.251382 3.229128 -1.725119 0
M  V30 17 C -1.082838 2.657500 -1.782200 0
M  V30 18 N -1.526923 1.407950 -1.566563 0
M  V30 19 C -2.863947 1.377071 -1.725132 0
M  V30 20 C -3.889316 0.460339 -1.654425 0
M  V30 21 C -3.545757 -0.909496 -1.295359 0
M  V30 22 C -4.118317 -1.905873 -2.061526 0
M  V30 23 C -3.801341 -3.196940 -1.699415 0
M  V30 24 F -4.322197 -4.214678 -2.400697 0
M  V30 25 C -2.976337 -3.522225 -0.654605 0
M  V30 26 C -2.403101 -2.530317 0.112041 0
M  V30 27 N -1.532693 -2.764830 1.209390 0
M  V30 28 C -0.851860 -1.935276 2.145501 0
M  V30 29 C -1.706958 -1.198526 3.121379 0
M  V30 30 N -0.813428 -0.426219 3.965620 0
M  V30 31 C -0.165314 0.635818 3.256166 0
M  V30 32 C -1.418526 -0.028835 5.208285 0
M  V30 33 C -2.708469 -1.223341 -0.235443 0
M  V30 34 N -5.170960 0.715788 -1.871345 0
M  V30 35 C -5.597536 1.949524 -2.192872 0
M  V30 36 C -4.640761 2.937472 -2.286535 0
M  V30 37 C -3.290122 2.653527 -2.054957 0
M  V30 38 N -2.181381 3.413662 -2.082068 0
M  V30 39 C 1.447910 2.599856 -1.455372 0
M  V30 40 N 1.772262 1.322749 -1.171439 0
M  V30 41 C 2.598456 -1.444398 -0.616904 0
M  V30 42 H 0.877957 -6.670906 2.938880 0
M  V30 43 H -0.591059 -5.711289 2.625661 0
M  V30 44 H 0.822484 -4.879155 3.286510 0
M  V30 45 H 0.197098 -5.371387 0.464740 0
M  V30 46 H 1.673723 -6.258867 0.833589 0
M  V30 47 H 2.554649 -4.149375 1.773656 0
M  V30 48 H 1.308488 -3.876235 -0.901783 0
M  V30 49 H 2.752860 -4.845754 -0.632754 0
M  V30 50 H 4.823176 -3.976382 0.073115 0
M  V30 51 H 5.592334 0.021420 -0.448134 0
M  V30 52 H 5.058670 1.862078 -0.884938 0
M  V30 53 H 4.426753 4.104028 -1.391116 0
M  V30 54 H 2.192759 5.740095 -1.980784 0
M  V30 55 H -4.772560 -1.707168 -2.892074 0
M  V30 56 H -2.761468 -4.546777 -0.414104 0
M  V30 57 H -1.370482 -3.808547 1.349195 0
M  V30 58 H -0.340416 -1.124358 1.533014 0
M  V30 59 H -0.012167 -2.476915 2.604079 0
M  V30 60 H -2.391667 -0.527631 2.584847 0
M  V30 61 H -2.313152 -1.896501 3.761102 0
M  V30 62 H -0.024015 1.553490 3.855518 0
M  V30 63 H -0.756314 0.889266 2.352522 0
M  V30 64 H 0.825336 0.284326 2.923877 0
M  V30 65 H -1.302089 -0.886438 5.914461 0
M  V30 66 H -0.921749 0.853334 5.622474 0
M  V30 67 H -2.501616 0.193351 5.101541 0
M  V30 68 H -2.342200 -0.351112 0.250103 0
M  V30 69 H -6.633808 2.186590 -2.375048 0
M  V30 70 H -4.942827 3.930387 -2.539640 0
M  V30 71 H -2.257469 4.448509 -2.315411 0
M  V30 72 H 1.554359 -1.308680 -0.776160 0
M  V30 END ATOM
M  V30 BEGIN BOND
M  V30 1 1 1 2
M  V30 2 1 2 3
M  V30 3 1 3 4
M  V30 4 1 4 5
M  V30 5 2 5 6
M  V30 6 1 6 7
M  V30 7 2 7 8
M  V30 8 1 8 9
M  V30 9 1 9 10
M  V30 10 2 10 11
M  V30 11 1 11 12
M  V30 12 2 12 13
M  V30 13 1 13 14
M  V30 14 1 14 15
M  V30 15 2 15 16
M  V30 16 1 16 17
M  V30 17 2 17 18
M  V30 18 1 18 19
M  V30 19 2 19 20
M  V30 20 1 20 21
M  V30 21 2 21 22
M  V30 22 1 22 23
M  V30 23 1 23 24
M  V30 24 2 23 25
M  V30 25 1 25 26
M  V30 26 1 26 27
M  V30 27 1 27 28
M  V30 28 1 28 29
M  V30 29 1 29 30
M  V30 30 1 30 31
M  V30 31 1 30 32
M  V30 32 2 26 33
M  V30 33 1 20 34
M  V30 34 2 34 35
M  V30 35 1 35 36
M  V30 36 2 36 37
M  V30 37 1 37 38
M  V30 38 1 16 39
M  V30 39 2 39 40
M  V30 40 2 9 41
M  V30 41 1 41 5
M  V30 42 1 40 10
M  V30 43 1 39 13
M  V30 44 1 38 17
M  V30 45 1 37 19
M  V30 46 1 33 21
M  V30 47 1 1 42
M  V30 48 1 1 43
M  V30 49 1 1 44
M  V30 50 1 2 45
M  V30 51 1 2 46
M  V30 52 1 3 47
M  V30 53 1 4 48
M  V30 54 1 4 49
M  V30 55 1 6 50
M  V30 56 1 8 51
M  V30 57 1 11 52
M  V30 58 1 12 53
M  V30 59 1 14 54
M  V30 60 1 22 55
M  V30 61 1 25 56
M  V30 62 1 27 57
M  V30 63 1 28 58
M  V30 64 1 28 59
M  V30 65 1 29 60
M  V30 66 1 29 61
M  V30 67 1 31 62
M  V30 68 1 31 63
M  V30 69 1 31 64
M  V30 70 1 32 65
M  V30 71 1 32 66
M  V30 72 1 32 67
M  V30 73 1 33 68
M  V30 74 1 35 69
M  V30 75 1 36 70
M  V30 76 1 38 71
M  V30 77 1 41 72
M  V30 END BOND
M  V30 END CTAB
M  END
>  <Dataset>  (512) 
ChEMBL_Kinases

>  <Ligand_Instance>  (512) 
nan

>  <PDB_ID>  (512) 
nan

>  <Standardized_SMILES>  (512) 
CCNCc1cncc(-c2ccc3[nH]nc(-c4nc5c(-c6cc(F)cc(NCCN(C)C)c6)nccc5[nH]4)c3n2)c1

>  <Name>  (512) 
nan

>  <Pocket>  (512) 
nan

>  <ATP_Site>  (512) 
nan

>  <Peripheral>  (512) 
nan

>  <Num_H_Atoms_ProtBoundConf>  (512) 
nan

>  <Num_Resolved_Atoms>  (512) 
nan

>  <Num_Not_Resolved_Atoms>  (512) 
nan

$$$$
CHEMBL4750399
     RDKit          3D

  0  0  0  0  0  0  0  0  0  0999 V3000
M  V30 BEGIN CTAB
M  V30 COUNTS 56 61 0 0 0
M  V30 BEGIN ATOM
M  V30 1 C 2.872718 -3.707324 3.633298 0
M  V30 2 C 4.001768 -3.078446 2.846272 0
M  V30 3 C 3.494678 -1.864140 2.163990 0
M  V30 4 O 2.281767 -1.578967 2.312866 0
M  V30 5 N 4.287542 -1.015327 1.364109 0
M  V30 6 C 3.940620 0.163806 0.662518 0
M  V30 7 C 4.936957 0.832839 -0.014694 0
M  V30 8 N 4.705789 1.963413 -0.698813 0
M  V30 9 C 3.474747 2.515500 -0.764245 0
M  V30 10 C 2.405601 1.897010 -0.103098 0
M  V30 11 C 1.095465 2.482111 -0.142746 0
M  V30 12 C 1.131848 3.876400 -0.186939 0
M  V30 13 C -0.051499 4.621109 -0.226757 0
M  V30 14 C -1.220344 3.881671 -0.219012 0
M  V30 15 N -2.488630 4.308896 -0.244178 0
M  V30 16 N -3.282621 3.253225 -0.219104 0
M  V30 17 C -2.584602 2.110692 -0.177735 0
M  V30 18 C -3.154630 0.771022 -0.146173 0
M  V30 19 N -2.590546 -0.427037 -0.133659 0
M  V30 20 C -3.571353 -1.352612 -0.129267 0
M  V30 21 C -3.606162 -2.750967 -0.120679 0
M  V30 22 C -2.358490 -3.504584 -0.127298 0
M  V30 23 C -2.414285 -4.555494 -1.053191 0
M  V30 24 C -1.359052 -5.420397 -1.257023 0
M  V30 25 C -0.199630 -5.262806 -0.534637 0
M  V30 26 C -0.160356 -4.234522 0.363565 0
M  V30 27 F 0.956173 -4.035880 1.099117 0
M  V30 28 C -1.192481 -3.355973 0.590732 0
M  V30 29 C -4.827488 -3.430399 -0.120124 0
M  V30 30 N -5.975985 -2.740382 -0.128543 0
M  V30 31 C -6.028147 -1.398305 -0.137905 0
M  V30 32 C -4.801834 -0.721858 -0.138458 0
M  V30 33 N -4.499799 0.589248 -0.148995 0
M  V30 34 C -1.279530 2.507494 -0.176533 0
M  V30 35 C -0.098972 1.795539 -0.137572 0
M  V30 36 C 2.698689 0.739753 0.583396 0
M  V30 37 H 2.690508 -4.765907 3.346878 0
M  V30 38 H 1.904081 -3.167364 3.467141 0
M  V30 39 H 3.057231 -3.624861 4.735150 0
M  V30 40 H 4.444686 -3.807234 2.144249 0
M  V30 41 H 4.789456 -2.756602 3.548855 0
M  V30 42 H 5.277384 -1.360189 1.317477 0
M  V30 43 H 5.958578 0.457877 -0.014680 0
M  V30 44 H 3.368815 3.410412 -1.324032 0
M  V30 45 H 2.032626 4.484095 -0.194415 0
M  V30 46 H -0.038998 5.702795 -0.261612 0
M  V30 47 H -2.824487 5.275012 -0.276881 0
M  V30 48 H -3.260774 -4.795630 -1.687572 0
M  V30 49 H -1.372239 -6.239311 -1.963676 0
M  V30 50 H 0.636338 -5.921750 -0.673532 0
M  V30 51 H -1.248945 -2.525688 1.271537 0
M  V30 52 H -4.868136 -4.517967 -0.113077 0
M  V30 53 H -6.962399 -0.851825 -0.144910 0
M  V30 54 H -5.279882 1.310348 -0.157544 0
M  V30 55 H -0.099452 0.727185 -0.103667 0
M  V30 56 H 1.881184 0.286431 1.074671 0
M  V30 END ATOM
M  V30 BEGIN BOND
M  V30 1 1 1 2
M  V30 2 1 2 3
M  V30 3 2 3 4
M  V30 4 1 3 5
M  V30 5 1 5 6
M  V30 6 2 6 7
M  V30 7 1 7 8
M  V30 8 2 8 9
M  V30 9 1 9 10
M  V30 10 1 10 11
M  V30 11 2 11 12
M  V30 12 1 12 13
M  V30 13 2 13 14
M  V30 14 1 14 15
M  V30 15 1 15 16
M  V30 16 2 16 17
M  V30 17 1 17 18
M  V30 18 2 18 19
M  V30 19 1 19 20
M  V30 20 2 20 21
M  V30 21 1 21 22
M  V30 22 2 22 23
M  V30 23 1 23 24
M  V30 24 2 24 25
M  V30 25 1 25 26
M  V30 26 1 26 27
M  V30 27 2 26 28
M  V30 28 1 21 29
M  V30 29 2 29 30
M  V30 30 1 30 31
M  V30 31 2 31 32
M  V30 32 1 32 33
M  V30 33 1 17 34
M  V30 34 2 34 35
M  V30 35 2 10 36
M  V30 36 1 36 6
M  V30 37 1 35 11
M  V30 38 1 34 14
M  V30 39 1 33 18
M  V30 40 1 32 20
M  V30 41 1 28 22
M  V30 42 1 1 37
M  V30 43 1 1 38
M  V30 44 1 1 39
M  V30 45 1 2 40
M  V30 46 1 2 41
M  V30 47 1 5 42
M  V30 48 1 7 43
M  V30 49 1 9 44
M  V30 50 1 12 45
M  V30 51 1 13 46
M  V30 52 1 15 47
M  V30 53 1 23 48
M  V30 54 1 24 49
M  V30 55 1 25 50
M  V30 56 1 28 51
M  V30 57 1 29 52
M  V30 58 1 31 53
M  V30 59 1 33 54
M  V30 60 1 35 55
M  V30 61 1 36 56
M  V30 END BOND
M  V30 END CTAB
M  END
>  <Dataset>  (513) 
ChEMBL_Kinases

>  <Ligand_Instance>  (513) 
nan

>  <PDB_ID>  (513) 
nan

>  <Standardized_SMILES>  (513) 
CCC(=O)Nc1cncc(-c2ccc3[nH]nc(-c4nc5c(-c6cccc(F)c6)cncc5[nH]4)c3c2)c1

>  <Name>  (513) 
nan

>  <Pocket>  (513) 
nan

>  <ATP_Site>  (513) 
nan

>  <Peripheral>  (513) 
nan

>  <Num_H_Atoms_ProtBoundConf>  (513) 
nan

>  <Num_Resolved_Atoms>  (513) 
nan

>  <Num_Not_Resolved_Atoms>  (513) 
nan

$$$$
CHEMBL4750354
     RDKit          3D

  0  0  0  0  0  0  0  0  0  0999 V3000
M  V30 BEGIN CTAB
M  V30 COUNTS 59 65 0 0 0
M  V30 BEGIN ATOM
M  V30 1 O 3.673773 -1.966472 3.124013 0
M  V30 2 C 4.109799 -2.711827 2.196139 0
M  V30 3 N 4.719236 -2.067666 1.098596 0
M  V30 4 C 4.781040 -0.638295 1.148312 0
M  V30 5 C 5.824240 0.086798 1.697508 0
M  V30 6 N 5.763394 1.451549 1.682889 0
M  V30 7 C 4.703670 2.089519 1.141982 0
M  V30 8 C 3.649266 1.384491 0.587304 0
M  V30 9 C 2.492941 2.054754 -0.004078 0
M  V30 10 C 2.718546 3.283796 -0.609187 0
M  V30 11 N 1.653935 3.902179 -1.153685 0
M  V30 12 C 0.425141 3.360332 -1.117028 0
M  V30 13 N -0.775794 3.752693 -1.570032 0
M  V30 14 N -1.697495 2.857340 -1.283729 0
M  V30 15 C -1.176640 1.802340 -0.618503 0
M  V30 16 C -1.907322 0.644958 -0.154095 0
M  V30 17 C -3.273206 0.513053 -0.362329 0
M  V30 18 C -3.764650 -0.659165 0.158567 0
M  V30 19 C -4.984518 -1.293334 0.248384 0
M  V30 20 C -6.144462 -0.654542 -0.336924 0
M  V30 21 C -6.293455 -0.078935 -1.579873 0
M  V30 22 C -7.491966 0.490948 -1.956431 0
M  V30 23 N -8.569957 0.519708 -1.149578 0
M  V30 24 C -8.450878 -0.038073 0.074584 0
M  V30 25 C -7.274515 -0.614195 0.484664 0
M  V30 26 C -5.154576 -2.516021 0.864495 0
M  V30 27 N -4.036607 -3.092588 1.397803 0
M  V30 28 C -2.839264 -2.505220 1.327903 0
M  V30 29 C -2.671159 -1.285792 0.713450 0
M  V30 30 N -1.631036 -0.482492 0.499546 0
M  V30 31 C 0.150205 2.143935 -0.528667 0
M  V30 32 C 1.227026 1.508317 0.027428 0
M  V30 33 C 3.671187 -0.012096 0.581424 0
M  V30 34 C 3.989576 -4.171753 2.255090 0
M  V30 35 C 5.294697 -4.927356 2.220161 0
M  V30 36 C 4.648839 -5.915864 1.293024 0
M  V30 37 C 3.552881 -4.902470 1.033715 0
M  V30 38 H 5.115387 -2.606322 0.272358 0
M  V30 39 H 6.641887 -0.489018 2.113802 0
M  V30 40 H 4.667587 3.169539 1.136170 0
M  V30 41 H 3.677298 3.768313 -0.670179 0
M  V30 42 H -1.021397 4.626398 -2.082819 0
M  V30 43 H -3.948911 1.206395 -0.865024 0
M  V30 44 H -5.405266 -0.127793 -2.194768 0
M  V30 45 H -7.480573 0.904173 -2.944460 0
M  V30 46 H -9.318175 -0.015154 0.724570 0
M  V30 47 H -7.273248 -1.034375 1.478099 0
M  V30 48 H -6.094986 -3.010636 0.937200 0
M  V30 49 H -1.975339 -2.983013 1.757184 0
M  V30 50 H -0.689157 -0.748350 0.832527 0
M  V30 51 H 1.114785 0.562693 0.505428 0
M  V30 52 H 2.836844 -0.542787 0.142563 0
M  V30 53 H 3.381898 -4.490545 3.122849 0
M  V30 54 H 5.605175 -5.291703 3.206800 0
M  V30 55 H 6.107066 -4.389913 1.666188 0
M  V30 56 H 5.231347 -6.172791 0.391852 0
M  V30 57 H 4.346013 -6.823972 1.859531 0
M  V30 58 H 2.558076 -5.428240 1.131603 0
M  V30 59 H 3.680669 -4.410394 0.055233 0
M  V30 END ATOM
M  V30 BEGIN BOND
M  V30 1 2 1 2
M  V30 2 1 2 3
M  V30 3 1 3 4
M  V30 4 2 4 5
M  V30 5 1 5 6
M  V30 6 2 6 7
M  V30 7 1 7 8
M  V30 8 1 8 9
M  V30 9 2 9 10
M  V30 10 1 10 11
M  V30 11 2 11 12
M  V30 12 1 12 13
M  V30 13 1 13 14
M  V30 14 2 14 15
M  V30 15 1 15 16
M  V30 16 2 16 17
M  V30 17 1 17 18
M  V30 18 2 18 19
M  V30 19 1 19 20
M  V30 20 2 20 21
M  V30 21 1 21 22
M  V30 22 2 22 23
M  V30 23 1 23 24
M  V30 24 2 24 25
M  V30 25 1 19 26
M  V30 26 2 26 27
M  V30 27 1 27 28
M  V30 28 2 28 29
M  V30 29 1 29 30
M  V30 30 1 15 31
M  V30 31 2 31 32
M  V30 32 2 8 33
M  V30 33 1 2 34
M  V30 34 1 34 35
M  V30 35 1 35 36
M  V30 36 1 36 37
M  V30 37 1 33 4
M  V30 38 1 37 34
M  V30 39 1 32 9
M  V30 40 1 31 12
M  V30 41 1 30 16
M  V30 42 1 29 18
M  V30 43 1 25 20
M  V30 44 1 3 38
M  V30 45 1 5 39
M  V30 46 1 7 40
M  V30 47 1 10 41
M  V30 48 1 13 42
M  V30 49 1 17 43
M  V30 50 1 21 44
M  V30 51 1 22 45
M  V30 52 1 24 46
M  V30 53 1 25 47
M  V30 54 1 26 48
M  V30 55 1 28 49
M  V30 56 1 30 50
M  V30 57 1 32 51
M  V30 58 1 33 52
M  V30 59 1 34 53
M  V30 60 1 35 54
M  V30 61 1 35 55
M  V30 62 1 36 56
M  V30 63 1 36 57
M  V30 64 1 37 58
M  V30 65 1 37 59
M  V30 END BOND
M  V30 END CTAB
M  END
>  <Dataset>  (514) 
ChEMBL_Kinases

>  <Ligand_Instance>  (514) 
nan

>  <PDB_ID>  (514) 
nan

>  <Standardized_SMILES>  (514) 
O=C(Nc1cncc(-c2cnc3[nH]nc(-c4cc5c(-c6ccncc6)cncc5[nH]4)c3c2)c1)C1CCC1

>  <Name>  (514) 
nan

>  <Pocket>  (514) 
nan

>  <ATP_Site>  (514) 
nan

>  <Peripheral>  (514) 
nan

>  <Num_H_Atoms_ProtBoundConf>  (514) 
nan

>  <Num_Resolved_Atoms>  (514) 
nan

>  <Num_Not_Resolved_Atoms>  (514) 
nan

$$$$
CHEMBL1946917
     RDKit          3D

  0  0  0  0  0  0  0  0  0  0999 V3000
M  V30 BEGIN CTAB
M  V30 COUNTS 29 32 0 0 0
M  V30 BEGIN ATOM
M  V30 1 O -1.831109 2.380165 2.616053 0
M  V30 2 C -0.895357 1.597006 2.276969 0
M  V30 3 O 0.297898 1.663215 2.812795 0
M  V30 4 C 1.286741 0.842420 2.460655 0
M  V30 5 C 2.470146 1.065641 3.135309 0
M  V30 6 C 3.512832 0.228682 2.789930 0
M  V30 7 O 4.741678 0.382710 3.419789 0
M  V30 8 C 3.375745 -0.775972 1.821831 0
M  V30 9 C 2.143770 -0.900755 1.217317 0
M  V30 10 C 1.068907 -0.117534 1.501010 0
M  V30 11 C -0.165239 -0.180233 0.952073 0
M  V30 12 C -1.195238 0.656941 1.302701 0
M  V30 13 N -2.294994 0.381742 0.614121 0
M  V30 14 C -1.974695 -0.656885 -0.202561 0
M  V30 15 C -2.817137 -1.268683 -1.094628 0
M  V30 16 C -2.327589 -2.313165 -1.849175 0
M  V30 17 C -0.993910 -2.696656 -1.666255 0
M  V30 18 O -0.615712 -3.767790 -2.489420 0
M  V30 19 C -0.202736 -2.040529 -0.754317 0
M  V30 20 C -0.663162 -1.010917 -0.001682 0
M  V30 21 H 2.580208 1.831903 3.875891 0
M  V30 22 H 5.254526 -0.428218 3.770766 0
M  V30 23 H 4.222659 -1.402407 1.589833 0
M  V30 24 H 2.085109 -1.653786 0.509258 0
M  V30 25 H -3.220043 0.891358 0.708762 0
M  V30 26 H -3.837683 -0.968443 -1.228433 0
M  V30 27 H -2.986864 -2.786895 -2.542695 0
M  V30 28 H -0.058936 -4.536346 -2.138322 0
M  V30 29 H 0.763078 -2.468967 -0.758882 0
M  V30 END ATOM
M  V30 BEGIN BOND
M  V30 1 2 1 2
M  V30 2 1 2 3
M  V30 3 1 3 4
M  V30 4 2 4 5
M  V30 5 1 5 6
M  V30 6 1 6 7
M  V30 7 2 6 8
M  V30 8 1 8 9
M  V30 9 2 9 10
M  V30 10 1 10 11
M  V30 11 2 11 12
M  V30 12 1 12 13
M  V30 13 1 13 14
M  V30 14 2 14 15
M  V30 15 1 15 16
M  V30 16 2 16 17
M  V30 17 1 17 18
M  V30 18 1 17 19
M  V30 19 2 19 20
M  V30 20 1 12 2
M  V30 21 1 20 14
M  V30 22 1 10 4
M  V30 23 1 20 11
M  V30 24 1 5 21
M  V30 25 1 7 22
M  V30 26 1 8 23
M  V30 27 1 9 24
M  V30 28 1 13 25
M  V30 29 1 15 26
M  V30 30 1 16 27
M  V30 31 1 18 28
M  V30 32 1 19 29
M  V30 END BOND
M  V30 END CTAB
M  END
>  <Dataset>  (515) 
ChEMBL_Kinases

>  <Ligand_Instance>  (515) 
nan

>  <PDB_ID>  (515) 
nan

>  <Standardized_SMILES>  (515) 
O=c1oc2cc(O)ccc2c2c1[nH]c1ccc(O)cc12

>  <Name>  (515) 
nan

>  <Pocket>  (515) 
nan

>  <ATP_Site>  (515) 
nan

>  <Peripheral>  (515) 
nan

>  <Num_H_Atoms_ProtBoundConf>  (515) 
nan

>  <Num_Resolved_Atoms>  (515) 
nan

>  <Num_Not_Resolved_Atoms>  (515) 
nan

$$$$
CHEMBL4750147
     RDKit          3D

  0  0  0  0  0  0  0  0  0  0999 V3000
M  V30 BEGIN CTAB
M  V30 COUNTS 49 52 0 0 0
M  V30 BEGIN ATOM
M  V30 1 C 2.866660 -2.129341 5.763353 0
M  V30 2 N 2.508788 -2.760932 4.510118 0
M  V30 3 C 1.847162 -4.041874 4.534907 0
M  V30 4 C 2.862006 -2.019992 3.338346 0
M  V30 5 O 3.432094 -0.920401 3.557906 0
M  V30 6 N 2.624456 -2.421223 1.992032 0
M  V30 7 C 3.071019 -1.504159 0.970938 0
M  V30 8 C 4.319427 -1.531540 0.410087 0
M  V30 9 N 4.687118 -0.652623 -0.541779 0
M  V30 10 C 3.856928 0.308946 -1.005575 0
M  V30 11 C 2.584755 0.389930 -0.481242 0
M  V30 12 C 1.598603 1.402289 -0.917332 0
M  V30 13 C 1.902510 2.680058 -1.348119 0
M  V30 14 C 0.884860 3.529908 -1.730341 0
M  V30 15 C -0.444853 3.138562 -1.695416 0
M  V30 16 N -1.606671 3.750089 -2.004105 0
M  V30 17 N -2.620610 2.924393 -1.789986 0
M  V30 18 C -2.155466 1.760452 -1.339415 0
M  V30 19 C -2.834478 0.515087 -0.949577 0
M  V30 20 O -2.251983 -0.541577 -0.530502 0
M  V30 21 N -4.253212 0.332279 -0.992911 0
M  V30 22 C -4.524332 -1.006349 -0.539077 0
M  V30 23 C -4.592508 -2.115433 -1.356798 0
M  V30 24 C -4.863572 -3.337510 -0.754228 0
M  V30 25 C -5.049780 -3.390742 0.610243 0
M  V30 26 N -4.977598 -2.295168 1.380423 0
M  V30 27 C -4.716124 -1.078564 0.844955 0
M  V30 28 C -0.781941 1.854178 -1.264914 0
M  V30 29 C 0.272745 1.046351 -0.894753 0
M  V30 30 C 2.195382 -0.516584 0.505406 0
M  V30 31 H 2.176473 -2.448181 6.565894 0
M  V30 32 H 2.847482 -1.026284 5.701398 0
M  V30 33 H 3.885907 -2.464462 6.072021 0
M  V30 34 H 0.777288 -3.860159 4.799814 0
M  V30 35 H 1.930425 -4.528116 3.540835 0
M  V30 36 H 2.327667 -4.644706 5.326570 0
M  V30 37 H 2.151010 -3.338199 1.864584 0
M  V30 38 H 5.002453 -2.296650 0.768567 0
M  V30 39 H 4.146514 1.022452 -1.773984 0
M  V30 40 H 2.945876 2.940972 -1.359070 0
M  V30 41 H 1.169554 4.515809 -2.058673 0
M  V30 42 H -1.686972 4.727759 -2.358211 0
M  V30 43 H -4.843672 1.138125 -1.323423 0
M  V30 44 H -4.429789 -1.961680 -2.420827 0
M  V30 45 H -4.918914 -4.204564 -1.378489 0
M  V30 46 H -5.260987 -4.341377 1.081877 0
M  V30 47 H -4.670876 -0.245675 1.504497 0
M  V30 48 H 0.000853 0.058587 -0.565115 0
M  V30 49 H 1.201228 -0.519616 0.974692 0
M  V30 END ATOM
M  V30 BEGIN BOND
M  V30 1 1 1 2
M  V30 2 1 2 3
M  V30 3 1 2 4
M  V30 4 2 4 5
M  V30 5 1 4 6
M  V30 6 1 6 7
M  V30 7 2 7 8
M  V30 8 1 8 9
M  V30 9 2 9 10
M  V30 10 1 10 11
M  V30 11 1 11 12
M  V30 12 2 12 13
M  V30 13 1 13 14
M  V30 14 2 14 15
M  V30 15 1 15 16
M  V30 16 1 16 17
M  V30 17 2 17 18
M  V30 18 1 18 19
M  V30 19 2 19 20
M  V30 20 1 19 21
M  V30 21 1 21 22
M  V30 22 2 22 23
M  V30 23 1 23 24
M  V30 24 2 24 25
M  V30 25 1 25 26
M  V30 26 2 26 27
M  V30 27 1 18 28
M  V30 28 2 28 29
M  V30 29 2 11 30
M  V30 30 1 30 7
M  V30 31 1 29 12
M  V30 32 1 28 15
M  V30 33 1 27 22
M  V30 34 1 1 31
M  V30 35 1 1 32
M  V30 36 1 1 33
M  V30 37 1 3 34
M  V30 38 1 3 35
M  V30 39 1 3 36
M  V30 40 1 6 37
M  V30 41 1 8 38
M  V30 42 1 10 39
M  V30 43 1 13 40
M  V30 44 1 14 41
M  V30 45 1 16 42
M  V30 46 1 21 43
M  V30 47 1 23 44
M  V30 48 1 24 45
M  V30 49 1 25 46
M  V30 50 1 27 47
M  V30 51 1 29 48
M  V30 52 1 30 49
M  V30 END BOND
M  V30 END CTAB
M  END
>  <Dataset>  (516) 
ChEMBL_Kinases

>  <Ligand_Instance>  (516) 
nan

>  <PDB_ID>  (516) 
nan

>  <Standardized_SMILES>  (516) 
CN(C)C(=O)Nc1cncc(-c2ccc3[nH]nc(C(=O)Nc4cccnc4)c3c2)c1

>  <Name>  (516) 
nan

>  <Pocket>  (516) 
nan

>  <ATP_Site>  (516) 
nan

>  <Peripheral>  (516) 
nan

>  <Num_H_Atoms_ProtBoundConf>  (516) 
nan

>  <Num_Resolved_Atoms>  (516) 
nan

>  <Num_Not_Resolved_Atoms>  (516) 
nan

$$$$
CHEMBL4750038
     RDKit          3D

  0  0  0  0  0  0  0  0  0  0999 V3000
M  V30 BEGIN CTAB
M  V30 COUNTS 57 62 0 0 0
M  V30 BEGIN ATOM
M  V30 1 C 2.135043 -2.168603 2.180343 0
M  V30 2 N 3.567683 -2.159306 2.227440 0
M  V30 3 C 4.177071 -3.459288 2.320935 0
M  V30 4 C 4.160160 -1.419610 1.135379 0
M  V30 5 C 3.761266 -0.000538 1.104270 0
M  V30 6 C 4.592351 0.853122 1.836953 0
M  V30 7 N 4.323403 2.190963 1.879872 0
M  V30 8 C 3.257457 2.666815 1.212624 0
M  V30 9 C 2.398246 1.881055 0.471943 0
M  V30 10 C 1.256375 2.435865 -0.237099 0
M  V30 11 C 1.441834 3.726306 -0.708766 0
M  V30 12 N 0.415437 4.303639 -1.378684 0
M  V30 13 C -0.746995 3.664245 -1.587736 0
M  V30 14 N -1.900477 3.984096 -2.200664 0
M  V30 15 N -2.743203 2.972695 -2.119153 0
M  V30 16 C -2.240086 1.929152 -1.467557 0
M  V30 17 C -2.907992 0.674054 -1.208537 0
M  V30 18 C -2.635523 -0.496436 -0.596141 0
M  V30 19 C -3.689894 -1.384744 -0.651798 0
M  V30 20 C -3.850071 -2.676510 -0.165804 0
M  V30 21 C -2.759440 -3.319471 0.559031 0
M  V30 22 C -2.558760 -3.256057 1.942595 0
M  V30 23 C -1.470214 -3.928466 2.454721 0
M  V30 24 C -0.572754 -4.654323 1.697276 0
M  V30 25 C -0.791252 -4.702287 0.335899 0
M  V30 26 C -1.872103 -4.042067 -0.223811 0
M  V30 27 F -2.000114 -4.151718 -1.584477 0
M  V30 28 C -5.057834 -3.303149 -0.396088 0
M  V30 29 N -6.032094 -2.653056 -1.075727 0
M  V30 30 C -5.853265 -1.403269 -1.536118 0
M  V30 31 C -4.673088 -0.714593 -1.343697 0
M  V30 32 N -4.177146 0.493681 -1.655145 0
M  V30 33 C -0.983027 2.367244 -1.134119 0
M  V30 34 C 0.061005 1.786106 -0.455373 0
M  V30 35 C 2.682038 0.537054 0.438367 0
M  V30 36 H 1.821074 -2.174897 1.116294 0
M  V30 37 H 1.706105 -1.237948 2.641984 0
M  V30 38 H 1.694563 -3.077835 2.657947 0
M  V30 39 H 4.389310 -3.719191 3.389511 0
M  V30 40 H 3.537941 -4.286213 1.926688 0
M  V30 41 H 5.099520 -3.456408 1.709209 0
M  V30 42 H 5.267260 -1.528877 1.208808 0
M  V30 43 H 3.879942 -1.961442 0.209235 0
M  V30 44 H 5.465231 0.515982 2.392528 0
M  V30 45 H 3.088308 3.735383 1.279128 0
M  V30 46 H 2.318054 4.354593 -0.613326 0
M  V30 47 H -2.138820 4.879291 -2.679629 0
M  V30 48 H -1.720609 -0.730101 -0.118467 0
M  V30 49 H -3.267905 -2.688996 2.495651 0
M  V30 50 H -1.336687 -3.864034 3.527808 0
M  V30 51 H 0.248901 -5.141601 2.222812 0
M  V30 52 H -0.078050 -5.279577 -0.269817 0
M  V30 53 H -5.196732 -4.323373 -0.017679 0
M  V30 54 H -6.637595 -0.900202 -2.074396 0
M  V30 55 H -4.816686 1.127567 -2.190168 0
M  V30 56 H -0.043593 0.807914 -0.082998 0
M  V30 57 H 2.068446 -0.136389 -0.111188 0
M  V30 END ATOM
M  V30 BEGIN BOND
M  V30 1 1 1 2
M  V30 2 1 2 3
M  V30 3 1 2 4
M  V30 4 1 4 5
M  V30 5 2 5 6
M  V30 6 1 6 7
M  V30 7 2 7 8
M  V30 8 1 8 9
M  V30 9 1 9 10
M  V30 10 2 10 11
M  V30 11 1 11 12
M  V30 12 2 12 13
M  V30 13 1 13 14
M  V30 14 1 14 15
M  V30 15 2 15 16
M  V30 16 1 16 17
M  V30 17 2 17 18
M  V30 18 1 18 19
M  V30 19 2 19 20
M  V30 20 1 20 21
M  V30 21 2 21 22
M  V30 22 1 22 23
M  V30 23 2 23 24
M  V30 24 1 24 25
M  V30 25 2 25 26
M  V30 26 1 26 27
M  V30 27 1 20 28
M  V30 28 2 28 29
M  V30 29 1 29 30
M  V30 30 2 30 31
M  V30 31 1 31 32
M  V30 32 1 16 33
M  V30 33 2 33 34
M  V30 34 2 9 35
M  V30 35 1 35 5
M  V30 36 1 34 10
M  V30 37 1 33 13
M  V30 38 1 32 17
M  V30 39 1 31 19
M  V30 40 1 26 21
M  V30 41 1 1 36
M  V30 42 1 1 37
M  V30 43 1 1 38
M  V30 44 1 3 39
M  V30 45 1 3 40
M  V30 46 1 3 41
M  V30 47 1 4 42
M  V30 48 1 4 43
M  V30 49 1 6 44
M  V30 50 1 8 45
M  V30 51 1 11 46
M  V30 52 1 14 47
M  V30 53 1 18 48
M  V30 54 1 22 49
M  V30 55 1 23 50
M  V30 56 1 24 51
M  V30 57 1 25 52
M  V30 58 1 28 53
M  V30 59 1 30 54
M  V30 60 1 32 55
M  V30 61 1 34 56
M  V30 62 1 35 57
M  V30 END BOND
M  V30 END CTAB
M  END
>  <Dataset>  (517) 
ChEMBL_Kinases

>  <Ligand_Instance>  (517) 
nan

>  <PDB_ID>  (517) 
nan

>  <Standardized_SMILES>  (517) 
CN(C)Cc1cncc(-c2cnc3[nH]nc(-c4cc5c(-c6ccccc6F)cncc5[nH]4)c3c2)c1

>  <Name>  (517) 
nan

>  <Pocket>  (517) 
nan

>  <ATP_Site>  (517) 
nan

>  <Peripheral>  (517) 
nan

>  <Num_H_Atoms_ProtBoundConf>  (517) 
nan

>  <Num_Resolved_Atoms>  (517) 
nan

>  <Num_Not_Resolved_Atoms>  (517) 
nan

$$$$
CHEMBL2441346
     RDKit          3D

  0  0  0  0  0  0  0  0  0  0999 V3000
M  V30 BEGIN CTAB
M  V30 COUNTS 53 57 0 0 0
M  V30 BEGIN ATOM
M  V30 1 C 1.619591 -2.341509 5.887372 0
M  V30 2 C 2.370370 -1.348011 5.046532 0
M  V30 3 C 3.327344 -0.443929 5.522197 0
M  V30 4 C 3.709943 0.230662 4.379120 0
M  V30 5 C 4.760794 1.289581 4.593867 0
M  V30 6 N 3.016447 -0.252976 3.305579 0
M  V30 7 C 3.289833 0.346366 2.010354 0
M  V30 8 C 2.408067 1.494811 1.700836 0
M  V30 9 O 2.916863 2.524253 2.225037 0
M  V30 10 N 1.193822 1.613795 0.974435 0
M  V30 11 C 0.490111 2.883281 0.771004 0
M  V30 12 C -0.036435 2.704454 -0.660361 0
M  V30 13 C -0.374277 1.242238 -0.716171 0
M  V30 14 C 0.394010 0.653871 0.296186 0
M  V30 15 C 0.298483 -0.705538 0.500473 0
M  V30 16 C -0.536284 -1.481983 -0.274811 0
M  V30 17 C -1.293036 -0.883041 -1.277584 0
M  V30 18 C -2.143418 -1.773387 -2.057500 0
M  V30 19 C -1.554312 -2.333074 -3.197438 0
M  V30 20 N -2.512638 -3.118564 -3.761976 0
M  V30 21 C -2.352241 -3.911136 -4.986080 0
M  V30 22 C -3.640326 -3.061392 -3.026653 0
M  V30 23 N -4.879587 -3.620209 -3.104099 0
M  V30 24 C -5.799742 -3.319665 -2.141279 0
M  V30 25 N -5.571676 -2.500158 -1.104927 0
M  V30 26 C -4.351280 -1.912040 -0.974267 0
M  V30 27 N -4.016704 -1.020060 0.102737 0
M  V30 28 C -3.438436 -2.215108 -1.936536 0
M  V30 29 C -1.213896 0.476446 -1.499223 0
M  V30 30 F -1.955932 1.046576 -2.477562 0
M  V30 31 N 2.208470 -1.208945 3.724441 0
M  V30 32 H 0.534076 -2.139481 5.863942 0
M  V30 33 H 1.930918 -2.295010 6.938529 0
M  V30 34 H 1.803212 -3.331151 5.464770 0
M  V30 35 H 3.595166 -0.404909 6.563109 0
M  V30 36 H 5.104776 1.628660 3.612905 0
M  V30 37 H 5.650237 0.828272 5.084649 0
M  V30 38 H 4.433780 2.097267 5.247911 0
M  V30 39 H 3.127202 -0.473258 1.248770 0
M  V30 40 H 4.368939 0.591617 1.892814 0
M  V30 41 H -0.356789 2.991051 1.477001 0
M  V30 42 H 1.210665 3.725290 0.814976 0
M  V30 43 H -1.002998 3.234223 -0.676603 0
M  V30 44 H 0.678291 3.016955 -1.420412 0
M  V30 45 H 0.877093 -1.184730 1.276062 0
M  V30 46 H -0.601150 -2.562217 -0.100553 0
M  V30 47 H -0.570474 -2.245752 -3.643419 0
M  V30 48 H -1.893822 -3.277753 -5.767628 0
M  V30 49 H -3.341698 -4.273214 -5.311109 0
M  V30 50 H -1.614745 -4.737897 -4.809991 0
M  V30 51 H -6.800029 -3.759606 -2.187918 0
M  V30 52 H -4.069257 -0.106501 -0.407114 0
M  V30 53 H -3.811256 -1.391446 1.063209 0
M  V30 END ATOM
M  V30 BEGIN BOND
M  V30 1 1 1 2
M  V30 2 1 2 3
M  V30 3 2 3 4
M  V30 4 1 4 5
M  V30 5 1 4 6
M  V30 6 1 6 7
M  V30 7 1 7 8
M  V30 8 2 8 9
M  V30 9 1 8 10
M  V30 10 1 10 11
M  V30 11 1 11 12
M  V30 12 1 12 13
M  V30 13 2 13 14
M  V30 14 1 14 15
M  V30 15 2 15 16
M  V30 16 1 16 17
M  V30 17 1 17 18
M  V30 18 2 18 19
M  V30 19 1 19 20
M  V30 20 1 20 21
M  V30 21 1 20 22
M  V30 22 2 22 23
M  V30 23 1 23 24
M  V30 24 2 24 25
M  V30 25 1 25 26
M  V30 26 1 26 27
M  V30 27 2 26 28
M  V30 28 2 17 29
M  V30 29 1 29 30
M  V30 30 1 6 31
M  V30 31 2 31 2
M  V30 32 1 14 10
M  V30 33 1 28 18
M  V30 34 1 29 13
M  V30 35 1 28 22
M  V30 36 1 1 32
M  V30 37 1 1 33
M  V30 38 1 1 34
M  V30 39 1 3 35
M  V30 40 1 5 36
M  V30 41 1 5 37
M  V30 42 1 5 38
M  V30 43 1 7 39
M  V30 44 1 7 40
M  V30 45 1 11 41
M  V30 46 1 11 42
M  V30 47 1 12 43
M  V30 48 1 12 44
M  V30 49 1 15 45
M  V30 50 1 16 46
M  V30 51 1 19 47
M  V30 52 1 21 48
M  V30 53 1 21 49
M  V30 54 1 21 50
M  V30 55 1 24 51
M  V30 56 1 27 52
M  V30 57 1 27 53
M  V30 END BOND
M  V30 END CTAB
M  END
>  <Dataset>  (518) 
ChEMBL_Kinases

>  <Ligand_Instance>  (518) 
nan

>  <PDB_ID>  (518) 
nan

>  <Standardized_SMILES>  (518) 
Cc1cc(C)n(CC(=O)N2CCc3c2ccc(-c2cn(C)c4ncnc(N)c24)c3F)n1

>  <Name>  (518) 
nan

>  <Pocket>  (518) 
nan

>  <ATP_Site>  (518) 
nan

>  <Peripheral>  (518) 
nan

>  <Num_H_Atoms_ProtBoundConf>  (518) 
nan

>  <Num_Resolved_Atoms>  (518) 
nan

>  <Num_Not_Resolved_Atoms>  (518) 
nan

$$$$
CHEMBL4749966
     RDKit          3D

  0  0  0  0  0  0  0  0  0  0999 V3000
M  V30 BEGIN CTAB
M  V30 COUNTS 65 71 0 0 0
M  V30 BEGIN ATOM
M  V30 1 C 4.759560 1.448809 3.743365 0
M  V30 2 C 4.538734 0.323522 2.978997 0
M  V30 3 C 3.427320 0.256890 2.163442 0
M  V30 4 C 3.222210 -0.937550 1.353115 0
M  V30 5 C 4.313875 -1.485400 0.664436 0
M  V30 6 C 3.898681 -2.599315 -0.034164 0
M  V30 7 O 2.616721 -2.723962 0.216820 0
M  V30 8 C 2.186567 -1.781506 1.015979 0
M  V30 9 C 2.497427 1.265199 2.058106 0
M  V30 10 C 1.321554 1.495279 1.355786 0
M  V30 11 C 0.840865 2.727548 1.682497 0
M  V30 12 C -0.326369 3.464781 1.226221 0
M  V30 13 N -0.631917 4.707952 1.639305 0
M  V30 14 N -1.723823 5.167612 1.075941 0
M  V30 15 C -2.126274 4.182105 0.277543 0
M  V30 16 C -3.229195 4.088254 -0.580801 0
M  V30 17 C -3.405583 2.916605 -1.309897 0
M  V30 18 C -2.539654 1.848240 -1.219474 0
M  V30 19 C -2.816111 0.649824 -1.993967 0
M  V30 20 C -3.884187 0.567799 -2.853250 0
M  V30 21 N -4.222405 -0.497889 -3.590220 0
M  V30 22 C -3.484945 -1.642357 -3.533210 0
M  V30 23 C -2.383397 -1.609261 -2.668561 0
M  V30 24 C -1.627326 -2.890030 -2.651682 0
M  V30 25 N -2.188024 -3.855333 -1.770543 0
M  V30 26 C -2.325731 -3.504337 -0.406284 0
M  V30 27 C -1.033073 -3.358247 0.364054 0
M  V30 28 C -0.238669 -4.637801 0.370363 0
M  V30 29 C 0.118380 -4.811316 1.827792 0
M  V30 30 C -1.168531 -4.420234 2.528611 0
M  V30 31 C -1.458750 -3.099407 1.815005 0
M  V30 32 C -2.056120 -0.495551 -1.919565 0
M  V30 33 N -1.487081 1.957951 -0.391056 0
M  V30 34 C -1.293421 3.078540 0.323095 0
M  V30 35 N 1.719217 3.246100 2.580717 0
M  V30 36 C 2.722993 2.384348 2.821845 0
M  V30 37 C 3.843150 2.471947 3.654721 0
M  V30 38 H 5.637690 1.490465 4.381967 0
M  V30 39 H 5.230769 -0.534039 2.999869 0
M  V30 40 H 5.348677 -1.147867 0.633660 0
M  V30 41 H 4.495615 -3.258866 -0.672201 0
M  V30 42 H 1.213413 -1.554176 1.440405 0
M  V30 43 H 0.874640 0.817295 0.675791 0
M  V30 44 H -2.148298 6.104618 1.244771 0
M  V30 45 H -3.887556 4.949674 -0.623159 0
M  V30 46 H -4.279883 2.982923 -1.918782 0
M  V30 47 H -4.570762 1.372767 -3.023120 0
M  V30 48 H -3.754945 -2.502889 -4.126772 0
M  V30 49 H -0.555490 -2.728049 -2.376891 0
M  V30 50 H -1.594737 -3.329891 -3.667197 0
M  V30 51 H -2.049688 -4.841513 -2.004999 0
M  V30 52 H -2.861565 -4.361683 0.098542 0
M  V30 53 H -2.986931 -2.644485 -0.301673 0
M  V30 54 H -0.395119 -2.555836 -0.032184 0
M  V30 55 H 0.662829 -4.588657 -0.280515 0
M  V30 56 H -0.880323 -5.515883 0.097695 0
M  V30 57 H 0.959912 -4.157106 2.117861 0
M  V30 58 H 0.378466 -5.877131 2.028519 0
M  V30 59 H -1.055626 -4.286798 3.606226 0
M  V30 60 H -1.933238 -5.162679 2.254725 0
M  V30 61 H -2.527435 -2.885715 1.917000 0
M  V30 62 H -0.902971 -2.271600 2.276769 0
M  V30 63 H -1.200796 -0.539984 -1.280535 0
M  V30 64 H 1.699797 4.176825 3.069820 0
M  V30 65 H 4.025830 3.342669 4.254117 0
M  V30 END ATOM
M  V30 BEGIN BOND
M  V30 1 2 1 2
M  V30 2 1 2 3
M  V30 3 1 3 4
M  V30 4 1 4 5
M  V30 5 2 5 6
M  V30 6 1 6 7
M  V30 7 1 7 8
M  V30 8 2 3 9
M  V30 9 1 9 10
M  V30 10 2 10 11
M  V30 11 1 11 12
M  V30 12 2 12 13
M  V30 13 1 13 14
M  V30 14 1 14 15
M  V30 15 2 15 16
M  V30 16 1 16 17
M  V30 17 2 17 18
M  V30 18 1 18 19
M  V30 19 2 19 20
M  V30 20 1 20 21
M  V30 21 2 21 22
M  V30 22 1 22 23
M  V30 23 1 23 24
M  V30 24 1 24 25
M  V30 25 1 25 26
M  V30 26 1 26 27
M  V30 27 1 27 28
M  V30 28 1 28 29
M  V30 29 1 29 30
M  V30 30 1 30 31
M  V30 31 2 23 32
M  V30 32 1 18 33
M  V30 33 2 33 34
M  V30 34 1 11 35
M  V30 35 1 35 36
M  V30 36 2 36 37
M  V30 37 1 37 1
M  V30 38 2 8 4
M  V30 39 1 36 9
M  V30 40 1 34 12
M  V30 41 1 34 15
M  V30 42 1 32 19
M  V30 43 1 31 27
M  V30 44 1 1 38
M  V30 45 1 2 39
M  V30 46 1 5 40
M  V30 47 1 6 41
M  V30 48 1 8 42
M  V30 49 1 10 43
M  V30 50 1 14 44
M  V30 51 1 16 45
M  V30 52 1 17 46
M  V30 53 1 20 47
M  V30 54 1 22 48
M  V30 55 1 24 49
M  V30 56 1 24 50
M  V30 57 1 25 51
M  V30 58 1 26 52
M  V30 59 1 26 53
M  V30 60 1 27 54
M  V30 61 1 28 55
M  V30 62 1 28 56
M  V30 63 1 29 57
M  V30 64 1 29 58
M  V30 65 1 30 59
M  V30 66 1 30 60
M  V30 67 1 31 61
M  V30 68 1 31 62
M  V30 69 1 32 63
M  V30 70 1 35 64
M  V30 71 1 37 65
M  V30 END BOND
M  V30 END CTAB
M  END
>  <Dataset>  (519) 
ChEMBL_Kinases

>  <Ligand_Instance>  (519) 
nan

>  <PDB_ID>  (519) 
nan

>  <Standardized_SMILES>  (519) 
c1cc(-c2ccoc2)c2cc(-c3n[nH]c4ccc(-c5cncc(CNCC6CCCC6)c5)nc34)[nH]c2c1

>  <Name>  (519) 
nan

>  <Pocket>  (519) 
nan

>  <ATP_Site>  (519) 
nan

>  <Peripheral>  (519) 
nan

>  <Num_H_Atoms_ProtBoundConf>  (519) 
nan

>  <Num_Resolved_Atoms>  (519) 
nan

>  <Num_Not_Resolved_Atoms>  (519) 
nan

$$$$
CHEMBL4751155
     RDKit          3D

  0  0  0  0  0  0  0  0  0  0999 V3000
M  V30 BEGIN CTAB
M  V30 COUNTS 52 56 0 0 0
M  V30 BEGIN ATOM
M  V30 1 C 3.534371 -3.293312 2.776675 0
M  V30 2 C 4.640436 -2.350834 2.388737 0
M  V30 3 C 5.330309 -2.736710 1.114525 0
M  V30 4 C 4.445346 -2.788233 -0.086777 0
M  V30 5 C 3.846408 -1.441344 -0.307488 0
M  V30 6 O 3.975601 -0.346842 0.342011 0
M  V30 7 N 2.945399 -1.173131 -1.403306 0
M  V30 8 C 2.577104 0.220545 -1.292045 0
M  V30 9 C 3.290699 1.245200 -1.901917 0
M  V30 10 N 2.918352 2.530189 -1.773085 0
M  V30 11 C 1.833893 2.848720 -1.041207 0
M  V30 12 C 1.137213 1.819673 -0.442979 0
M  V30 13 C -0.049965 2.163274 0.361948 0
M  V30 14 C -0.023317 3.378157 1.025304 0
M  V30 15 N -1.103755 3.695450 1.758418 0
M  V30 16 C -2.179983 2.896278 1.866938 0
M  V30 17 N -3.361704 2.959007 2.509806 0
M  V30 18 N -4.065464 1.893337 2.277808 0
M  V30 19 C -3.433486 1.019548 1.465481 0
M  V30 20 C -3.940456 -0.255888 1.013938 0
M  V30 21 C -5.199527 -0.717693 1.402224 0
M  V30 22 C -5.486639 -1.947186 0.863224 0
M  V30 23 C -6.552901 -2.806622 0.930185 0
M  V30 24 N -6.558383 -3.972297 0.281981 0
M  V30 25 C -5.469588 -4.292068 -0.455366 0
M  V30 26 C -4.365755 -3.463302 -0.558805 0
M  V30 27 C -4.384430 -2.278528 0.112643 0
M  V30 28 N -3.530510 -1.260686 0.242632 0
M  V30 29 C -2.250497 1.677370 1.223758 0
M  V30 30 C -1.149458 1.338198 0.468047 0
M  V30 31 C 1.440671 0.470773 -0.516782 0
M  V30 32 H 2.572555 -2.792629 2.538596 0
M  V30 33 H 3.517525 -3.507823 3.873256 0
M  V30 34 H 3.587494 -4.252243 2.220289 0
M  V30 35 H 5.413533 -2.457403 3.205939 0
M  V30 36 H 4.338705 -1.289768 2.442723 0
M  V30 37 H 6.161111 -2.028749 0.949014 0
M  V30 38 H 5.828034 -3.726695 1.276842 0
M  V30 39 H 5.073811 -3.044957 -0.959451 0
M  V30 40 H 3.678474 -3.574378 0.091363 0
M  V30 41 H 2.695749 -1.955394 -2.079781 0
M  V30 42 H 4.138374 0.880104 -2.461729 0
M  V30 43 H 1.540519 3.865229 -0.939914 0
M  V30 44 H 0.823149 4.041424 0.959677 0
M  V30 45 H -3.694521 3.740087 3.116419 0
M  V30 46 H -5.931748 -0.226750 2.051760 0
M  V30 47 H -7.413755 -2.521238 1.531524 0
M  V30 48 H -5.401954 -5.229424 -1.013164 0
M  V30 49 H -3.492787 -3.711310 -1.145289 0
M  V30 50 H -2.616701 -1.275769 -0.234985 0
M  V30 51 H -1.126395 0.421865 -0.054529 0
M  V30 52 H 0.863185 -0.281761 -0.031400 0
M  V30 END ATOM
M  V30 BEGIN BOND
M  V30 1 1 1 2
M  V30 2 1 2 3
M  V30 3 1 3 4
M  V30 4 1 4 5
M  V30 5 2 5 6
M  V30 6 1 5 7
M  V30 7 1 7 8
M  V30 8 2 8 9
M  V30 9 1 9 10
M  V30 10 2 10 11
M  V30 11 1 11 12
M  V30 12 1 12 13
M  V30 13 2 13 14
M  V30 14 1 14 15
M  V30 15 2 15 16
M  V30 16 1 16 17
M  V30 17 1 17 18
M  V30 18 2 18 19
M  V30 19 1 19 20
M  V30 20 2 20 21
M  V30 21 1 21 22
M  V30 22 2 22 23
M  V30 23 1 23 24
M  V30 24 2 24 25
M  V30 25 1 25 26
M  V30 26 2 26 27
M  V30 27 1 27 28
M  V30 28 1 19 29
M  V30 29 2 29 30
M  V30 30 2 12 31
M  V30 31 1 31 8
M  V30 32 1 30 13
M  V30 33 1 29 16
M  V30 34 1 28 20
M  V30 35 1 27 22
M  V30 36 1 1 32
M  V30 37 1 1 33
M  V30 38 1 1 34
M  V30 39 1 2 35
M  V30 40 1 2 36
M  V30 41 1 3 37
M  V30 42 1 3 38
M  V30 43 1 4 39
M  V30 44 1 4 40
M  V30 45 1 7 41
M  V30 46 1 9 42
M  V30 47 1 11 43
M  V30 48 1 14 44
M  V30 49 1 17 45
M  V30 50 1 21 46
M  V30 51 1 23 47
M  V30 52 1 25 48
M  V30 53 1 26 49
M  V30 54 1 28 50
M  V30 55 1 30 51
M  V30 56 1 31 52
M  V30 END BOND
M  V30 END CTAB
M  END
>  <Dataset>  (520) 
ChEMBL_Kinases

>  <Ligand_Instance>  (520) 
nan

>  <PDB_ID>  (520) 
nan

>  <Standardized_SMILES>  (520) 
CCCCC(=O)Nc1cncc(-c2cnc3[nH]nc(-c4cc5cnccc5[nH]4)c3c2)c1

>  <Name>  (520) 
nan

>  <Pocket>  (520) 
nan

>  <ATP_Site>  (520) 
nan

>  <Peripheral>  (520) 
nan

>  <Num_H_Atoms_ProtBoundConf>  (520) 
nan

>  <Num_Resolved_Atoms>  (520) 
nan

>  <Num_Not_Resolved_Atoms>  (520) 
nan

$$$$
CHEMBL4753797
     RDKit          3D

  0  0  0  0  0  0  0  0  0  0999 V3000
M  V30 BEGIN CTAB
M  V30 COUNTS 36 39 0 0 0
M  V30 BEGIN ATOM
M  V30 1 O 0.904447 -1.962302 1.077740 0
M  V30 2 C 1.390607 -2.302240 -0.053538 0
M  V30 3 N 2.065941 -3.551742 0.112147 0
M  V30 4 C 1.889131 -3.871990 1.508712 0
M  V30 5 C 2.852937 -3.415849 2.386055 0
M  V30 6 C 2.616196 -3.757478 3.722200 0
M  V30 7 C 1.484374 -4.497628 4.071325 0
M  V30 8 N 0.586477 -4.905459 3.140218 0
M  V30 9 C 0.763219 -4.602804 1.824959 0
M  V30 10 C 1.303917 -1.573506 -1.337783 0
M  V30 11 N 1.758263 -1.817210 -2.563886 0
M  V30 12 N 1.376277 -0.803450 -3.340584 0
M  V30 13 C 0.669252 0.112868 -2.633529 0
M  V30 14 N 0.087459 1.275961 -2.973902 0
M  V30 15 C -0.575889 2.027024 -2.076398 0
M  V30 16 C -0.660486 1.591948 -0.774794 0
M  V30 17 C -1.363816 2.332065 0.288861 0
M  V30 18 C -2.461574 3.056853 -0.132037 0
M  V30 19 C -3.135453 3.761733 0.858660 0
M  V30 20 C -2.685444 3.703191 2.174835 0
M  V30 21 N -1.593834 2.970105 2.533418 0
M  V30 22 C -0.908628 2.266391 1.590178 0
M  V30 23 C -0.063834 0.402381 -0.433476 0
M  V30 24 C 0.618877 -0.376138 -1.344743 0
M  V30 25 H 2.534780 -3.982616 -0.742219 0
M  V30 26 H 3.701593 -2.849091 2.033249 0
M  V30 27 H 3.339165 -3.425875 4.451159 0
M  V30 28 H 1.316740 -4.754569 5.109915 0
M  V30 29 H 0.071436 -4.908817 1.044249 0
M  V30 30 H 1.567098 -0.682785 -4.355942 0
M  V30 31 H -1.060214 2.969534 -2.300311 0
M  V30 32 H -2.814579 3.109959 -1.133454 0
M  V30 33 H -4.011671 4.366529 0.655557 0
M  V30 34 H -3.177716 4.234266 2.974662 0
M  V30 35 H -0.037735 1.673295 1.841838 0
M  V30 36 H -0.133644 0.060575 0.591640 0
M  V30 END ATOM
M  V30 BEGIN BOND
M  V30 1 2 1 2
M  V30 2 1 2 3
M  V30 3 1 3 4
M  V30 4 2 4 5
M  V30 5 1 5 6
M  V30 6 2 6 7
M  V30 7 1 7 8
M  V30 8 2 8 9
M  V30 9 1 2 10
M  V30 10 2 10 11
M  V30 11 1 11 12
M  V30 12 1 12 13
M  V30 13 2 13 14
M  V30 14 1 14 15
M  V30 15 2 15 16
M  V30 16 1 16 17
M  V30 17 2 17 18
M  V30 18 1 18 19
M  V30 19 2 19 20
M  V30 20 1 20 21
M  V30 21 2 21 22
M  V30 22 1 16 23
M  V30 23 2 23 24
M  V30 24 1 9 4
M  V30 25 1 24 10
M  V30 26 1 24 13
M  V30 27 1 22 17
M  V30 28 1 3 25
M  V30 29 1 5 26
M  V30 30 1 6 27
M  V30 31 1 7 28
M  V30 32 1 9 29
M  V30 33 1 12 30
M  V30 34 1 15 31
M  V30 35 1 18 32
M  V30 36 1 19 33
M  V30 37 1 20 34
M  V30 38 1 22 35
M  V30 39 1 23 36
M  V30 END BOND
M  V30 END CTAB
M  END
>  <Dataset>  (521) 
ChEMBL_Kinases

>  <Ligand_Instance>  (521) 
nan

>  <PDB_ID>  (521) 
nan

>  <Standardized_SMILES>  (521) 
O=C(Nc1cccnc1)c1n[nH]c2ncc(-c3cccnc3)cc12

>  <Name>  (521) 
nan

>  <Pocket>  (521) 
nan

>  <ATP_Site>  (521) 
nan

>  <Peripheral>  (521) 
nan

>  <Num_H_Atoms_ProtBoundConf>  (521) 
nan

>  <Num_Resolved_Atoms>  (521) 
nan

>  <Num_Not_Resolved_Atoms>  (521) 
nan

$$$$
CHEMBL4434704
     RDKit          3D

  0  0  0  0  0  0  0  0  0  0999 V3000
M  V30 BEGIN CTAB
M  V30 COUNTS 61 66 0 0 0
M  V30 BEGIN ATOM
M  V30 1 C 6.166818 -1.922904 -1.280619 0
M  V30 2 O 5.229251 -0.944100 -0.915828 0
M  V30 3 C 5.585028 0.276373 -0.414488 0
M  V30 4 C 6.923942 0.571642 -0.255270 0
M  V30 5 C 7.277136 1.804340 0.250570 0
M  V30 6 C 6.303667 2.714965 0.586959 0
M  V30 7 C 4.961261 2.448782 0.439951 0
M  V30 8 C 4.662355 1.213614 -0.065802 0
M  V30 9 C 4.085516 3.535834 0.843514 0
M  V30 10 C 2.813695 3.724856 0.901091 0
M  V30 11 C 1.587352 3.018019 0.621543 0
M  V30 12 C 1.304199 1.731727 1.038028 0
M  V30 13 C 0.181808 0.975742 0.796536 0
M  V30 14 C -0.770886 1.612735 0.034250 0
M  V30 15 C -2.012340 1.204280 -0.419925 0
M  V30 16 C -2.643808 -0.090524 -0.177040 0
M  V30 17 C -3.976400 -0.212318 0.202712 0
M  V30 18 C -4.553362 -1.469366 0.426875 0
M  V30 19 C -3.789186 -2.606838 0.268879 0
M  V30 20 N -4.330470 -3.903909 0.485099 0
M  V30 21 C -5.707199 -4.098108 0.871495 0
M  V30 22 C -6.089151 -5.530243 0.562051 0
M  V30 23 N -5.219425 -6.489659 1.179514 0
M  V30 24 C -5.739171 -7.016742 2.406477 0
M  V30 25 C -3.872583 -6.053649 1.378409 0
M  V30 26 C -3.484987 -5.069309 0.316085 0
M  V30 27 N -2.504047 -2.458856 -0.099031 0
M  V30 28 C -1.926058 -1.261930 -0.320500 0
M  V30 29 N -2.539527 2.239042 -1.138755 0
M  V30 30 N -1.715351 3.264109 -1.165512 0
M  V30 31 C -0.635671 2.894170 -0.454906 0
M  V30 32 C 0.536559 3.543767 -0.141547 0
M  V30 33 C 5.038335 4.577401 1.284215 0
M  V30 34 O 4.804566 5.743318 1.737561 0
M  V30 35 N 6.335662 4.034922 1.109748 0
M  V30 36 H 7.055036 -1.516507 -1.793087 0
M  V30 37 H 5.683728 -2.697969 -1.921702 0
M  V30 38 H 6.505289 -2.445934 -0.360912 0
M  V30 39 H 7.736133 -0.095097 -0.498649 0
M  V30 40 H 8.320356 2.114116 0.406609 0
M  V30 41 H 3.637746 0.934688 -0.219246 0
M  V30 42 H 2.426747 4.668597 1.265489 0
M  V30 43 H 2.082077 1.244324 1.646283 0
M  V30 44 H 0.079508 -0.026722 1.182485 0
M  V30 45 H -4.548927 0.703466 0.317807 0
M  V30 46 H -5.591984 -1.531394 0.721308 0
M  V30 47 H -5.900785 -3.855812 1.935120 0
M  V30 48 H -6.316921 -3.442555 0.204928 0
M  V30 49 H -6.062345 -5.641361 -0.538137 0
M  V30 50 H -7.123859 -5.756598 0.887080 0
M  V30 51 H -6.798666 -7.309336 2.241204 0
M  V30 52 H -5.151107 -7.936305 2.667762 0
M  V30 53 H -5.607753 -6.334167 3.276355 0
M  V30 54 H -3.181584 -6.937382 1.411694 0
M  V30 55 H -3.705256 -5.543155 2.363448 0
M  V30 56 H -3.546356 -5.482961 -0.707355 0
M  V30 57 H -2.406901 -4.797989 0.495919 0
M  V30 58 H -0.885255 -1.278535 -0.613059 0
M  V30 59 H -1.868441 4.179492 -1.642020 0
M  V30 60 H 0.647064 4.564783 -0.529843 0
M  V30 61 H 7.207112 4.558513 1.343608 0
M  V30 END ATOM
M  V30 BEGIN BOND
M  V30 1 1 1 2
M  V30 2 1 2 3
M  V30 3 2 3 4
M  V30 4 1 4 5
M  V30 5 2 5 6
M  V30 6 1 6 7
M  V30 7 2 7 8
M  V30 8 1 7 9
M  V30 9 2 9 10 CFG=2
M  V30 10 1 10 11
M  V30 11 2 11 12
M  V30 12 1 12 13
M  V30 13 2 13 14
M  V30 14 1 14 15
M  V30 15 1 15 16
M  V30 16 2 16 17
M  V30 17 1 17 18
M  V30 18 2 18 19
M  V30 19 1 19 20
M  V30 20 1 20 21
M  V30 21 1 21 22
M  V30 22 1 22 23
M  V30 23 1 23 24
M  V30 24 1 23 25
M  V30 25 1 25 26
M  V30 26 1 19 27
M  V30 27 2 27 28
M  V30 28 2 15 29
M  V30 29 1 29 30
M  V30 30 1 30 31
M  V30 31 2 31 32
M  V30 32 1 9 33
M  V30 33 2 33 34
M  V30 34 1 33 35
M  V30 35 1 8 3
M  V30 36 1 32 11
M  V30 37 1 35 6
M  V30 38 1 31 14
M  V30 39 1 28 16
M  V30 40 1 26 20
M  V30 41 1 1 36
M  V30 42 1 1 37
M  V30 43 1 1 38
M  V30 44 1 4 39
M  V30 45 1 5 40
M  V30 46 1 8 41
M  V30 47 1 10 42
M  V30 48 1 12 43
M  V30 49 1 13 44
M  V30 50 1 17 45
M  V30 51 1 18 46
M  V30 52 1 21 47
M  V30 53 1 21 48
M  V30 54 1 22 49
M  V30 55 1 22 50
M  V30 56 1 24 51
M  V30 57 1 24 52
M  V30 58 1 24 53
M  V30 59 1 25 54
M  V30 60 1 25 55
M  V30 61 1 26 56
M  V30 62 1 26 57
M  V30 63 1 28 58
M  V30 64 1 30 59
M  V30 65 1 32 60
M  V30 66 1 35 61
M  V30 END BOND
M  V30 END CTAB
M  END
>  <Dataset>  (522) 
ChEMBL_Kinases

>  <Ligand_Instance>  (522) 
nan

>  <PDB_ID>  (522) 
nan

>  <Standardized_SMILES>  (522) 
COc1ccc2c(c1)C(=Cc1ccc3c(-c4ccc(N5CCN(C)CC5)nc4)n[nH]c3c1)C(=O)N2

>  <Name>  (522) 
nan

>  <Pocket>  (522) 
nan

>  <ATP_Site>  (522) 
nan

>  <Peripheral>  (522) 
nan

>  <Num_H_Atoms_ProtBoundConf>  (522) 
nan

>  <Num_Resolved_Atoms>  (522) 
nan

>  <Num_Not_Resolved_Atoms>  (522) 
nan

$$$$
CHEMBL4753717
     RDKit          3D

  0  0  0  0  0  0  0  0  0  0999 V3000
M  V30 BEGIN CTAB
M  V30 COUNTS 83 86 0 0 0
M  V30 BEGIN ATOM
M  V30 1 C -0.469052 -8.175602 -5.609802 0
M  V30 2 N 0.833282 -7.594925 -5.343500 0
M  V30 3 C 1.303872 -6.985170 -6.573473 0
M  V30 4 C 0.811349 -6.638390 -4.280937 0
M  V30 5 C 2.187873 -6.058126 -4.030962 0
M  V30 6 C 2.159948 -5.068161 -2.923318 0
M  V30 7 C 2.484956 -3.809068 -2.977147 0
M  V30 8 C 2.389621 -3.001149 -1.780258 0
M  V30 9 O 1.995966 -3.551670 -0.741107 0
M  V30 10 N 2.716769 -1.627431 -1.721007 0
M  V30 11 C 2.682540 -0.714885 -0.663780 0
M  V30 12 C 3.063963 0.590945 -0.863281 0
M  V30 13 C 3.048098 1.521596 0.145575 0
M  V30 14 C 2.653395 1.223016 1.422186 0
M  V30 15 C 2.624203 2.179652 2.513248 0
M  V30 16 O 3.451535 1.728517 3.382130 0
M  V30 17 N 1.877240 3.382911 2.679188 0
M  V30 18 C 0.915541 4.026608 1.802730 0
M  V30 19 C 0.844608 5.487875 2.129250 0
M  V30 20 C 0.200296 5.620852 3.501595 0
M  V30 21 C 0.848409 4.676206 4.492447 0
M  V30 22 C -0.154038 3.633322 4.832030 0
M  V30 23 O -1.320552 3.683333 4.336245 0
M  V30 24 N 0.136161 2.569886 5.694378 0
M  V30 25 C -1.046439 1.695722 5.839709 0
M  V30 26 N -1.981679 1.442347 6.392372 0
M  V30 27 C -2.874628 0.505507 6.213912 0
M  V30 28 C -2.648562 -0.316696 5.182404 0
M  V30 29 S -3.405287 -1.757553 4.381353 0
M  V30 30 C -4.568631 -1.203125 3.110326 0
M  V30 31 C -3.912713 -0.505405 1.982975 0
M  V30 32 N -3.727388 0.844732 2.015416 0
M  V30 33 C -3.120515 1.181658 0.877012 0
M  V30 34 C -2.930711 0.027196 0.137238 0
M  V30 35 C -2.276551 0.115013 -1.173963 0
M  V30 36 C -2.128472 -1.216799 -1.875299 0
M  V30 37 C -0.863138 0.698041 -1.046361 0
M  V30 38 C -3.008498 1.042882 -2.115875 0
M  V30 39 O -3.427737 -0.962113 0.852418 0
M  V30 40 S -1.096800 0.331689 4.497318 0
M  V30 41 C 2.116518 4.073864 3.937005 0
M  V30 42 C 2.266365 -0.078838 1.647198 0
M  V30 43 C 2.289554 -0.997588 0.620796 0
M  V30 44 H -0.397927 -9.165323 -6.092426 0
M  V30 45 H -1.038686 -8.333830 -4.656862 0
M  V30 46 H -1.049617 -7.431601 -6.191146 0
M  V30 47 H 2.400516 -6.799383 -6.560654 0
M  V30 48 H 1.055368 -7.606408 -7.472725 0
M  V30 49 H 0.791919 -6.000830 -6.728663 0
M  V30 50 H 0.078865 -5.834728 -4.552540 0
M  V30 51 H 0.477066 -7.145875 -3.334929 0
M  V30 52 H 2.522657 -5.536211 -4.948569 0
M  V30 53 H 2.861762 -6.896564 -3.777498 0
M  V30 54 H 1.811316 -5.577516 -2.019439 0
M  V30 55 H 2.799138 -3.507199 -3.947250 0
M  V30 56 H 3.039135 -1.273832 -2.671238 0
M  V30 57 H 3.392408 0.898479 -1.865335 0
M  V30 58 H 3.362452 2.526331 -0.092359 0
M  V30 59 H 1.217697 3.958816 0.736651 0
M  V30 60 H -0.089124 3.595504 1.882415 0
M  V30 61 H 0.123014 5.955401 1.415290 0
M  V30 62 H 1.793833 6.018192 2.038051 0
M  V30 63 H 0.279064 6.658433 3.847597 0
M  V30 64 H -0.879442 5.392918 3.359942 0
M  V30 65 H 1.123801 5.246147 5.399786 0
M  V30 66 H 1.060452 2.455468 6.141505 0
M  V30 67 H -3.771522 0.299800 6.782876 0
M  V30 68 H -5.104896 -2.105679 2.709472 0
M  V30 69 H -5.348043 -0.574161 3.541423 0
M  V30 70 H -2.861150 2.209196 0.660141 0
M  V30 71 H -2.215661 -2.027515 -1.115272 0
M  V30 72 H -2.864827 -1.358245 -2.707852 0
M  V30 73 H -1.131428 -1.324254 -2.347746 0
M  V30 74 H -0.873472 1.626396 -0.466432 0
M  V30 75 H -0.526211 0.853986 -2.094978 0
M  V30 76 H -0.215632 -0.101444 -0.617347 0
M  V30 77 H -3.504753 1.886311 -1.622074 0
M  V30 78 H -2.312278 1.502644 -2.865475 0
M  V30 79 H -3.753931 0.468320 -2.692295 0
M  V30 80 H 2.561927 3.430181 4.693808 0
M  V30 81 H 2.805921 4.914068 3.692774 0
M  V30 82 H 1.946202 -0.349013 2.653392 0
M  V30 83 H 1.969871 -1.986324 0.896999 0
M  V30 END ATOM
M  V30 BEGIN BOND
M  V30 1 1 1 2
M  V30 2 1 2 3
M  V30 3 1 2 4
M  V30 4 1 4 5
M  V30 5 1 5 6
M  V30 6 2 6 7
M  V30 7 1 7 8
M  V30 8 2 8 9
M  V30 9 1 8 10
M  V30 10 1 10 11
M  V30 11 2 11 12
M  V30 12 1 12 13
M  V30 13 2 13 14
M  V30 14 1 14 15
M  V30 15 2 15 16
M  V30 16 1 15 17
M  V30 17 1 17 18
M  V30 18 1 18 19
M  V30 19 1 19 20
M  V30 20 1 20 21
M  V30 21 1 21 22
M  V30 22 2 22 23
M  V30 23 1 22 24
M  V30 24 1 24 25
M  V30 25 2 25 26
M  V30 26 1 26 27
M  V30 27 2 27 28
M  V30 28 1 28 29
M  V30 29 1 29 30
M  V30 30 1 30 31
M  V30 31 2 31 32
M  V30 32 1 32 33
M  V30 33 2 33 34
M  V30 34 1 34 35
M  V30 35 1 35 36
M  V30 36 1 35 37
M  V30 37 1 35 38
M  V30 38 1 34 39
M  V30 39 1 28 40
M  V30 40 1 21 41
M  V30 41 1 14 42
M  V30 42 2 42 43
M  V30 43 1 43 11
M  V30 44 1 41 17
M  V30 45 1 40 25
M  V30 46 1 39 31
M  V30 47 1 1 44
M  V30 48 1 1 45
M  V30 49 1 1 46
M  V30 50 1 3 47
M  V30 51 1 3 48
M  V30 52 1 3 49
M  V30 53 1 4 50
M  V30 54 1 4 51
M  V30 55 1 5 52
M  V30 56 1 5 53
M  V30 57 1 6 54
M  V30 58 1 7 55
M  V30 59 1 10 56
M  V30 60 1 12 57
M  V30 61 1 13 58
M  V30 62 1 18 59
M  V30 63 1 18 60
M  V30 64 1 19 61
M  V30 65 1 19 62
M  V30 66 1 20 63
M  V30 67 1 20 64
M  V30 68 1 21 65
M  V30 69 1 24 66
M  V30 70 1 27 67
M  V30 71 1 30 68
M  V30 72 1 30 69
M  V30 73 1 33 70
M  V30 74 1 36 71
M  V30 75 1 36 72
M  V30 76 1 36 73
M  V30 77 1 37 74
M  V30 78 1 37 75
M  V30 79 1 37 76
M  V30 80 1 38 77
M  V30 81 1 38 78
M  V30 82 1 38 79
M  V30 83 1 41 80
M  V30 84 1 41 81
M  V30 85 1 42 82
M  V30 86 1 43 83
M  V30 END BOND
M  V30 END CTAB
M  END
>  <Dataset>  (523) 
ChEMBL_Kinases

>  <Ligand_Instance>  (523) 
nan

>  <PDB_ID>  (523) 
nan

>  <Standardized_SMILES>  (523) 
CN(C)CC/C=C/C(=O)Nc1ccc(C(=O)N2CCCC(C(=O)Nc3ncc(SCc4ncc(C(C)(C)C)o4)s3)C2)cc1

>  <Name>  (523) 
nan

>  <Pocket>  (523) 
nan

>  <ATP_Site>  (523) 
nan

>  <Peripheral>  (523) 
nan

>  <Num_H_Atoms_ProtBoundConf>  (523) 
nan

>  <Num_Resolved_Atoms>  (523) 
nan

>  <Num_Not_Resolved_Atoms>  (523) 
nan

$$$$
CHEMBL4753703
     RDKit          3D

  0  0  0  0  0  0  0  0  0  0999 V3000
M  V30 BEGIN CTAB
M  V30 COUNTS 57 63 0 0 0
M  V30 BEGIN ATOM
M  V30 1 O 4.553868 -3.085326 -0.172763 0
M  V30 2 C 4.498869 -3.761156 0.910655 0
M  V30 3 N 4.790913 -3.044173 2.096863 0
M  V30 4 C 5.077877 -1.688906 1.691461 0
M  V30 5 C 6.340233 -1.229953 1.362482 0
M  V30 6 N 6.449776 0.074002 1.000016 0
M  V30 7 C 5.352293 0.872550 0.969683 0
M  V30 8 C 4.088720 0.425557 1.295708 0
M  V30 9 C 2.932629 1.335101 1.246185 0
M  V30 10 C 3.207989 2.642529 1.540725 0
M  V30 11 N 2.155315 3.492183 1.499992 0
M  V30 12 C 0.910361 3.091578 1.190974 0
M  V30 13 N -0.280907 3.703269 1.080294 0
M  V30 14 N -1.220165 2.873745 0.749452 0
M  V30 15 C -0.742326 1.626385 0.607785 0
M  V30 16 C -1.498034 0.459474 0.248881 0
M  V30 17 C -2.862402 0.512562 0.002501 0
M  V30 18 C -3.405655 -0.707183 -0.326197 0
M  V30 19 C -4.668577 -1.153657 -0.646478 0
M  V30 20 C -5.754245 -0.213311 -0.675245 0
M  V30 21 C -6.143746 0.514569 -1.803801 0
M  V30 22 C -7.199418 1.414417 -1.788332 0
M  V30 23 C -7.909357 1.612306 -0.611270 0
M  V30 24 C -7.549145 0.911650 0.511195 0
M  V30 25 C -6.495709 0.015592 0.490509 0
M  V30 26 F -6.236397 -0.616952 1.665449 0
M  V30 27 C -4.845659 -2.500502 -0.930175 0
M  V30 28 N -3.778548 -3.328605 -0.883669 0
M  V30 29 C -2.552908 -2.898243 -0.573366 0
M  V30 30 C -2.333278 -1.569191 -0.284972 0
M  V30 31 N -1.265457 -0.837865 0.051484 0
M  V30 32 C 0.593879 1.783495 0.888522 0
M  V30 33 C 1.658879 0.913781 0.927867 0
M  V30 34 C 3.943217 -0.907563 1.671796 0
M  V30 35 C 4.134204 -5.216043 0.781866 0
M  V30 36 C 2.991864 -5.490604 -0.193305 0
M  V30 37 C 4.402491 -5.851804 -0.528421 0
M  V30 38 H 4.738026 -3.626510 2.974296 0
M  V30 39 H 7.152233 -1.939959 1.416361 0
M  V30 40 H 5.536899 1.903217 0.667045 0
M  V30 41 H 4.186394 3.010180 1.793331 0
M  V30 42 H -0.480630 4.729023 1.233107 0
M  V30 43 H -3.522818 1.394806 0.042429 0
M  V30 44 H -5.579781 0.350582 -2.718927 0
M  V30 45 H -7.402863 1.913805 -2.719179 0
M  V30 46 H -8.727245 2.318265 -0.624439 0
M  V30 47 H -8.125072 1.086708 1.424414 0
M  V30 48 H -5.859891 -2.790727 -1.174704 0
M  V30 49 H -1.699057 -3.582660 -0.540169 0
M  V30 50 H -0.349539 -1.293448 0.138746 0
M  V30 51 H 1.502885 -0.125302 0.705621 0
M  V30 52 H 2.957910 -1.226832 1.918249 0
M  V30 53 H 4.087804 -5.787782 1.714006 0
M  V30 54 H 2.525401 -4.593881 -0.690790 0
M  V30 55 H 2.271074 -6.289341 0.007731 0
M  V30 56 H 4.616098 -6.916065 -0.645681 0
M  V30 57 H 4.892739 -5.221539 -1.294710 0
M  V30 END ATOM
M  V30 BEGIN BOND
M  V30 1 2 1 2
M  V30 2 1 2 3
M  V30 3 1 3 4
M  V30 4 2 4 5
M  V30 5 1 5 6
M  V30 6 2 6 7
M  V30 7 1 7 8
M  V30 8 1 8 9
M  V30 9 2 9 10
M  V30 10 1 10 11
M  V30 11 2 11 12
M  V30 12 1 12 13
M  V30 13 1 13 14
M  V30 14 2 14 15
M  V30 15 1 15 16
M  V30 16 2 16 17
M  V30 17 1 17 18
M  V30 18 2 18 19
M  V30 19 1 19 20
M  V30 20 2 20 21
M  V30 21 1 21 22
M  V30 22 2 22 23
M  V30 23 1 23 24
M  V30 24 2 24 25
M  V30 25 1 25 26
M  V30 26 1 19 27
M  V30 27 2 27 28
M  V30 28 1 28 29
M  V30 29 2 29 30
M  V30 30 1 30 31
M  V30 31 1 15 32
M  V30 32 2 32 33
M  V30 33 2 8 34
M  V30 34 1 2 35
M  V30 35 1 35 36
M  V30 36 1 36 37
M  V30 37 1 34 4
M  V30 38 1 37 35
M  V30 39 1 33 9
M  V30 40 1 32 12
M  V30 41 1 31 16
M  V30 42 1 30 18
M  V30 43 1 25 20
M  V30 44 1 3 38
M  V30 45 1 5 39
M  V30 46 1 7 40
M  V30 47 1 10 41
M  V30 48 1 13 42
M  V30 49 1 17 43
M  V30 50 1 21 44
M  V30 51 1 22 45
M  V30 52 1 23 46
M  V30 53 1 24 47
M  V30 54 1 27 48
M  V30 55 1 29 49
M  V30 56 1 31 50
M  V30 57 1 33 51
M  V30 58 1 34 52
M  V30 59 1 35 53
M  V30 60 1 36 54
M  V30 61 1 36 55
M  V30 62 1 37 56
M  V30 63 1 37 57
M  V30 END BOND
M  V30 END CTAB
M  END
>  <Dataset>  (524) 
ChEMBL_Kinases

>  <Ligand_Instance>  (524) 
nan

>  <PDB_ID>  (524) 
nan

>  <Standardized_SMILES>  (524) 
O=C(Nc1cncc(-c2cnc3[nH]nc(-c4cc5c(-c6ccccc6F)cncc5[nH]4)c3c2)c1)C1CC1

>  <Name>  (524) 
nan

>  <Pocket>  (524) 
nan

>  <ATP_Site>  (524) 
nan

>  <Peripheral>  (524) 
nan

>  <Num_H_Atoms_ProtBoundConf>  (524) 
nan

>  <Num_Resolved_Atoms>  (524) 
nan

>  <Num_Not_Resolved_Atoms>  (524) 
nan

$$$$
CHEMBL4753641
     RDKit          3D

  0  0  0  0  0  0  0  0  0  0999 V3000
M  V30 BEGIN CTAB
M  V30 COUNTS 44 47 0 0 0
M  V30 BEGIN ATOM
M  V30 1 O -0.501110 -4.220652 -0.211583 0
M  V30 2 C 0.128458 -4.212243 0.869311 0
M  V30 3 N 1.013624 -3.160361 1.263243 0
M  V30 4 C 1.199366 -2.051018 0.384079 0
M  V30 5 C 2.102516 -1.826273 -0.634833 0
M  V30 6 N 1.868951 -0.608991 -1.174649 0
M  V30 7 N 0.852525 -0.020155 -0.558132 0
M  V30 8 C 0.241846 1.247077 -0.763075 0
M  V30 9 C -0.995008 1.299177 -1.480549 0
M  V30 10 S -1.395572 3.119190 -1.496070 0
M  V30 11 C 0.026179 3.591593 -0.607324 0
M  V30 12 C 0.328916 4.971292 -0.264282 0
M  V30 13 O -0.509378 5.830479 -0.651512 0
M  V30 14 N 1.484730 5.300068 0.451586 0
M  V30 15 C 1.750511 6.678163 0.772797 0
M  V30 16 C 3.094893 7.223101 0.353218 0
M  V30 17 O 3.475301 7.184066 1.698625 0
M  V30 18 C 2.183175 6.959631 2.194509 0
M  V30 19 C 0.709453 2.466675 -0.342790 0
M  V30 20 C 0.425756 -0.884726 0.401003 0
M  V30 21 N 0.006994 -5.269139 1.803040 0
M  V30 22 C -0.781629 -6.449464 1.715281 0
M  V30 23 C -0.435720 -7.673341 1.188463 0
M  V30 24 C -1.334029 -8.716447 1.186304 0
M  V30 25 C -2.590174 -8.575108 1.702633 0
M  V30 26 C -2.987793 -7.367157 2.243649 0
M  V30 27 C -2.068929 -6.327484 2.236994 0
M  V30 28 Cl -2.667627 -4.823452 2.949440 0
M  V30 29 H 1.538541 -3.159220 2.170777 0
M  V30 30 H 2.858727 -2.555561 -0.910113 0
M  V30 31 H -1.541516 0.449058 -1.902566 0
M  V30 32 H 2.173855 4.571937 0.767291 0
M  V30 33 H 0.954795 7.345934 0.387258 0
M  V30 34 H 3.067664 8.310888 0.051310 0
M  V30 35 H 3.736257 6.575205 -0.244284 0
M  V30 36 H 2.162665 6.017579 2.808370 0
M  V30 37 H 1.681464 7.811704 2.664146 0
M  V30 38 H 1.638278 2.530779 0.208419 0
M  V30 39 H -0.396056 -0.730529 1.102219 0
M  V30 40 H 0.461523 -5.394930 2.726150 0
M  V30 41 H 0.570408 -7.718807 0.796895 0
M  V30 42 H -0.935427 -9.639796 0.737299 0
M  V30 43 H -3.225609 -9.470800 1.649875 0
M  V30 44 H -3.973909 -7.298762 2.635167 0
M  V30 END ATOM
M  V30 BEGIN BOND
M  V30 1 2 1 2
M  V30 2 1 2 3
M  V30 3 1 3 4
M  V30 4 1 4 5
M  V30 5 2 5 6
M  V30 6 1 6 7
M  V30 7 1 7 8
M  V30 8 2 8 9
M  V30 9 1 9 10
M  V30 10 1 10 11
M  V30 11 1 11 12
M  V30 12 2 12 13
M  V30 13 1 12 14
M  V30 14 1 14 15
M  V30 15 1 15 16
M  V30 16 1 16 17
M  V30 17 1 17 18
M  V30 18 2 11 19
M  V30 19 1 7 20
M  V30 20 1 2 21
M  V30 21 1 21 22
M  V30 22 2 22 23
M  V30 23 1 23 24
M  V30 24 2 24 25
M  V30 25 1 25 26
M  V30 26 2 26 27
M  V30 27 1 27 28
M  V30 28 2 20 4
M  V30 29 1 27 22
M  V30 30 1 19 8
M  V30 31 1 18 15
M  V30 32 1 3 29
M  V30 33 1 5 30
M  V30 34 1 9 31
M  V30 35 1 14 32
M  V30 36 1 15 33
M  V30 37 1 16 34
M  V30 38 1 16 35
M  V30 39 1 18 36
M  V30 40 1 18 37
M  V30 41 1 19 38
M  V30 42 1 20 39
M  V30 43 1 21 40
M  V30 44 1 23 41
M  V30 45 1 24 42
M  V30 46 1 25 43
M  V30 47 1 26 44
M  V30 END BOND
M  V30 END CTAB
M  END
>  <Dataset>  (525) 
ChEMBL_Kinases

>  <Ligand_Instance>  (525) 
nan

>  <PDB_ID>  (525) 
nan

>  <Standardized_SMILES>  (525) 
O=C(Nc1cnn(-c2csc(C(=O)NC3COC3)c2)c1)Nc1ccccc1Cl

>  <Name>  (525) 
nan

>  <Pocket>  (525) 
nan

>  <ATP_Site>  (525) 
nan

>  <Peripheral>  (525) 
nan

>  <Num_H_Atoms_ProtBoundConf>  (525) 
nan

>  <Num_Resolved_Atoms>  (525) 
nan

>  <Num_Not_Resolved_Atoms>  (525) 
nan

$$$$
CHEMBL4753494
     RDKit          3D

  0  0  0  0  0  0  0  0  0  0999 V3000
M  V30 BEGIN CTAB
M  V30 COUNTS 48 53 0 0 0
M  V30 BEGIN ATOM
M  V30 1 C -0.557187 -3.408154 3.318502 0
M  V30 2 C 0.683077 -2.836146 2.729774 0
M  V30 3 C 2.156710 -3.062385 2.822810 0
M  V30 4 C 3.296976 -3.186601 2.860922 0
M  V30 5 C 3.184047 -2.035553 2.081261 0
M  V30 6 C 4.204767 -1.132761 1.337860 0
M  V30 7 N 5.526986 -1.074138 1.426185 0
M  V30 8 C 6.141486 -0.136106 0.664209 0
M  V30 9 C 5.686383 0.807434 -0.259067 0
M  V30 10 C 4.230542 0.674391 -0.255981 0
M  V30 11 N 3.577687 1.600142 -0.905239 0
M  V30 12 C 2.264353 1.438847 -0.535938 0
M  V30 13 C 0.969099 2.009049 -0.081044 0
M  V30 14 N 1.084857 3.358034 0.312318 0
M  V30 15 N -0.046142 3.691225 0.904315 0
M  V30 16 C -0.924437 2.634040 0.915250 0
M  V30 17 C -2.258368 2.547656 1.380987 0
M  V30 18 C -2.710090 1.308718 1.021835 0
M  V30 19 C -2.190547 0.293935 0.389645 0
M  V30 20 C -3.055623 -0.653444 -0.077318 0
M  V30 21 C -4.305896 -0.117254 -0.499845 0
M  V30 22 N -5.550267 -0.407652 -1.017044 0
M  V30 23 C -5.647145 -1.691203 -1.218363 0
M  V30 24 C -4.617747 -2.661508 -0.981322 0
M  V30 25 N -4.430432 -4.028333 -1.137807 0
M  V30 26 C -3.454432 -1.957554 -0.422246 0
M  V30 27 C -0.918704 0.472997 0.035509 0
M  V30 28 C -0.218741 1.606097 0.277787 0
M  V30 29 N 2.259636 0.323217 0.303987 0
M  V30 30 C 3.562664 -0.145819 0.438508 0
M  V30 31 S 1.549665 -1.468634 1.851262 0
M  V30 32 H -1.163572 -2.542791 3.696967 0
M  V30 33 H -0.316508 -4.036247 4.228371 0
M  V30 34 H -1.208643 -3.900791 2.600497 0
M  V30 35 H 2.076066 -3.789315 3.863485 0
M  V30 36 H 4.232201 -3.595656 3.064344 0
M  V30 37 H 7.170484 -0.147535 0.946748 0
M  V30 38 H 6.332832 1.348909 -0.820544 0
M  V30 39 H 3.582072 2.411155 -1.492866 0
M  V30 40 H -0.307376 4.634251 1.240286 0
M  V30 41 H -2.616655 3.373154 1.935393 0
M  V30 42 H -3.791802 1.236598 1.413201 0
M  V30 43 H -4.386220 1.022102 -0.656188 0
M  V30 44 H -6.509456 -2.252400 -1.465941 0
M  V30 45 H -4.833769 -4.304509 -0.154306 0
M  V30 46 H -4.099070 -4.561187 -2.027429 0
M  V30 47 H -2.563598 -2.476701 -0.105721 0
M  V30 48 H -0.346136 -0.348783 -0.453285 0
M  V30 END ATOM
M  V30 BEGIN BOND
M  V30 1 1 1 2
M  V30 2 2 2 3
M  V30 3 1 3 4
M  V30 4 2 4 5
M  V30 5 1 5 6
M  V30 6 2 6 7
M  V30 7 1 7 8
M  V30 8 2 8 9
M  V30 9 1 9 10
M  V30 10 1 10 11
M  V30 11 1 11 12
M  V30 12 1 12 13
M  V30 13 2 13 14
M  V30 14 1 14 15
M  V30 15 1 15 16
M  V30 16 2 16 17
M  V30 17 1 17 18
M  V30 18 2 18 19
M  V30 19 1 19 20
M  V30 20 2 20 21
M  V30 21 1 21 22
M  V30 22 2 22 23
M  V30 23 1 23 24
M  V30 24 1 24 25
M  V30 25 2 24 26
M  V30 26 1 19 27
M  V30 27 2 27 28
M  V30 28 2 12 29
M  V30 29 1 29 30
M  V30 30 1 5 31
M  V30 31 1 31 2
M  V30 32 1 30 6
M  V30 33 2 30 10
M  V30 34 1 28 13
M  V30 35 1 28 16
M  V30 36 1 26 20
M  V30 37 1 1 32
M  V30 38 1 1 33
M  V30 39 1 1 34
M  V30 40 1 3 35
M  V30 41 1 4 36
M  V30 42 1 8 37
M  V30 43 1 9 38
M  V30 44 1 11 39
M  V30 45 1 15 40
M  V30 46 1 17 41
M  V30 47 1 18 42
M  V30 48 1 21 43
M  V30 49 1 23 44
M  V30 50 1 25 45
M  V30 51 1 25 46
M  V30 52 1 26 47
M  V30 53 1 27 48
M  V30 END BOND
M  V30 END CTAB
M  END
>  <Dataset>  (526) 
ChEMBL_Kinases

>  <Ligand_Instance>  (526) 
nan

>  <PDB_ID>  (526) 
nan

>  <Standardized_SMILES>  (526) 
Cc1ccc(-c2nccc3[nH]c(-c4n[nH]c5ccc(-c6cncc(N)c6)cc45)nc23)s1

>  <Name>  (526) 
nan

>  <Pocket>  (526) 
nan

>  <ATP_Site>  (526) 
nan

>  <Peripheral>  (526) 
nan

>  <Num_H_Atoms_ProtBoundConf>  (526) 
nan

>  <Num_Resolved_Atoms>  (526) 
nan

>  <Num_Not_Resolved_Atoms>  (526) 
nan

$$$$
CHEMBL4753492
     RDKit          3D

  0  0  0  0  0  0  0  0  0  0999 V3000
M  V30 BEGIN CTAB
M  V30 COUNTS 42 45 0 0 0
M  V30 BEGIN ATOM
M  V30 1 C -3.041626 -3.142116 1.818165 0
M  V30 2 C -2.181929 -4.245953 1.325064 0
M  V30 3 N -2.406963 -5.571806 1.313799 0
M  V30 4 N -1.344462 -6.185425 0.771618 0
M  V30 5 C -0.385899 -5.297138 0.407070 0
M  V30 6 C 0.861399 -5.382100 -0.174071 0
M  V30 7 C 1.539725 -4.193238 -0.382254 0
M  V30 8 C 1.063419 -2.943781 -0.054206 0
M  V30 9 C 1.841854 -1.732590 -0.301279 0
M  V30 10 C 3.083860 -1.721023 -0.884768 0
M  V30 11 N 3.672472 -0.512148 -1.058349 0
M  V30 12 C 3.073818 0.631678 -0.678959 0
M  V30 13 C 1.830471 0.632915 -0.093833 0
M  V30 14 N 1.140594 1.817985 0.312356 0
M  V30 15 C 1.541726 3.152612 -0.087407 0
M  V30 16 C 1.643514 3.967693 1.165315 0
M  V30 17 C 0.411733 3.980482 2.017517 0
M  V30 18 O 0.784156 3.911638 3.373563 0
M  V30 19 C -0.587884 2.929816 1.669414 0
M  V30 20 C -0.020721 1.647140 1.175208 0
M  V30 21 N 1.271499 -0.571760 0.066298 0
M  V30 22 C -0.193107 -2.918264 0.525622 0
M  V30 23 C -0.933700 -4.075266 0.765451 0
M  V30 24 H -2.765101 -2.847815 2.860784 0
M  V30 25 H -4.100344 -3.525086 1.890732 0
M  V30 26 H -2.959616 -2.225923 1.224913 0
M  V30 27 H -1.274255 -7.223561 0.646010 0
M  V30 28 H 1.247456 -6.355396 -0.437804 0
M  V30 29 H 2.506773 -4.344249 -0.839982 0
M  V30 30 H 3.545835 -2.648515 -1.181821 0
M  V30 31 H 3.609473 1.535529 -0.853587 0
M  V30 32 H 0.694656 3.594545 -0.678109 0
M  V30 33 H 2.482769 3.185266 -0.619644 0
M  V30 34 H 1.933794 5.004423 0.832506 0
M  V30 35 H 2.507748 3.585873 1.756743 0
M  V30 36 H -0.071061 4.971883 1.894848 0
M  V30 37 H 1.490805 3.254957 3.539044 0
M  V30 38 H -1.371465 3.302618 0.984362 0
M  V30 39 H -1.145577 2.670331 2.622975 0
M  V30 40 H 0.230712 0.946996 2.025491 0
M  V30 41 H -0.771533 1.089392 0.580750 0
M  V30 42 H -0.590127 -1.943162 0.792171 0
M  V30 END ATOM
M  V30 BEGIN BOND
M  V30 1 1 1 2
M  V30 2 2 2 3
M  V30 3 1 3 4
M  V30 4 1 4 5
M  V30 5 2 5 6
M  V30 6 1 6 7
M  V30 7 2 7 8
M  V30 8 1 8 9
M  V30 9 2 9 10
M  V30 10 1 10 11
M  V30 11 2 11 12
M  V30 12 1 12 13
M  V30 13 1 13 14
M  V30 14 1 14 15
M  V30 15 1 15 16
M  V30 16 1 16 17
M  V30 17 1 17 18
M  V30 18 1 17 19
M  V30 19 1 19 20
M  V30 20 2 13 21
M  V30 21 1 8 22
M  V30 22 2 22 23
M  V30 23 1 23 2
M  V30 24 1 23 5
M  V30 25 1 21 9
M  V30 26 1 20 14
M  V30 27 1 1 24
M  V30 28 1 1 25
M  V30 29 1 1 26
M  V30 30 1 4 27
M  V30 31 1 6 28
M  V30 32 1 7 29
M  V30 33 1 10 30
M  V30 34 1 12 31
M  V30 35 1 15 32
M  V30 36 1 15 33
M  V30 37 1 16 34
M  V30 38 1 16 35
M  V30 39 1 17 36
M  V30 40 1 18 37
M  V30 41 1 19 38
M  V30 42 1 19 39
M  V30 43 1 20 40
M  V30 44 1 20 41
M  V30 45 1 22 42
M  V30 END BOND
M  V30 END CTAB
M  END
>  <Dataset>  (527) 
ChEMBL_Kinases

>  <Ligand_Instance>  (527) 
nan

>  <PDB_ID>  (527) 
nan

>  <Standardized_SMILES>  (527) 
Cc1n[nH]c2ccc(-c3cncc(N4CCC(O)CC4)n3)cc12

>  <Name>  (527) 
nan

>  <Pocket>  (527) 
nan

>  <ATP_Site>  (527) 
nan

>  <Peripheral>  (527) 
nan

>  <Num_H_Atoms_ProtBoundConf>  (527) 
nan

>  <Num_Resolved_Atoms>  (527) 
nan

>  <Num_Not_Resolved_Atoms>  (527) 
nan

$$$$
CHEMBL4753467
     RDKit          3D

  0  0  0  0  0  0  0  0  0  0999 V3000
M  V30 BEGIN CTAB
M  V30 COUNTS 59 64 0 0 0
M  V30 BEGIN ATOM
M  V30 1 C 5.724794 1.160821 4.783732 0
M  V30 2 C 5.169594 2.505641 5.142981 0
M  V30 3 C 5.976854 3.081477 6.306273 0
M  V30 4 C 5.189733 3.495585 4.004472 0
M  V30 5 C 4.400142 2.990877 2.893927 0
M  V30 6 O 3.982812 1.841041 3.213619 0
M  V30 7 N 3.992109 3.416648 1.609374 0
M  V30 8 C 3.200722 2.398688 1.002973 0
M  V30 9 C 4.016764 1.547366 0.251527 0
M  V30 10 N 3.420223 0.500822 -0.397204 0
M  V30 11 C 2.072076 0.316492 -0.298123 0
M  V30 12 C 1.290277 1.169793 0.448427 0
M  V30 13 C -0.161849 0.981042 0.571600 0
M  V30 14 C -0.888211 -0.035586 -0.005727 0
M  V30 15 C -2.237397 -0.225004 0.116897 0
M  V30 16 C -3.047806 -1.197969 -0.407953 0
M  V30 17 C -2.804311 -2.342845 -1.263023 0
M  V30 18 C -3.810364 -3.204606 -1.673633 0
M  V30 19 C -3.316155 -4.199528 -2.474214 0
M  V30 20 C -3.808101 -5.287645 -3.144760 0
M  V30 21 C -5.192089 -5.602392 -3.097259 0
M  V30 22 C -5.836342 -6.648844 -3.695979 0
M  V30 23 C -7.158011 -6.890106 -3.610504 0
M  V30 24 C -7.862866 -5.867746 -2.770080 0
M  V30 25 S -6.481343 -4.715816 -2.238794 0
M  V30 26 N -2.958748 -6.047434 -3.847502 0
M  V30 27 C -1.661934 -5.882250 -3.986412 0
M  V30 28 C -1.156450 -4.795572 -3.319461 0
M  V30 29 C -1.964794 -3.961418 -2.572149 0
M  V30 30 N -1.717557 -2.862435 -1.844010 0
M  V30 31 N -4.267801 -0.832907 0.083355 0
M  V30 32 N -4.185851 0.243308 0.819285 0
M  V30 33 C -2.944810 0.695277 0.897164 0
M  V30 34 C -2.236493 1.720894 1.482773 0
M  V30 35 N -0.909502 1.847807 1.321424 0
M  V30 36 C 1.834547 2.238390 1.121893 0
M  V30 37 H 6.482949 0.790870 5.515721 0
M  V30 38 H 6.191402 1.091380 3.795518 0
M  V30 39 H 4.897905 0.403165 4.802832 0
M  V30 40 H 4.109841 2.412565 5.497135 0
M  V30 41 H 7.067848 3.001979 6.102295 0
M  V30 42 H 5.733870 4.158928 6.478999 0
M  V30 43 H 5.759918 2.486834 7.209257 0
M  V30 44 H 4.866984 4.482596 4.383213 0
M  V30 45 H 6.259336 3.594129 3.711928 0
M  V30 46 H 4.398869 4.390950 1.455363 0
M  V30 47 H 5.084819 1.619890 0.118399 0
M  V30 48 H 1.679118 -0.523748 -0.834001 0
M  V30 49 H -0.282201 -0.699953 -0.586400 0
M  V30 50 H -4.831725 -3.116220 -1.408914 0
M  V30 51 H -5.254286 -7.365765 -4.299739 0
M  V30 52 H -7.729100 -7.681861 -4.046749 0
M  V30 53 H -9.034316 -6.035196 -2.665264 0
M  V30 54 H -1.063740 -6.556494 -4.580715 0
M  V30 55 H -0.077148 -4.593165 -3.390736 0
M  V30 56 H -0.755397 -2.497676 -1.771197 0
M  V30 57 H -4.999802 0.696490 1.292093 0
M  V30 58 H -2.807851 2.413275 2.074714 0
M  V30 59 H 1.309717 2.960227 1.730892 0
M  V30 END ATOM
M  V30 BEGIN BOND
M  V30 1 1 1 2
M  V30 2 1 2 3
M  V30 3 1 2 4
M  V30 4 1 4 5
M  V30 5 2 5 6
M  V30 6 1 5 7
M  V30 7 1 7 8
M  V30 8 2 8 9
M  V30 9 1 9 10
M  V30 10 2 10 11
M  V30 11 1 11 12
M  V30 12 1 12 13
M  V30 13 2 13 14
M  V30 14 1 14 15
M  V30 15 1 15 16
M  V30 16 1 16 17
M  V30 17 2 17 18
M  V30 18 1 18 19
M  V30 19 2 19 20
M  V30 20 1 20 21
M  V30 21 2 21 22
M  V30 22 1 22 23
M  V30 23 2 23 24
M  V30 24 1 24 25
M  V30 25 1 20 26
M  V30 26 2 26 27
M  V30 27 1 27 28
M  V30 28 2 28 29
M  V30 29 1 29 30
M  V30 30 2 16 31
M  V30 31 1 31 32
M  V30 32 1 32 33
M  V30 33 1 33 34
M  V30 34 2 34 35
M  V30 35 2 12 36
M  V30 36 1 36 8
M  V30 37 1 35 13
M  V30 38 2 33 15
M  V30 39 1 30 17
M  V30 40 1 29 19
M  V30 41 1 25 21
M  V30 42 1 1 37
M  V30 43 1 1 38
M  V30 44 1 1 39
M  V30 45 1 2 40
M  V30 46 1 3 41
M  V30 47 1 3 42
M  V30 48 1 3 43
M  V30 49 1 4 44
M  V30 50 1 4 45
M  V30 51 1 7 46
M  V30 52 1 9 47
M  V30 53 1 11 48
M  V30 54 1 14 49
M  V30 55 1 18 50
M  V30 56 1 22 51
M  V30 57 1 23 52
M  V30 58 1 24 53
M  V30 59 1 27 54
M  V30 60 1 28 55
M  V30 61 1 30 56
M  V30 62 1 32 57
M  V30 63 1 34 58
M  V30 64 1 36 59
M  V30 END BOND
M  V30 END CTAB
M  END
>  <Dataset>  (528) 
ChEMBL_Kinases

>  <Ligand_Instance>  (528) 
nan

>  <PDB_ID>  (528) 
nan

>  <Standardized_SMILES>  (528) 
CC(C)CC(=O)Nc1cncc(-c2cc3c(-c4cc5c(-c6cccs6)nccc5[nH]4)n[nH]c3cn2)c1

>  <Name>  (528) 
nan

>  <Pocket>  (528) 
nan

>  <ATP_Site>  (528) 
nan

>  <Peripheral>  (528) 
nan

>  <Num_H_Atoms_ProtBoundConf>  (528) 
nan

>  <Num_Resolved_Atoms>  (528) 
nan

>  <Num_Not_Resolved_Atoms>  (528) 
nan

$$$$
CHEMBL4753382
     RDKit          3D

  0  0  0  0  0  0  0  0  0  0999 V3000
M  V30 BEGIN CTAB
M  V30 COUNTS 58 63 0 0 0
M  V30 BEGIN ATOM
M  V30 1 C 3.936139 -1.659076 6.633014 0
M  V30 2 C 4.571305 -2.093293 5.339468 0
M  V30 3 C 4.942201 -3.538849 5.408039 0
M  V30 4 C 3.601621 -1.873654 4.237911 0
M  V30 5 O 2.757069 -1.426204 5.056321 0
M  V30 6 N 3.885871 -2.180479 2.878203 0
M  V30 7 C 2.749349 -1.855677 2.054977 0
M  V30 8 C 1.761524 -2.817509 1.816832 0
M  V30 9 N 0.681805 -2.545391 1.048768 0
M  V30 10 C 0.536509 -1.309797 0.485393 0
M  V30 11 C 1.491379 -0.337913 0.699427 0
M  V30 12 C 1.269601 0.960884 0.064836 0
M  V30 13 C 2.119354 2.041317 0.172635 0
M  V30 14 C 1.869028 3.249527 -0.444721 0
M  V30 15 C 0.715123 3.389177 -1.207517 0
M  V30 16 N 0.187902 4.394284 -1.917142 0
M  V30 17 N -0.954896 3.968753 -2.456289 0
M  V30 18 C -1.178965 2.699485 -2.107086 0
M  V30 19 C -2.317847 1.881005 -2.493041 0
M  V30 20 N -2.542714 0.602735 -2.140825 0
M  V30 21 C -3.702416 0.255427 -2.720295 0
M  V30 22 C -4.334371 -0.958210 -2.643042 0
M  V30 23 C -3.783194 -2.089768 -1.870192 0
M  V30 24 C -4.133159 -2.235321 -0.528611 0
M  V30 25 C -3.585023 -3.320286 0.154427 0
M  V30 26 C -2.733212 -4.219082 -0.453623 0
M  V30 27 C -2.425410 -4.020370 -1.783487 0
M  V30 28 C -2.930882 -2.963945 -2.531930 0
M  V30 29 F -2.636151 -2.759294 -3.835810 0
M  V30 30 C -5.545592 -1.134432 -3.319793 0
M  V30 31 N -6.052482 -0.096679 -4.029450 0
M  V30 32 C -5.426853 1.091376 -4.100778 0
M  V30 33 C -4.229449 1.318013 -3.451859 0
M  V30 34 N -3.323655 2.311152 -3.276212 0
M  V30 35 C -0.127319 2.297087 -1.306353 0
M  V30 36 N 0.159544 1.118955 -0.678078 0
M  V30 37 C 2.591537 -0.617079 1.482758 0
M  V30 38 H 2.974035 -2.199503 6.805782 0
M  V30 39 H 4.619873 -1.943865 7.460272 0
M  V30 40 H 3.722903 -0.581221 6.669942 0
M  V30 41 H 5.425463 -1.419584 5.163950 0
M  V30 42 H 5.940062 -3.578606 5.929721 0
M  V30 43 H 4.264691 -4.134043 6.023699 0
M  V30 44 H 5.131398 -3.976482 4.412084 0
M  V30 45 H 4.822087 -2.565805 2.738875 0
M  V30 46 H 1.912761 -3.801973 2.287500 0
M  V30 47 H -0.370465 -1.193226 -0.116820 0
M  V30 48 H 3.015775 1.929701 0.766428 0
M  V30 49 H 2.555599 4.089415 -0.344926 0
M  V30 50 H 0.590209 5.347659 -2.035620 0
M  V30 51 H -4.803876 -1.530058 -0.044624 0
M  V30 52 H -3.828104 -3.482144 1.215107 0
M  V30 53 H -2.308007 -5.062861 0.080768 0
M  V30 54 H -1.757743 -4.683295 -2.348248 0
M  V30 55 H -6.066708 -2.095321 -3.271396 0
M  V30 56 H -5.790379 1.947660 -4.652710 0
M  V30 57 H -3.499359 3.244269 -3.742191 0
M  V30 58 H 3.331124 0.124565 1.652799 0
M  V30 END ATOM
M  V30 BEGIN BOND
M  V30 1 1 1 2
M  V30 2 1 2 3
M  V30 3 1 2 4
M  V30 4 2 4 5
M  V30 5 1 4 6
M  V30 6 1 6 7
M  V30 7 2 7 8
M  V30 8 1 8 9
M  V30 9 2 9 10
M  V30 10 1 10 11
M  V30 11 1 11 12
M  V30 12 2 12 13
M  V30 13 1 13 14
M  V30 14 2 14 15
M  V30 15 1 15 16
M  V30 16 1 16 17
M  V30 17 2 17 18
M  V30 18 1 18 19
M  V30 19 2 19 20
M  V30 20 1 20 21
M  V30 21 2 21 22
M  V30 22 1 22 23
M  V30 23 2 23 24
M  V30 24 1 24 25
M  V30 25 2 25 26
M  V30 26 1 26 27
M  V30 27 2 27 28
M  V30 28 1 28 29
M  V30 29 1 22 30
M  V30 30 2 30 31
M  V30 31 1 31 32
M  V30 32 2 32 33
M  V30 33 1 33 34
M  V30 34 1 18 35
M  V30 35 2 35 36
M  V30 36 2 11 37
M  V30 37 1 37 7
M  V30 38 1 36 12
M  V30 39 1 35 15
M  V30 40 1 34 19
M  V30 41 1 33 21
M  V30 42 1 28 23
M  V30 43 1 1 38
M  V30 44 1 1 39
M  V30 45 1 1 40
M  V30 46 1 2 41
M  V30 47 1 3 42
M  V30 48 1 3 43
M  V30 49 1 3 44
M  V30 50 1 6 45
M  V30 51 1 8 46
M  V30 52 1 10 47
M  V30 53 1 13 48
M  V30 54 1 14 49
M  V30 55 1 16 50
M  V30 56 1 24 51
M  V30 57 1 25 52
M  V30 58 1 26 53
M  V30 59 1 27 54
M  V30 60 1 30 55
M  V30 61 1 32 56
M  V30 62 1 34 57
M  V30 63 1 37 58
M  V30 END BOND
M  V30 END CTAB
M  END
>  <Dataset>  (529) 
ChEMBL_Kinases

>  <Ligand_Instance>  (529) 
nan

>  <PDB_ID>  (529) 
nan

>  <Standardized_SMILES>  (529) 
CC(C)C(=O)Nc1cncc(-c2ccc3[nH]nc(-c4nc5c(-c6ccccc6F)cncc5[nH]4)c3n2)c1

>  <Name>  (529) 
nan

>  <Pocket>  (529) 
nan

>  <ATP_Site>  (529) 
nan

>  <Peripheral>  (529) 
nan

>  <Num_H_Atoms_ProtBoundConf>  (529) 
nan

>  <Num_Resolved_Atoms>  (529) 
nan

>  <Num_Not_Resolved_Atoms>  (529) 
nan

$$$$
CHEMBL4753378
     RDKit          3D

  0  0  0  0  0  0  0  0  0  0999 V3000
M  V30 BEGIN CTAB
M  V30 COUNTS 48 52 0 0 0
M  V30 BEGIN ATOM
M  V30 1 C 1.411587 -3.595754 3.619896 0
M  V30 2 C 1.259928 -4.634425 2.550226 0
M  V30 3 N 1.259450 -4.194170 1.221939 0
M  V30 4 C 2.448281 -3.717149 0.643837 0
M  V30 5 C 2.988646 -2.522026 1.313592 0
M  V30 6 C 3.966759 -2.362901 2.290541 0
M  V30 7 N 4.307333 -1.158774 2.768029 0
M  V30 8 C 3.714336 -0.022890 2.324474 0
M  V30 9 C 2.731854 -0.079325 1.356487 0
M  V30 10 C 2.080949 1.140244 0.875903 0
M  V30 11 C 2.754087 2.352857 0.808701 0
M  V30 12 C 2.081064 3.491189 0.350118 0
M  V30 13 C 0.775474 3.390907 -0.023065 0
M  V30 14 N -0.134000 4.259495 -0.488406 0
M  V30 15 N -1.294920 3.681438 -0.708783 0
M  V30 16 C -1.242184 2.352988 -0.398611 0
M  V30 17 C -2.334149 1.413264 -0.512979 0
M  V30 18 C -3.588638 1.814200 -0.975960 0
M  V30 19 C -4.477164 0.770548 -1.012099 0
M  V30 20 C -5.793865 0.559952 -1.359727 0
M  V30 21 N -6.398381 -0.637856 -1.277390 0
M  V30 22 C -5.697853 -1.722277 -0.829646 0
M  V30 23 C -4.375402 -1.553105 -0.471191 0
M  V30 24 C -3.761888 -0.325324 -0.557437 0
M  V30 25 N -2.531094 0.113831 -0.285985 0
M  V30 26 C 0.052723 2.200399 0.023498 0
M  V30 27 C 0.759312 1.123287 0.478461 0
M  V30 28 C 2.384327 -1.339812 0.864235 0
M  V30 29 H 2.355565 -3.705347 4.216162 0
M  V30 30 H 0.528556 -3.747556 4.321426 0
M  V30 31 H 1.301269 -2.565057 3.238238 0
M  V30 32 H 0.316383 -5.236094 2.705338 0
M  V30 33 H 2.148252 -5.329684 2.669281 0
M  V30 34 H 0.482694 -4.458108 0.608520 0
M  V30 35 H 3.229882 -4.554852 0.696316 0
M  V30 36 H 2.368843 -3.554523 -0.465056 0
M  V30 37 H 4.382913 -3.324492 2.582654 0
M  V30 38 H 4.043111 0.913930 2.757341 0
M  V30 39 H 3.796684 2.420894 1.109560 0
M  V30 40 H 2.576818 4.459007 0.282892 0
M  V30 41 H -0.031276 5.272997 -0.681753 0
M  V30 42 H -3.921843 2.798686 -1.292868 0
M  V30 43 H -6.340673 1.431404 -1.714677 0
M  V30 44 H -6.097566 -2.733471 -0.726661 0
M  V30 45 H -3.800499 -2.399011 -0.114793 0
M  V30 46 H -1.817633 -0.518626 0.066677 0
M  V30 47 H 0.274614 0.167864 0.546556 0
M  V30 48 H 1.601360 -1.303984 0.100916 0
M  V30 END ATOM
M  V30 BEGIN BOND
M  V30 1 1 1 2
M  V30 2 1 2 3
M  V30 3 1 3 4
M  V30 4 1 4 5
M  V30 5 2 5 6
M  V30 6 1 6 7
M  V30 7 2 7 8
M  V30 8 1 8 9
M  V30 9 1 9 10
M  V30 10 2 10 11
M  V30 11 1 11 12
M  V30 12 2 12 13
M  V30 13 1 13 14
M  V30 14 1 14 15
M  V30 15 2 15 16
M  V30 16 1 16 17
M  V30 17 2 17 18
M  V30 18 1 18 19
M  V30 19 2 19 20
M  V30 20 1 20 21
M  V30 21 2 21 22
M  V30 22 1 22 23
M  V30 23 2 23 24
M  V30 24 1 24 25
M  V30 25 1 16 26
M  V30 26 2 26 27
M  V30 27 2 9 28
M  V30 28 1 28 5
M  V30 29 1 27 10
M  V30 30 1 26 13
M  V30 31 1 25 17
M  V30 32 1 24 19
M  V30 33 1 1 29
M  V30 34 1 1 30
M  V30 35 1 1 31
M  V30 36 1 2 32
M  V30 37 1 2 33
M  V30 38 1 3 34
M  V30 39 1 4 35
M  V30 40 1 4 36
M  V30 41 1 6 37
M  V30 42 1 8 38
M  V30 43 1 11 39
M  V30 44 1 12 40
M  V30 45 1 14 41
M  V30 46 1 18 42
M  V30 47 1 20 43
M  V30 48 1 22 44
M  V30 49 1 23 45
M  V30 50 1 25 46
M  V30 51 1 27 47
M  V30 52 1 28 48
M  V30 END BOND
M  V30 END CTAB
M  END
>  <Dataset>  (530) 
ChEMBL_Kinases

>  <Ligand_Instance>  (530) 
nan

>  <PDB_ID>  (530) 
nan

>  <Standardized_SMILES>  (530) 
CCNCc1cncc(-c2ccc3[nH]nc(-c4cc5cnccc5[nH]4)c3c2)c1

>  <Name>  (530) 
nan

>  <Pocket>  (530) 
nan

>  <ATP_Site>  (530) 
nan

>  <Peripheral>  (530) 
nan

>  <Num_H_Atoms_ProtBoundConf>  (530) 
nan

>  <Num_Resolved_Atoms>  (530) 
nan

>  <Num_Not_Resolved_Atoms>  (530) 
nan

$$$$
CHEMBL4753350
     RDKit          3D

  0  0  0  0  0  0  0  0  0  0999 V3000
M  V30 BEGIN CTAB
M  V30 COUNTS 67 70 0 0 0
M  V30 BEGIN ATOM
M  V30 1 C 4.730113 -1.870904 6.288207 0
M  V30 2 C 5.870736 -1.787185 5.623401 0
M  V30 3 C 5.094983 -0.692574 5.086087 0
M  V30 4 O 3.927499 -0.427425 5.467740 0
M  V30 5 N 5.599300 0.156680 4.089384 0
M  V30 6 C 4.939386 1.271008 3.462780 0
M  V30 7 C 4.277552 0.799871 2.334225 0
M  V30 8 C 3.550189 1.663411 1.529619 0
M  V30 9 C 3.482169 3.010855 1.853667 0
M  V30 10 C 2.713841 3.900699 0.999242 0
M  V30 11 O 3.053322 4.449809 -0.082286 0
M  V30 12 N 1.366232 4.238108 1.392360 0
M  V30 13 C 0.626950 5.104099 0.545253 0
M  V30 14 C -0.822514 5.196528 0.792564 0
M  V30 15 C -1.514908 3.988373 1.314898 0
M  V30 16 C -0.645515 3.055551 2.119429 0
M  V30 17 N -0.312872 1.918222 1.325466 0
M  V30 18 C -1.421241 1.099680 0.916865 0
M  V30 19 N -2.603663 1.003765 0.993197 0
M  V30 20 C -3.291241 0.023742 0.444280 0
M  V30 21 C -2.731996 -0.940880 -0.241435 0
M  V30 22 C -2.960324 -2.187154 -0.997777 0
M  V30 23 C -4.169355 -2.656698 -1.133089 0
M  V30 24 C -4.401266 -3.894938 -1.882666 0
M  V30 25 N -5.539388 -4.574385 -2.160100 0
M  V30 26 C -5.282402 -5.675285 -2.887201 0
M  V30 27 C -3.914632 -5.654684 -3.054585 0
M  V30 28 C -3.174336 -6.716983 -3.819621 0
M  V30 29 C -4.108692 -7.746273 -4.345694 0
M  V30 30 C -2.136917 -7.377870 -2.934169 0
M  V30 31 C -2.437539 -6.072812 -4.975756 0
M  V30 32 O -3.453601 -4.603307 -2.453735 0
M  V30 33 S -0.922293 -0.398359 -0.106010 0
M  V30 34 C 0.587032 3.860469 2.521510 0
M  V30 35 C 4.149952 3.442211 2.977596 0
M  V30 36 C 4.875363 2.608606 3.789285 0
M  V30 37 H 4.784875 -2.707067 6.975173 0
M  V30 38 H 4.719768 -2.690333 6.994605 0
M  V30 39 H 6.869260 -1.984975 5.275631 0
M  V30 40 H 6.551174 0.058696 3.682421 0
M  V30 41 H 4.236475 -0.225536 1.950280 0
M  V30 42 H 3.007985 1.344801 0.629677 0
M  V30 43 H 1.112625 6.119496 0.604398 0
M  V30 44 H 0.815962 4.791398 -0.518818 0
M  V30 45 H -1.354850 5.557235 -0.108592 0
M  V30 46 H -0.995137 6.013467 1.553530 0
M  V30 47 H -2.422299 4.255965 1.921278 0
M  V30 48 H -1.895515 3.410729 0.434035 0
M  V30 49 H -1.196757 2.783864 3.052841 0
M  V30 50 H 0.696279 1.771845 1.106193 0
M  V30 51 H -4.373351 -0.114202 0.482452 0
M  V30 52 H -2.160394 -2.743525 -1.456419 0
M  V30 53 H -4.961699 -2.089444 -0.670506 0
M  V30 54 H -6.041474 -6.362047 -3.219561 0
M  V30 55 H -3.607972 -8.279291 -5.182330 0
M  V30 56 H -5.045544 -7.333182 -4.768637 0
M  V30 57 H -4.281677 -8.508328 -3.553583 0
M  V30 58 H -1.300044 -7.741585 -3.563774 0
M  V30 59 H -2.574212 -8.302427 -2.481208 0
M  V30 60 H -1.722722 -6.691439 -2.178388 0
M  V30 61 H -2.306610 -6.807899 -5.795113 0
M  V30 62 H -3.048774 -5.231695 -5.408530 0
M  V30 63 H -1.443624 -5.656733 -4.683321 0
M  V30 64 H 1.197516 3.281569 3.264488 0
M  V30 65 H 0.200113 4.765019 3.031726 0
M  V30 66 H 4.125495 4.481579 3.270728 0
M  V30 67 H 5.425967 2.819860 4.671168 0
M  V30 END ATOM
M  V30 BEGIN BOND
M  V30 1 2 1 2
M  V30 2 1 2 3
M  V30 3 2 3 4
M  V30 4 1 3 5
M  V30 5 1 5 6
M  V30 6 2 6 7
M  V30 7 1 7 8
M  V30 8 2 8 9
M  V30 9 1 9 10
M  V30 10 2 10 11
M  V30 11 1 10 12
M  V30 12 1 12 13
M  V30 13 1 13 14
M  V30 14 1 14 15
M  V30 15 1 15 16
M  V30 16 1 16 17
M  V30 17 1 17 18
M  V30 18 2 18 19
M  V30 19 1 19 20
M  V30 20 2 20 21
M  V30 21 1 21 22
M  V30 22 2 22 23
M  V30 23 1 23 24
M  V30 24 2 24 25
M  V30 25 1 25 26
M  V30 26 2 26 27
M  V30 27 1 27 28
M  V30 28 1 28 29
M  V30 29 1 28 30
M  V30 30 1 28 31
M  V30 31 1 27 32
M  V30 32 1 21 33
M  V30 33 1 16 34
M  V30 34 1 9 35
M  V30 35 2 35 36
M  V30 36 1 36 6
M  V30 37 1 34 12
M  V30 38 1 33 18
M  V30 39 1 32 24
M  V30 40 1 1 37
M  V30 41 1 1 38
M  V30 42 1 2 39
M  V30 43 1 5 40
M  V30 44 1 7 41
M  V30 45 1 8 42
M  V30 46 1 13 43
M  V30 47 1 13 44
M  V30 48 1 14 45
M  V30 49 1 14 46
M  V30 50 1 15 47
M  V30 51 1 15 48
M  V30 52 1 16 49
M  V30 53 1 17 50
M  V30 54 1 20 51
M  V30 55 1 22 52
M  V30 56 1 23 53
M  V30 57 1 26 54
M  V30 58 1 29 55
M  V30 59 1 29 56
M  V30 60 1 29 57
M  V30 61 1 30 58
M  V30 62 1 30 59
M  V30 63 1 30 60
M  V30 64 1 31 61
M  V30 65 1 31 62
M  V30 66 1 31 63
M  V30 67 1 34 64
M  V30 68 1 34 65
M  V30 69 1 35 66
M  V30 70 1 36 67
M  V30 END BOND
M  V30 END CTAB
M  END
>  <Dataset>  (531) 
ChEMBL_Kinases

>  <Ligand_Instance>  (531) 
nan

>  <PDB_ID>  (531) 
nan

>  <Standardized_SMILES>  (531) 
C=CC(=O)Nc1ccc(C(=O)N2CCCC(Nc3ncc(/C=C/c4ncc(C(C)(C)C)o4)s3)C2)cc1

>  <Name>  (531) 
nan

>  <Pocket>  (531) 
nan

>  <ATP_Site>  (531) 
nan

>  <Peripheral>  (531) 
nan

>  <Num_H_Atoms_ProtBoundConf>  (531) 
nan

>  <Num_Resolved_Atoms>  (531) 
nan

>  <Num_Not_Resolved_Atoms>  (531) 
nan

$$$$
CHEMBL4753319
     RDKit          3D

  0  0  0  0  0  0  0  0  0  0999 V3000
M  V30 BEGIN CTAB
M  V30 COUNTS 46 51 0 0 0
M  V30 BEGIN ATOM
M  V30 1 O 2.855684 -3.411986 2.591007 0
M  V30 2 C 3.524511 -2.205808 2.422359 0
M  V30 3 C 4.836158 -2.167527 2.849311 0
M  V30 4 N 5.541595 -1.038038 2.717898 0
M  V30 5 C 4.985766 0.068932 2.171281 0
M  V30 6 C 3.679414 0.084006 1.728733 0
M  V30 7 C 3.015385 1.236161 1.131140 0
M  V30 8 C 3.632385 2.453801 0.941364 0
M  V30 9 C 3.032174 3.562207 0.379380 0
M  V30 10 C 1.723011 3.469517 -0.029019 0
M  V30 11 N 0.861355 4.315337 -0.593073 0
M  V30 12 N -0.304420 3.676092 -0.775461 0
M  V30 13 C -0.173851 2.416280 -0.321519 0
M  V30 14 C -1.257752 1.441895 -0.367333 0
M  V30 15 N -1.280145 0.160934 0.042277 0
M  V30 16 C -2.491275 -0.356145 -0.195047 0
M  V30 17 C -3.121569 -1.568960 -0.011255 0
M  V30 18 C -2.377449 -2.663413 0.594414 0
M  V30 19 C -2.524389 -3.900055 -0.041473 0
M  V30 20 C -1.886255 -5.046942 0.403936 0
M  V30 21 C -1.069608 -4.992182 1.514994 0
M  V30 22 C -0.941181 -3.776738 2.118599 0
M  V30 23 F -0.156768 -3.639367 3.215945 0
M  V30 24 C -1.559071 -2.617235 1.704735 0
M  V30 25 C -4.434884 -1.827949 -0.366846 0
M  V30 26 N -5.143122 -0.829795 -0.929109 0
M  V30 27 C -4.598142 0.393532 -1.144901 0
M  V30 28 C -3.273524 0.623254 -0.775996 0
M  V30 29 N -2.475302 1.719903 -0.865708 0
M  V30 30 C 1.113756 2.249796 0.164032 0
M  V30 31 N 1.723839 1.184804 0.715186 0
M  V30 32 C 2.948873 -1.078939 1.862626 0
M  V30 33 H 2.520869 -3.566315 3.554614 0
M  V30 34 H 5.355685 -3.021779 3.301484 0
M  V30 35 H 5.569220 0.973314 2.072296 0
M  V30 36 H 4.657395 2.590427 1.240265 0
M  V30 37 H 3.537167 4.502963 0.242241 0
M  V30 38 H 1.105826 5.299865 -0.831747 0
M  V30 39 H -3.143571 -4.039106 -0.918531 0
M  V30 40 H -2.008798 -6.000472 -0.098726 0
M  V30 41 H -0.567142 -5.880989 1.870781 0
M  V30 42 H -1.482195 -1.648487 2.151760 0
M  V30 43 H -4.917157 -2.777123 -0.219316 0
M  V30 44 H -5.192829 1.188720 -1.603032 0
M  V30 45 H -2.859287 2.617778 -1.286694 0
M  V30 46 H 1.907916 -1.220638 1.560030 0
M  V30 END ATOM
M  V30 BEGIN BOND
M  V30 1 1 1 2
M  V30 2 2 2 3
M  V30 3 1 3 4
M  V30 4 2 4 5
M  V30 5 1 5 6
M  V30 6 1 6 7
M  V30 7 2 7 8
M  V30 8 1 8 9
M  V30 9 2 9 10
M  V30 10 1 10 11
M  V30 11 1 11 12
M  V30 12 2 12 13
M  V30 13 1 13 14
M  V30 14 2 14 15
M  V30 15 1 15 16
M  V30 16 2 16 17
M  V30 17 1 17 18
M  V30 18 2 18 19
M  V30 19 1 19 20
M  V30 20 2 20 21
M  V30 21 1 21 22
M  V30 22 1 22 23
M  V30 23 2 22 24
M  V30 24 1 17 25
M  V30 25 2 25 26
M  V30 26 1 26 27
M  V30 27 2 27 28
M  V30 28 1 28 29
M  V30 29 1 13 30
M  V30 30 2 30 31
M  V30 31 2 6 32
M  V30 32 1 32 2
M  V30 33 1 31 7
M  V30 34 1 30 10
M  V30 35 1 29 14
M  V30 36 1 28 16
M  V30 37 1 24 18
M  V30 38 1 1 33
M  V30 39 1 3 34
M  V30 40 1 5 35
M  V30 41 1 8 36
M  V30 42 1 9 37
M  V30 43 1 11 38
M  V30 44 1 19 39
M  V30 45 1 20 40
M  V30 46 1 21 41
M  V30 47 1 24 42
M  V30 48 1 25 43
M  V30 49 1 27 44
M  V30 50 1 29 45
M  V30 51 1 32 46
M  V30 END BOND
M  V30 END CTAB
M  END
>  <Dataset>  (532) 
ChEMBL_Kinases

>  <Ligand_Instance>  (532) 
nan

>  <PDB_ID>  (532) 
nan

>  <Standardized_SMILES>  (532) 
Oc1cncc(-c2ccc3[nH]nc(-c4nc5c(-c6cccc(F)c6)cncc5[nH]4)c3n2)c1

>  <Name>  (532) 
nan

>  <Pocket>  (532) 
nan

>  <ATP_Site>  (532) 
nan

>  <Peripheral>  (532) 
nan

>  <Num_H_Atoms_ProtBoundConf>  (532) 
nan

>  <Num_Resolved_Atoms>  (532) 
nan

>  <Num_Not_Resolved_Atoms>  (532) 
nan

$$$$
CHEMBL4753310
     RDKit          3D

  0  0  0  0  0  0  0  0  0  0999 V3000
M  V30 BEGIN CTAB
M  V30 COUNTS 47 50 0 0 0
M  V30 BEGIN ATOM
M  V30 1 O -0.539801 -4.342076 0.595210 0
M  V30 2 C 0.368813 -5.092242 1.027873 0
M  V30 3 N 1.686233 -4.582157 0.880035 0
M  V30 4 C 1.734742 -3.279982 0.251949 0
M  V30 5 C 1.836720 -2.909058 -1.087702 0
M  V30 6 N 1.836764 -1.562942 -1.077716 0
M  V30 7 N 1.741677 -1.120937 0.177640 0
M  V30 8 C 1.718292 0.267303 0.496120 0
M  V30 9 C 2.534967 0.718078 1.550035 0
M  V30 10 S 2.197276 2.561894 1.619431 0
M  V30 11 C 1.035582 2.518026 0.268913 0
M  V30 12 C 0.322906 3.674030 -0.265272 0
M  V30 13 O -0.491150 3.652930 -1.209257 0
M  V30 14 N 0.569462 4.936739 0.333237 0
M  V30 15 C -0.126790 6.086626 -0.183528 0 CFG=2
M  V30 16 C 0.945718 7.119526 -0.505086 0
M  V30 17 C 0.989130 7.931397 0.792968 0
M  V30 18 O 0.238461 7.211671 1.727841 0
M  V30 19 C -0.859645 6.821426 0.943022 0
M  V30 20 C 0.981732 1.250664 -0.108550 0
M  V30 21 C 1.674380 -2.138728 1.055660 0
M  V30 22 N 0.033474 -6.322166 1.599220 0
M  V30 23 C -1.238585 -6.914236 1.790272 0
M  V30 24 C -2.460862 -6.391102 1.444023 0
M  V30 25 C -3.669260 -6.989790 1.643105 0
M  V30 26 C -3.700284 -8.230370 2.242663 0
M  V30 27 C -2.503143 -8.793769 2.606549 0
M  V30 28 C -1.304925 -8.151679 2.385638 0
M  V30 29 Cl 0.170628 -8.949058 2.884108 0
M  V30 30 H 2.489697 -5.177469 1.229614 0
M  V30 31 H 1.895617 -3.654622 -1.868979 0
M  V30 32 H 3.236815 0.052825 2.193853 0
M  V30 33 H 1.221578 5.119029 1.130587 0
M  V30 34 H -0.802446 5.876053 -1.015059 0
M  V30 35 H 0.694041 7.755986 -1.363781 0
M  V30 36 H 1.941785 6.655610 -0.685096 0
M  V30 37 H 2.017794 8.067459 1.134003 0
M  V30 38 H 0.463046 8.887019 0.574672 0
M  V30 39 H -1.302271 7.731554 0.529195 0
M  V30 40 H -1.556499 6.149623 1.468518 0
M  V30 41 H 0.319240 0.963665 -0.943914 0
M  V30 42 H 1.592673 -2.065276 2.131945 0
M  V30 43 H 0.885352 -6.832918 1.911461 0
M  V30 44 H -2.497116 -5.422990 0.971573 0
M  V30 45 H -4.595310 -6.540888 1.355257 0
M  V30 46 H -4.647757 -8.724238 2.410622 0
M  V30 47 H -2.488666 -9.764711 3.078719 0
M  V30 END ATOM
M  V30 BEGIN BOND
M  V30 1 2 1 2
M  V30 2 1 2 3
M  V30 3 1 3 4
M  V30 4 1 4 5
M  V30 5 2 5 6
M  V30 6 1 6 7
M  V30 7 1 7 8
M  V30 8 2 8 9
M  V30 9 1 9 10
M  V30 10 1 10 11
M  V30 11 1 11 12
M  V30 12 2 12 13
M  V30 13 1 12 14
M  V30 14 1 14 15
M  V30 15 1 15 16
M  V30 16 1 16 17
M  V30 17 1 17 18
M  V30 18 1 18 19
M  V30 19 2 11 20
M  V30 20 1 7 21
M  V30 21 1 2 22
M  V30 22 1 22 23
M  V30 23 2 23 24
M  V30 24 1 24 25
M  V30 25 2 25 26
M  V30 26 1 26 27
M  V30 27 2 27 28
M  V30 28 1 28 29
M  V30 29 2 21 4
M  V30 30 1 28 23
M  V30 31 1 20 8
M  V30 32 1 19 15
M  V30 33 1 3 30
M  V30 34 1 5 31
M  V30 35 1 9 32
M  V30 36 1 14 33
M  V30 37 1 15 34 CFG=3
M  V30 38 1 16 35
M  V30 39 1 16 36
M  V30 40 1 17 37
M  V30 41 1 17 38
M  V30 42 1 19 39
M  V30 43 1 19 40
M  V30 44 1 20 41
M  V30 45 1 21 42
M  V30 46 1 22 43
M  V30 47 1 24 44
M  V30 48 1 25 45
M  V30 49 1 26 46
M  V30 50 1 27 47
M  V30 END BOND
M  V30 END CTAB
M  END
>  <Dataset>  (533) 
ChEMBL_Kinases

>  <Ligand_Instance>  (533) 
nan

>  <PDB_ID>  (533) 
nan

>  <Standardized_SMILES>  (533) 
O=C(Nc1cnn(-c2csc(C(=O)N[C@@H]3CCOC3)c2)c1)Nc1ccccc1Cl

>  <Name>  (533) 
nan

>  <Pocket>  (533) 
nan

>  <ATP_Site>  (533) 
nan

>  <Peripheral>  (533) 
nan

>  <Num_H_Atoms_ProtBoundConf>  (533) 
nan

>  <Num_Resolved_Atoms>  (533) 
nan

>  <Num_Not_Resolved_Atoms>  (533) 
nan

$$$$
CHEMBL4753208
     RDKit          3D

  0  0  0  0  0  0  0  0  0  0999 V3000
M  V30 BEGIN CTAB
M  V30 COUNTS 57 63 0 0 0
M  V30 BEGIN ATOM
M  V30 1 O 4.432686 -4.219012 0.176015 0
M  V30 2 C 4.285006 -4.301038 1.423681 0
M  V30 3 N 4.544327 -3.107682 2.157210 0
M  V30 4 C 4.935676 -2.008286 1.309067 0
M  V30 5 C 6.245794 -1.739298 0.974464 0
M  V30 6 N 6.523401 -0.692461 0.176835 0
M  V30 7 C 5.515879 0.095069 -0.295917 0
M  V30 8 C 4.189650 -0.121613 0.001968 0
M  V30 9 C 3.197371 0.786451 -0.560863 0
M  V30 10 C 1.844571 0.666715 -0.331411 0
M  V30 11 C 0.915633 1.523385 -0.863158 0
M  V30 12 C -0.450933 1.574001 -0.757348 0
M  V30 13 C -1.392739 0.739343 -0.046059 0
M  V30 14 C -2.763469 0.994502 -0.090037 0
M  V30 15 C -3.477111 0.089379 0.649370 0
M  V30 16 C -4.804459 -0.125951 0.943600 0
M  V30 17 C -5.816458 0.763864 0.392780 0
M  V30 18 C -5.870705 2.140229 0.330932 0
M  V30 19 C -6.947183 2.753132 -0.255842 0
M  V30 20 C -8.011864 2.071709 -0.805054 0
M  V30 21 F -9.056464 2.724373 -1.375857 0
M  V30 22 C -7.965020 0.695013 -0.746872 0
M  V30 23 C -6.890748 0.062594 -0.160922 0
M  V30 24 N -5.196504 -1.149101 1.732388 0
M  V30 25 C -4.279831 -1.977793 2.244525 0
M  V30 26 C -2.939763 -1.804578 1.980178 0
M  V30 27 C -2.538328 -0.761794 1.175843 0
M  V30 28 N -1.351800 -0.324004 0.730330 0
M  V30 29 N -0.751430 2.651838 -1.517227 0
M  V30 30 N 0.329308 3.197920 -2.031211 0
M  V30 31 C 1.412647 2.534556 -1.657530 0
M  V30 32 C 2.765390 2.645942 -1.880844 0
M  V30 33 N 3.640648 1.772068 -1.330852 0
M  V30 34 C 3.936230 -1.201531 0.821355 0
M  V30 35 C 3.861897 -5.612352 1.998683 0
M  V30 36 C 2.896476 -6.373358 1.073555 0
M  V30 37 C 4.294493 -6.848983 1.307415 0
M  V30 38 H 4.414044 -3.198938 3.205227 0
M  V30 39 H 7.008598 -2.401970 1.381151 0
M  V30 40 H 5.878396 0.897901 -0.923296 0
M  V30 41 H 1.543013 -0.144086 0.295402 0
M  V30 42 H -3.284169 1.790082 -0.623199 0
M  V30 43 H -5.017408 2.607827 0.777935 0
M  V30 44 H -6.945668 3.835452 -0.281203 0
M  V30 45 H -8.804825 0.169308 -1.180264 0
M  V30 46 H -6.979565 -1.029347 -0.181693 0
M  V30 47 H -4.512221 -2.830025 2.891887 0
M  V30 48 H -2.189205 -2.462576 2.384644 0
M  V30 49 H -0.487169 -0.820140 1.004146 0
M  V30 50 H 0.282535 4.041884 -2.645928 0
M  V30 51 H 3.092087 3.465702 -2.516862 0
M  V30 52 H 2.920455 -1.404531 1.076716 0
M  V30 53 H 3.726295 -5.710947 3.079708 0
M  V30 54 H 2.046456 -6.893918 1.552574 0
M  V30 55 H 2.702544 -5.980634 0.073814 0
M  V30 56 H 4.338381 -7.802361 1.881778 0
M  V30 57 H 5.067165 -6.755684 0.545364 0
M  V30 END ATOM
M  V30 BEGIN BOND
M  V30 1 2 1 2
M  V30 2 1 2 3
M  V30 3 1 3 4
M  V30 4 2 4 5
M  V30 5 1 5 6
M  V30 6 2 6 7
M  V30 7 1 7 8
M  V30 8 1 8 9
M  V30 9 2 9 10
M  V30 10 1 10 11
M  V30 11 1 11 12
M  V30 12 1 12 13
M  V30 13 2 13 14
M  V30 14 1 14 15
M  V30 15 2 15 16
M  V30 16 1 16 17
M  V30 17 2 17 18
M  V30 18 1 18 19
M  V30 19 2 19 20
M  V30 20 1 20 21
M  V30 21 1 20 22
M  V30 22 2 22 23
M  V30 23 1 16 24
M  V30 24 2 24 25
M  V30 25 1 25 26
M  V30 26 2 26 27
M  V30 27 1 27 28
M  V30 28 2 12 29
M  V30 29 1 29 30
M  V30 30 1 30 31
M  V30 31 1 31 32
M  V30 32 2 32 33
M  V30 33 2 8 34
M  V30 34 1 2 35
M  V30 35 1 35 36
M  V30 36 1 36 37
M  V30 37 1 34 4
M  V30 38 1 37 35
M  V30 39 1 33 9
M  V30 40 2 31 11
M  V30 41 1 28 13
M  V30 42 1 27 15
M  V30 43 1 23 17
M  V30 44 1 3 38
M  V30 45 1 5 39
M  V30 46 1 7 40
M  V30 47 1 10 41
M  V30 48 1 14 42
M  V30 49 1 18 43
M  V30 50 1 19 44
M  V30 51 1 22 45
M  V30 52 1 23 46
M  V30 53 1 25 47
M  V30 54 1 26 48
M  V30 55 1 28 49
M  V30 56 1 30 50
M  V30 57 1 32 51
M  V30 58 1 34 52
M  V30 59 1 35 53
M  V30 60 1 36 54
M  V30 61 1 36 55
M  V30 62 1 37 56
M  V30 63 1 37 57
M  V30 END BOND
M  V30 END CTAB
M  END
>  <Dataset>  (534) 
ChEMBL_Kinases

>  <Ligand_Instance>  (534) 
nan

>  <PDB_ID>  (534) 
nan

>  <Standardized_SMILES>  (534) 
O=C(Nc1cncc(-c2cc3c(-c4cc5c(-c6ccc(F)cc6)nccc5[nH]4)n[nH]c3cn2)c1)C1CC1

>  <Name>  (534) 
nan

>  <Pocket>  (534) 
nan

>  <ATP_Site>  (534) 
nan

>  <Peripheral>  (534) 
nan

>  <Num_H_Atoms_ProtBoundConf>  (534) 
nan

>  <Num_Resolved_Atoms>  (534) 
nan

>  <Num_Not_Resolved_Atoms>  (534) 
nan

$$$$
CHEMBL255421
     RDKit          3D

  0  0  0  0  0  0  0  0  0  0999 V3000
M  V30 BEGIN CTAB
M  V30 COUNTS 29 30 0 0 0
M  V30 BEGIN ATOM
M  V30 1 C -3.167962 -2.360228 2.807929 0
M  V30 2 O -1.855511 -2.753252 2.506980 0
M  V30 3 C -0.862586 -1.917039 2.011769 0
M  V30 4 C -1.181523 -0.565109 1.791825 0
M  V30 5 C -0.189112 0.252941 1.301310 0
M  V30 6 C 1.105625 -0.162124 1.007039 0
M  V30 7 C 2.068807 0.788554 0.455585 0
M  V30 8 C 1.595655 1.497648 -0.547954 0
M  V30 9 S -0.083218 1.327020 -1.203799 0
M  V30 10 C -0.017313 2.740404 -2.296479 0
M  V30 11 O -0.997391 3.204346 -2.922130 0
M  V30 12 N 1.342819 3.180177 -2.281887 0
M  V30 13 C 2.179326 2.529708 -1.368970 0
M  V30 14 O 3.418428 2.821596 -1.247783 0
M  V30 15 C 1.359985 -1.494966 1.242365 0
M  V30 16 C 0.407006 -2.363335 1.733011 0
M  V30 17 O 0.615433 -3.686044 1.978564 0
M  V30 18 C 1.813711 -4.392156 1.779069 0
M  V30 19 H -3.787962 -2.185505 1.912464 0
M  V30 20 H -3.604145 -3.205099 3.416104 0
M  V30 21 H -3.080294 -1.451771 3.461878 0
M  V30 22 H -2.190797 -0.256584 2.024206 0
M  V30 23 H -0.562662 1.279805 1.193960 0
M  V30 24 H 3.103976 0.980666 0.763302 0
M  V30 25 H 1.618436 3.942852 -2.938650 0
M  V30 26 H 2.356736 -1.838519 1.027191 0
M  V30 27 H 2.589958 -3.825217 1.247126 0
M  V30 28 H 2.194506 -4.888303 2.696855 0
M  V30 29 H 1.532967 -5.252865 1.097814 0
M  V30 END ATOM
M  V30 BEGIN BOND
M  V30 1 1 1 2
M  V30 2 1 2 3
M  V30 3 2 3 4
M  V30 4 1 4 5
M  V30 5 2 5 6
M  V30 6 1 6 7
M  V30 7 2 7 8
M  V30 8 1 8 9
M  V30 9 1 9 10
M  V30 10 2 10 11
M  V30 11 1 10 12
M  V30 12 1 12 13
M  V30 13 2 13 14
M  V30 14 1 6 15
M  V30 15 2 15 16
M  V30 16 1 16 17
M  V30 17 1 17 18
M  V30 18 1 16 3
M  V30 19 1 13 8
M  V30 20 1 1 19
M  V30 21 1 1 20
M  V30 22 1 1 21
M  V30 23 1 4 22
M  V30 24 1 5 23
M  V30 25 1 7 24
M  V30 26 1 12 25
M  V30 27 1 15 26
M  V30 28 1 18 27
M  V30 29 1 18 28
M  V30 30 1 18 29
M  V30 END BOND
M  V30 END CTAB
M  END
>  <Dataset>  (535) 
ChEMBL_Kinases

>  <Ligand_Instance>  (535) 
nan

>  <PDB_ID>  (535) 
nan

>  <Standardized_SMILES>  (535) 
COc1ccc(/C=C2\SC(=O)NC2=O)cc1OC

>  <Name>  (535) 
nan

>  <Pocket>  (535) 
nan

>  <ATP_Site>  (535) 
nan

>  <Peripheral>  (535) 
nan

>  <Num_H_Atoms_ProtBoundConf>  (535) 
nan

>  <Num_Resolved_Atoms>  (535) 
nan

>  <Num_Not_Resolved_Atoms>  (535) 
nan

$$$$
CHEMBL4752327
     RDKit          3D

  0  0  0  0  0  0  0  0  0  0999 V3000
M  V30 BEGIN CTAB
M  V30 COUNTS 67 71 0 0 0
M  V30 BEGIN ATOM
M  V30 1 O 1.218354 -1.029825 2.784039 0
M  V30 2 C 1.073388 -1.441294 3.976252 0
M  V30 3 N 1.484427 -0.455628 4.922235 0
M  V30 4 C 1.940054 0.710192 4.203695 0
M  V30 5 C 3.263686 0.852756 3.829028 0
M  V30 6 C 3.571384 2.029170 3.137954 0
M  V30 7 C 2.581918 2.944530 2.878191 0
M  V30 8 O 3.073574 4.043774 2.186136 0
M  V30 9 C 2.227263 5.113209 1.811688 0
M  V30 10 C 2.258612 5.177481 0.294414 0
M  V30 11 O 3.589908 5.404717 -0.101553 0
M  V30 12 C 2.722240 6.442360 2.331235 0
M  V30 13 O 2.801095 6.461820 3.721421 0
M  V30 14 N 1.309273 2.776109 3.254954 0
M  V30 15 C 0.953482 1.650960 3.929713 0
M  V30 16 C 0.553121 -2.754426 4.345742 0
M  V30 17 N 0.328674 -3.369885 5.539390 0
M  V30 18 N -0.158290 -4.572840 5.337463 0
M  V30 19 C -0.275045 -4.801074 4.017363 0
M  V30 20 C -0.726020 -5.888491 3.274268 0
M  V30 21 C -0.737046 -5.849663 1.885609 0
M  V30 22 C -0.289439 -4.703326 1.219128 0
M  V30 23 C -0.294773 -4.644054 -0.245437 0
M  V30 24 C -0.099621 -5.744026 -1.057652 0
M  V30 25 N -0.114402 -5.636081 -2.396923 0
M  V30 26 C -0.315701 -4.475652 -3.012473 0
M  V30 27 C -0.520812 -3.316993 -2.293883 0
M  V30 28 C -0.762095 -1.938739 -2.797364 0
M  V30 29 N -2.167608 -1.745626 -2.934260 0
M  V30 30 C -2.820110 -2.630959 -3.832093 0
M  V30 31 C -4.327145 -2.509874 -3.561546 0
M  V30 32 C -4.744503 -1.131904 -3.959903 0
M  V30 33 C -3.594119 -0.180861 -4.105011 0
M  V30 34 C -2.561839 -0.364321 -3.041224 0
M  V30 35 C -0.504782 -3.433194 -0.916061 0
M  V30 36 C 0.141202 -3.668543 2.001738 0
M  V30 37 C 0.169618 -3.663682 3.380627 0
M  V30 38 H 1.408248 -0.687707 5.955384 0
M  V30 39 H 3.956407 0.077412 4.081857 0
M  V30 40 H 4.617176 2.107338 2.859905 0
M  V30 41 H 1.187263 4.988121 2.111895 0
M  V30 42 H 1.569104 5.951279 -0.108915 0
M  V30 43 H 1.992418 4.165098 -0.074402 0
M  V30 44 H 3.653488 5.534333 -1.080926 0
M  V30 45 H 3.711798 6.699253 1.861135 0
M  V30 46 H 1.996952 7.210833 1.993954 0
M  V30 47 H 2.466016 5.608171 4.108302 0
M  V30 48 H -0.071552 1.506165 4.238004 0
M  V30 49 H -0.432960 -5.290397 6.037631 0
M  V30 50 H -1.081123 -6.796653 3.770379 0
M  V30 51 H -1.084497 -6.686696 1.294655 0
M  V30 52 H 0.066466 -6.700144 -0.571573 0
M  V30 53 H -0.338735 -4.320241 -4.100968 0
M  V30 54 H -0.301710 -1.784638 -3.798454 0
M  V30 55 H -0.284664 -1.186896 -2.140658 0
M  V30 56 H -2.576363 -3.666847 -3.541960 0
M  V30 57 H -2.615118 -2.442345 -4.900441 0
M  V30 58 H -4.899533 -3.328940 -4.038613 0
M  V30 59 H -4.441968 -2.610925 -2.445023 0
M  V30 60 H -5.250600 -1.202017 -4.951859 0
M  V30 61 H -5.499961 -0.705188 -3.238931 0
M  V30 62 H -3.086171 -0.295667 -5.097585 0
M  V30 63 H -4.008462 0.857278 -3.998635 0
M  V30 64 H -1.706540 0.307057 -3.255335 0
M  V30 65 H -3.005520 -0.081818 -2.059700 0
M  V30 66 H -0.656257 -2.581573 -0.254111 0
M  V30 67 H 0.479238 -2.799976 1.442865 0
M  V30 END ATOM
M  V30 BEGIN BOND
M  V30 1 2 1 2
M  V30 2 1 2 3
M  V30 3 1 3 4
M  V30 4 2 4 5
M  V30 5 1 5 6
M  V30 6 2 6 7
M  V30 7 1 7 8
M  V30 8 1 8 9
M  V30 9 1 9 10
M  V30 10 1 10 11
M  V30 11 1 9 12
M  V30 12 1 12 13
M  V30 13 1 7 14
M  V30 14 2 14 15
M  V30 15 1 2 16
M  V30 16 2 16 17
M  V30 17 1 17 18
M  V30 18 1 18 19
M  V30 19 2 19 20
M  V30 20 1 20 21
M  V30 21 2 21 22
M  V30 22 1 22 23
M  V30 23 2 23 24
M  V30 24 1 24 25
M  V30 25 2 25 26
M  V30 26 1 26 27
M  V30 27 1 27 28
M  V30 28 1 28 29
M  V30 29 1 29 30
M  V30 30 1 30 31
M  V30 31 1 31 32
M  V30 32 1 32 33
M  V30 33 1 33 34
M  V30 34 2 27 35
M  V30 35 1 22 36
M  V30 36 2 36 37
M  V30 37 1 15 4
M  V30 38 1 37 16
M  V30 39 1 37 19
M  V30 40 1 35 23
M  V30 41 1 34 29
M  V30 42 1 3 38
M  V30 43 1 5 39
M  V30 44 1 6 40
M  V30 45 1 9 41
M  V30 46 1 10 42
M  V30 47 1 10 43
M  V30 48 1 11 44
M  V30 49 1 12 45
M  V30 50 1 12 46
M  V30 51 1 13 47
M  V30 52 1 15 48
M  V30 53 1 18 49
M  V30 54 1 20 50
M  V30 55 1 21 51
M  V30 56 1 24 52
M  V30 57 1 26 53
M  V30 58 1 28 54
M  V30 59 1 28 55
M  V30 60 1 30 56
M  V30 61 1 30 57
M  V30 62 1 31 58
M  V30 63 1 31 59
M  V30 64 1 32 60
M  V30 65 1 32 61
M  V30 66 1 33 62
M  V30 67 1 33 63
M  V30 68 1 34 64
M  V30 69 1 34 65
M  V30 70 1 35 66
M  V30 71 1 36 67
M  V30 END BOND
M  V30 END CTAB
M  END
>  <Dataset>  (536) 
ChEMBL_Kinases

>  <Ligand_Instance>  (536) 
nan

>  <PDB_ID>  (536) 
nan

>  <Standardized_SMILES>  (536) 
O=C(Nc1ccc(OC(CO)CO)nc1)c1n[nH]c2ccc(-c3cncc(CN4CCCCC4)c3)cc12

>  <Name>  (536) 
nan

>  <Pocket>  (536) 
nan

>  <ATP_Site>  (536) 
nan

>  <Peripheral>  (536) 
nan

>  <Num_H_Atoms_ProtBoundConf>  (536) 
nan

>  <Num_Resolved_Atoms>  (536) 
nan

>  <Num_Not_Resolved_Atoms>  (536) 
nan

$$$$
CHEMBL4753134
     RDKit          3D

  0  0  0  0  0  0  0  0  0  0999 V3000
M  V30 BEGIN CTAB
M  V30 COUNTS 54 60 0 0 0
M  V30 BEGIN ATOM
M  V30 1 O 2.179475 -1.996148 0.079280 0
M  V30 2 C 2.980847 -2.613323 -0.657924 0
M  V30 3 C 4.285168 -2.166077 -0.166376 0
M  V30 4 C 4.128103 -1.215901 0.984000 0
M  V30 5 C 3.395970 0.015893 0.689584 0
M  V30 6 C 3.934350 0.703307 -0.372759 0
M  V30 7 C 3.373493 1.914262 -0.796887 0
M  V30 8 C 2.257222 2.334033 -0.059862 0
M  V30 9 C 1.699561 1.642268 1.023942 0
M  V30 10 C 2.295208 0.462371 1.389820 0
M  V30 11 C 0.562839 2.281000 1.614911 0
M  V30 12 C 0.857216 3.604729 1.975673 0
M  V30 13 N -0.000880 4.493966 2.561668 0
M  V30 14 C -1.258703 4.093602 2.832655 0
M  V30 15 C -1.566015 2.787611 2.481866 0
M  V30 16 N -2.736539 2.130983 2.631272 0
M  V30 17 C -2.591005 0.873927 2.147335 0
M  V30 18 N -1.329593 0.754284 1.699163 0
M  V30 19 C -0.701008 1.895200 1.892736 0
M  V30 20 C -3.566139 -0.207728 2.079165 0
M  V30 21 N -4.742503 -0.345012 2.721695 0
M  V30 22 N -5.330659 -1.477390 2.375872 0
M  V30 23 C -4.542412 -2.112145 1.489695 0
M  V30 24 C -4.692365 -3.314809 0.828579 0
M  V30 25 C -3.714817 -3.762109 -0.056548 0
M  V30 26 C -2.631271 -2.924566 -0.201619 0
M  V30 27 C -2.485085 -1.723183 0.460593 0
M  V30 28 C -3.455523 -1.314395 1.316963 0
M  V30 29 C -1.571177 -3.346418 -1.112537 0
M  V30 30 C -1.882880 -3.990031 -2.289449 0
M  V30 31 N -0.880542 -4.363635 -3.107867 0
M  V30 32 C 0.425747 -4.118178 -2.794563 0
M  V30 33 C 0.665749 -3.472668 -1.605521 0
M  V30 34 C -0.279193 -3.061567 -0.723054 0
M  V30 35 N 2.052591 -3.305268 -1.442696 0
M  V30 36 H 4.944073 -1.767399 -0.966319 0
M  V30 37 H 4.820257 -3.052771 0.229739 0
M  V30 38 H 5.083085 -1.043249 1.487024 0
M  V30 39 H 3.501245 -1.774248 1.742487 0
M  V30 40 H 4.793940 0.408722 -0.963034 0
M  V30 41 H 3.734620 2.502028 -1.610134 0
M  V30 42 H 1.822512 3.289957 -0.398644 0
M  V30 43 H 1.938284 -0.140296 2.210170 0
M  V30 44 H 1.833099 4.076930 1.817352 0
M  V30 45 H -1.978425 4.748406 3.292791 0
M  V30 46 H -3.614707 2.551034 3.060596 0
M  V30 47 H -6.264633 -1.831979 2.731922 0
M  V30 48 H -5.550985 -3.958147 0.956463 0
M  V30 49 H -3.732029 -4.691434 -0.630044 0
M  V30 50 H -1.606098 -1.118935 0.294671 0
M  V30 51 H -2.935200 -4.152505 -2.474103 0
M  V30 52 H 1.126869 -4.468519 -3.534525 0
M  V30 53 H -0.049615 -2.568231 0.182733 0
M  V30 54 H 2.889437 -3.689705 -1.909251 0
M  V30 END ATOM
M  V30 BEGIN BOND
M  V30 1 2 1 2
M  V30 2 1 2 3
M  V30 3 1 3 4
M  V30 4 1 4 5
M  V30 5 1 5 6
M  V30 6 2 6 7
M  V30 7 1 7 8
M  V30 8 2 8 9
M  V30 9 1 9 10
M  V30 10 1 9 11
M  V30 11 1 11 12
M  V30 12 2 12 13
M  V30 13 1 13 14
M  V30 14 2 14 15
M  V30 15 1 15 16
M  V30 16 1 16 17
M  V30 17 2 17 18
M  V30 18 1 18 19
M  V30 19 1 17 20
M  V30 20 2 20 21
M  V30 21 1 21 22
M  V30 22 1 22 23
M  V30 23 2 23 24
M  V30 24 1 24 25
M  V30 25 2 25 26
M  V30 26 1 26 27
M  V30 27 2 27 28
M  V30 28 1 26 29
M  V30 29 1 29 30
M  V30 30 2 30 31
M  V30 31 1 31 32
M  V30 32 2 32 33
M  V30 33 1 33 34
M  V30 34 1 33 35
M  V30 35 1 35 2
M  V30 36 2 10 5
M  V30 37 2 19 11
M  V30 38 1 28 20
M  V30 39 2 34 29
M  V30 40 1 19 15
M  V30 41 1 28 23
M  V30 42 1 3 36
M  V30 43 1 3 37
M  V30 44 1 4 38
M  V30 45 1 4 39
M  V30 46 1 6 40
M  V30 47 1 7 41
M  V30 48 1 8 42
M  V30 49 1 10 43
M  V30 50 1 12 44
M  V30 51 1 14 45
M  V30 52 1 16 46
M  V30 53 1 22 47
M  V30 54 1 24 48
M  V30 55 1 25 49
M  V30 56 1 27 50
M  V30 57 1 30 51
M  V30 58 1 32 52
M  V30 59 1 34 53
M  V30 60 1 35 54
M  V30 END BOND
M  V30 END CTAB
M  END
>  <Dataset>  (537) 
ChEMBL_Kinases

>  <Ligand_Instance>  (537) 
nan

>  <PDB_ID>  (537) 
nan

>  <Standardized_SMILES>  (537) 
O=C1CCc2cccc(c2)-c2cncc3[nH]c(nc23)-c2n[nH]c3ccc(cc23)-c2cncc(c2)N1

>  <Name>  (537) 
nan

>  <Pocket>  (537) 
nan

>  <ATP_Site>  (537) 
nan

>  <Peripheral>  (537) 
nan

>  <Num_H_Atoms_ProtBoundConf>  (537) 
nan

>  <Num_Resolved_Atoms>  (537) 
nan

>  <Num_Not_Resolved_Atoms>  (537) 
nan

$$$$
CHEMBL4436576
     RDKit          3D

  0  0  0  0  0  0  0  0  0  0999 V3000
M  V30 BEGIN CTAB
M  V30 COUNTS 44 46 0 0 0
M  V30 BEGIN ATOM
M  V30 1 C -4.149979 -1.706968 5.351598 0
M  V30 2 C -3.128652 -1.034989 4.507533 0
M  V30 3 C -2.423647 0.076928 4.919951 0
M  V30 4 C -1.493280 0.622518 4.061961 0
M  V30 5 C -1.215810 0.129263 2.807960 0
M  V30 6 C -0.214442 0.767942 1.977755 0
M  V30 7 C 0.556178 1.858095 2.255916 0
M  V30 8 C 1.500671 2.426140 1.432567 0
M  V30 9 N 2.178093 3.507147 1.858764 0
M  V30 10 C 3.119292 4.085973 1.053968 0
M  V30 11 C 3.298421 3.486890 -0.173184 0
M  V30 12 N 2.618944 2.410527 -0.589187 0
M  V30 13 C 1.691608 1.829530 0.188103 0
M  V30 14 C 0.898768 0.710224 -0.094581 0
M  V30 15 N 1.262197 0.262591 -1.382355 0
M  V30 16 C 1.621331 -0.185576 -2.663542 0
M  V30 17 C 2.135368 -1.603624 -2.787862 0
M  V30 18 C 1.122578 -2.617725 -2.332161 0
M  V30 19 C 1.738320 -4.014330 -2.503309 0
M  V30 20 N 2.930747 -4.101818 -1.703134 0
M  V30 21 N 0.002944 0.227071 0.769707 0
M  V30 22 C -1.923961 -0.979979 2.404470 0
M  V30 23 C -2.870029 -1.548331 3.256316 0
M  V30 24 H -3.806834 -2.752263 5.505961 0
M  V30 25 H -4.157074 -1.266429 6.384294 0
M  V30 26 H -5.165138 -1.691120 4.917977 0
M  V30 27 H -2.614680 0.483996 5.885849 0
M  V30 28 H -0.948487 1.478163 4.376872 0
M  V30 29 H 0.414503 2.318733 3.205946 0
M  V30 30 H 3.639677 4.949269 1.432377 0
M  V30 31 H 4.034956 3.917798 -0.837028 0
M  V30 32 H 0.567767 -0.554819 -1.438919 0
M  V30 33 H 2.508648 0.488981 -2.972266 0
M  V30 34 H 0.864101 -0.034296 -3.485718 0
M  V30 35 H 2.323651 -1.808691 -3.858276 0
M  V30 36 H 3.059789 -1.789559 -2.232978 0
M  V30 37 H 0.900838 -2.551323 -1.227381 0
M  V30 38 H 0.170899 -2.552832 -2.889955 0
M  V30 39 H 0.993467 -4.806456 -2.295339 0
M  V30 40 H 2.084468 -4.038310 -3.578410 0
M  V30 41 H 3.618579 -4.774730 -2.135012 0
M  V30 42 H 2.749314 -4.467966 -0.727867 0
M  V30 43 H -1.727436 -1.400757 1.405501 0
M  V30 44 H -3.368782 -2.425707 2.824705 0
M  V30 END ATOM
M  V30 BEGIN BOND
M  V30 1 1 1 2
M  V30 2 2 2 3
M  V30 3 1 3 4
M  V30 4 2 4 5
M  V30 5 1 5 6
M  V30 6 2 6 7
M  V30 7 1 7 8
M  V30 8 2 8 9
M  V30 9 1 9 10
M  V30 10 2 10 11
M  V30 11 1 11 12
M  V30 12 2 12 13
M  V30 13 1 13 14
M  V30 14 1 14 15
M  V30 15 1 15 16
M  V30 16 1 16 17
M  V30 17 1 17 18
M  V30 18 1 18 19
M  V30 19 1 19 20
M  V30 20 2 14 21
M  V30 21 1 5 22
M  V30 22 2 22 23
M  V30 23 1 23 2
M  V30 24 1 21 6
M  V30 25 1 13 8
M  V30 26 1 1 24
M  V30 27 1 1 25
M  V30 28 1 1 26
M  V30 29 1 3 27
M  V30 30 1 4 28
M  V30 31 1 7 29
M  V30 32 1 10 30
M  V30 33 1 11 31
M  V30 34 1 15 32
M  V30 35 1 16 33
M  V30 36 1 16 34
M  V30 37 1 17 35
M  V30 38 1 17 36
M  V30 39 1 18 37
M  V30 40 1 18 38
M  V30 41 1 19 39
M  V30 42 1 19 40
M  V30 43 1 20 41
M  V30 44 1 20 42
M  V30 45 1 22 43
M  V30 46 1 23 44
M  V30 END BOND
M  V30 END CTAB
M  END
>  <Dataset>  (538) 
ChEMBL_Kinases

>  <Ligand_Instance>  (538) 
nan

>  <PDB_ID>  (538) 
nan

>  <Standardized_SMILES>  (538) 
Cc1ccc(-c2cc3nccnc3c(NCCCCN)n2)cc1

>  <Name>  (538) 
nan

>  <Pocket>  (538) 
nan

>  <ATP_Site>  (538) 
nan

>  <Peripheral>  (538) 
nan

>  <Num_H_Atoms_ProtBoundConf>  (538) 
nan

>  <Num_Resolved_Atoms>  (538) 
nan

>  <Num_Not_Resolved_Atoms>  (538) 
nan

$$$$
CHEMBL254443
     RDKit          3D

  0  0  0  0  0  0  0  0  0  0999 V3000
M  V30 BEGIN CTAB
M  V30 COUNTS 41 44 0 0 0
M  V30 BEGIN ATOM
M  V30 1 C -0.429973 -4.112204 -1.507620 0
M  V30 2 O 0.604427 -3.231737 -1.169898 0
M  V30 3 C 1.758462 -3.745976 -0.596978 0
M  V30 4 C 1.905093 -5.102039 -0.355217 0
M  V30 5 C 3.061724 -5.591516 0.215352 0
M  V30 6 C 4.112704 -4.756748 0.566271 0
M  V30 7 C 3.898336 -3.438844 0.299884 0
M  V30 8 C 2.771127 -2.845263 -0.271404 0
M  V30 9 N 2.708862 -1.441575 -0.484007 0
M  V30 10 C 1.799382 -0.476718 0.027281 0
M  V30 11 C 0.805773 -0.877228 0.893695 0
M  V30 12 C -0.057390 0.098643 1.364407 0
M  V30 13 C 0.108041 1.422209 0.952522 0
M  V30 14 C -0.580971 2.583535 1.246775 0
M  V30 15 C -1.738839 2.741643 2.123056 0
M  V30 16 C -1.720630 3.808740 3.005569 0
M  V30 17 C -2.762533 4.070303 3.894025 0
M  V30 18 C -3.826222 3.187769 3.837740 0
M  V30 19 C -3.880387 2.113908 2.972642 0
M  V30 20 C -2.818510 1.879537 2.094142 0
M  V30 21 N 0.023253 3.567249 0.562306 0
M  V30 22 N 1.042970 3.109266 -0.141717 0
M  V30 23 C 1.118359 1.781616 0.081792 0
M  V30 24 C 2.002949 0.814880 -0.407747 0
M  V30 25 H -0.678666 -4.833510 -0.689155 0
M  V30 26 H -1.371838 -3.537171 -1.728387 0
M  V30 27 H -0.215600 -4.734670 -2.405381 0
M  V30 28 H 1.116342 -5.798656 -0.609420 0
M  V30 29 H 3.150876 -6.661557 0.394518 0
M  V30 30 H 5.021353 -5.091129 1.007895 0
M  V30 31 H 4.700077 -2.737203 0.559085 0
M  V30 32 H 3.501850 -1.240179 -1.122834 0
M  V30 33 H 0.659178 -1.894662 1.226581 0
M  V30 34 H -0.854785 -0.153433 2.044927 0
M  V30 35 H -0.862914 4.490061 3.025517 0
M  V30 36 H -2.750286 4.897262 4.579076 0
M  V30 37 H -4.652829 3.381742 4.531268 0
M  V30 38 H -4.747629 1.446922 2.970799 0
M  V30 39 H -2.831443 1.051954 1.408975 0
M  V30 40 H 1.678760 3.666282 -0.760118 0
M  V30 41 H 2.784381 1.092449 -1.081138 0
M  V30 END ATOM
M  V30 BEGIN BOND
M  V30 1 1 1 2
M  V30 2 1 2 3
M  V30 3 2 3 4
M  V30 4 1 4 5
M  V30 5 2 5 6
M  V30 6 1 6 7
M  V30 7 2 7 8
M  V30 8 1 8 9
M  V30 9 1 9 10
M  V30 10 2 10 11
M  V30 11 1 11 12
M  V30 12 2 12 13
M  V30 13 1 13 14
M  V30 14 1 14 15
M  V30 15 2 15 16
M  V30 16 1 16 17
M  V30 17 2 17 18
M  V30 18 1 18 19
M  V30 19 2 19 20
M  V30 20 2 14 21
M  V30 21 1 21 22
M  V30 22 1 22 23
M  V30 23 2 23 24
M  V30 24 1 8 3
M  V30 25 1 24 10
M  V30 26 1 23 13
M  V30 27 1 20 15
M  V30 28 1 1 25
M  V30 29 1 1 26
M  V30 30 1 1 27
M  V30 31 1 4 28
M  V30 32 1 5 29
M  V30 33 1 6 30
M  V30 34 1 7 31
M  V30 35 1 9 32
M  V30 36 1 11 33
M  V30 37 1 12 34
M  V30 38 1 16 35
M  V30 39 1 17 36
M  V30 40 1 18 37
M  V30 41 1 19 38
M  V30 42 1 20 39
M  V30 43 1 22 40
M  V30 44 1 24 41
M  V30 END BOND
M  V30 END CTAB
M  END
>  <Dataset>  (539) 
ChEMBL_Kinases

>  <Ligand_Instance>  (539) 
nan

>  <PDB_ID>  (539) 
nan

>  <Standardized_SMILES>  (539) 
COc1ccccc1Nc1ccc2c(-c3ccccc3)n[nH]c2c1

>  <Name>  (539) 
nan

>  <Pocket>  (539) 
nan

>  <ATP_Site>  (539) 
nan

>  <Peripheral>  (539) 
nan

>  <Num_H_Atoms_ProtBoundConf>  (539) 
nan

>  <Num_Resolved_Atoms>  (539) 
nan

>  <Num_Not_Resolved_Atoms>  (539) 
nan

$$$$
CHEMBL4752989
     RDKit          3D

  0  0  0  0  0  0  0  0  0  0999 V3000
M  V30 BEGIN CTAB
M  V30 COUNTS 78 81 0 0 0
M  V30 BEGIN ATOM
M  V30 1 C 1.099658 -2.662288 4.590421 0
M  V30 2 N 2.185454 -3.344644 3.995018 0
M  V30 3 C 2.210420 -4.728299 4.187219 0
M  V30 4 C 3.379867 -2.584311 4.013641 0
M  V30 5 C 3.183939 -1.449322 3.055171 0
M  V30 6 C 3.970513 -1.238845 1.990451 0
M  V30 7 C 3.933287 -0.199279 0.946592 0
M  V30 8 O 4.782390 -0.140279 0.020628 0
M  V30 9 N 2.944601 0.784072 0.921491 0
M  V30 10 C 2.699595 1.863962 0.037787 0
M  V30 11 C 3.511289 2.296504 -0.979995 0
M  V30 12 C 3.204454 3.314981 -1.825166 0
M  V30 13 C 2.024092 4.005436 -1.720512 0
M  V30 14 C 1.132410 3.633573 -0.709677 0
M  V30 15 C -0.208122 4.056446 -0.283331 0
M  V30 16 O -0.358697 4.695681 0.813942 0
M  V30 17 N -1.309158 3.724304 -1.108743 0
M  V30 18 C -1.410839 3.075243 -2.421070 0
M  V30 19 C -1.972216 1.708676 -2.209745 0
M  V30 20 C -3.312328 1.824401 -1.514958 0
M  V30 21 C -3.085994 2.565470 -0.189408 0
M  V30 22 N -4.199913 2.310702 0.630284 0
M  V30 23 C -4.232261 0.936880 1.123649 0
M  V30 24 N -4.962709 0.252862 1.782863 0
M  V30 25 C -4.764166 -0.989891 2.145278 0
M  V30 26 C -3.542967 -1.634112 1.725525 0
M  V30 27 S -3.444579 -3.384739 2.337574 0
M  V30 28 C -1.816386 -4.021880 2.009222 0
M  V30 29 C -1.448651 -4.185692 0.589002 0
M  V30 30 N -1.704106 -5.270359 -0.182816 0
M  V30 31 C -1.199000 -5.034545 -1.420615 0
M  V30 32 C -0.628061 -3.776764 -1.386630 0
M  V30 33 C 0.025855 -3.211752 -2.605782 0
M  V30 34 C -1.004096 -2.468745 -3.391472 0
M  V30 35 C 1.128524 -2.221178 -2.212826 0
M  V30 36 C 0.730690 -4.299233 -3.394050 0
M  V30 37 O -0.809924 -3.321378 -0.164281 0
M  V30 38 S -2.760278 -0.218909 0.760802 0
M  V30 39 C -2.669950 3.950716 -0.519550 0
M  V30 40 C 1.493563 2.571514 0.146134 0
M  V30 41 H 1.392513 -2.458594 5.668811 0
M  V30 42 H 0.903604 -1.659764 4.133128 0
M  V30 43 H 0.151498 -3.250711 4.567575 0
M  V30 44 H 1.255511 -5.056285 4.691002 0
M  V30 45 H 3.089565 -5.035686 4.789950 0
M  V30 46 H 2.197306 -5.223733 3.176217 0
M  V30 47 H 3.636568 -2.252167 5.032428 0
M  V30 48 H 4.216925 -3.240064 3.659509 0
M  V30 49 H 2.402716 -0.714269 3.134807 0
M  V30 50 H 4.776999 -1.981440 1.895878 0
M  V30 51 H 2.271097 0.672511 1.736004 0
M  V30 52 H 4.458281 1.800817 -1.126736 0
M  V30 53 H 3.808713 3.682755 -2.626476 0
M  V30 54 H 1.559732 4.818269 -2.239241 0
M  V30 55 H -0.440950 3.087948 -2.954382 0
M  V30 56 H -2.146405 3.661776 -3.000506 0
M  V30 57 H -2.135788 1.193553 -3.187560 0
M  V30 58 H -1.328166 1.064453 -1.577988 0
M  V30 59 H -3.801875 0.868491 -1.335362 0
M  V30 60 H -3.947145 2.460253 -2.175459 0
M  V30 61 H -2.163795 2.064175 0.267296 0
M  V30 62 H -5.019095 2.819593 1.005571 0
M  V30 63 H -5.616795 -1.339511 2.753258 0
M  V30 64 H -1.047628 -3.365741 2.524784 0
M  V30 65 H -1.744014 -5.013844 2.548203 0
M  V30 66 H -1.264441 -5.726305 -2.219875 0
M  V30 67 H -0.693826 -1.404450 -3.583530 0
M  V30 68 H -1.103982 -3.007283 -4.367207 0
M  V30 69 H -2.007815 -2.416479 -2.929568 0
M  V30 70 H 1.358645 -1.535412 -3.023527 0
M  V30 71 H 0.789967 -1.762780 -1.275448 0
M  V30 72 H 2.083595 -2.753337 -1.975117 0
M  V30 73 H 1.294342 -3.792706 -4.209424 0
M  V30 74 H 1.509846 -4.700063 -2.682594 0
M  V30 75 H 0.072840 -5.065762 -3.802958 0
M  V30 76 H -3.274892 4.351681 -1.344707 0
M  V30 77 H -2.596074 4.654888 0.324869 0
M  V30 78 H 0.841075 2.219778 0.968219 0
M  V30 END ATOM
M  V30 BEGIN BOND
M  V30 1 1 1 2
M  V30 2 1 2 3
M  V30 3 1 2 4
M  V30 4 1 4 5
M  V30 5 2 5 6
M  V30 6 1 6 7
M  V30 7 2 7 8
M  V30 8 1 7 9
M  V30 9 1 9 10
M  V30 10 2 10 11
M  V30 11 1 11 12
M  V30 12 2 12 13
M  V30 13 1 13 14
M  V30 14 1 14 15
M  V30 15 2 15 16
M  V30 16 1 15 17
M  V30 17 1 17 18
M  V30 18 1 18 19
M  V30 19 1 19 20
M  V30 20 1 20 21
M  V30 21 1 21 22
M  V30 22 1 22 23
M  V30 23 2 23 24
M  V30 24 1 24 25
M  V30 25 2 25 26
M  V30 26 1 26 27
M  V30 27 1 27 28
M  V30 28 1 28 29
M  V30 29 2 29 30
M  V30 30 1 30 31
M  V30 31 2 31 32
M  V30 32 1 32 33
M  V30 33 1 33 34
M  V30 34 1 33 35
M  V30 35 1 33 36
M  V30 36 1 32 37
M  V30 37 1 26 38
M  V30 38 1 21 39
M  V30 39 2 14 40
M  V30 40 1 40 10
M  V30 41 1 39 17
M  V30 42 1 38 23
M  V30 43 1 37 29
M  V30 44 1 1 41
M  V30 45 1 1 42
M  V30 46 1 1 43
M  V30 47 1 3 44
M  V30 48 1 3 45
M  V30 49 1 3 46
M  V30 50 1 4 47
M  V30 51 1 4 48
M  V30 52 1 5 49
M  V30 53 1 6 50
M  V30 54 1 9 51
M  V30 55 1 11 52
M  V30 56 1 12 53
M  V30 57 1 13 54
M  V30 58 1 18 55
M  V30 59 1 18 56
M  V30 60 1 19 57
M  V30 61 1 19 58
M  V30 62 1 20 59
M  V30 63 1 20 60
M  V30 64 1 21 61
M  V30 65 1 22 62
M  V30 66 1 25 63
M  V30 67 1 28 64
M  V30 68 1 28 65
M  V30 69 1 31 66
M  V30 70 1 34 67
M  V30 71 1 34 68
M  V30 72 1 34 69
M  V30 73 1 35 70
M  V30 74 1 35 71
M  V30 75 1 35 72
M  V30 76 1 36 73
M  V30 77 1 36 74
M  V30 78 1 36 75
M  V30 79 1 39 76
M  V30 80 1 39 77
M  V30 81 1 40 78
M  V30 END BOND
M  V30 END CTAB
M  END
>  <Dataset>  (540) 
ChEMBL_Kinases

>  <Ligand_Instance>  (540) 
nan

>  <PDB_ID>  (540) 
nan

>  <Standardized_SMILES>  (540) 
CN(C)C/C=C/C(=O)Nc1cccc(C(=O)N2CCCC(Nc3ncc(SCc4ncc(C(C)(C)C)o4)s3)C2)c1

>  <Name>  (540) 
nan

>  <Pocket>  (540) 
nan

>  <ATP_Site>  (540) 
nan

>  <Peripheral>  (540) 
nan

>  <Num_H_Atoms_ProtBoundConf>  (540) 
nan

>  <Num_Resolved_Atoms>  (540) 
nan

>  <Num_Not_Resolved_Atoms>  (540) 
nan

$$$$
CHEMBL4436925
     RDKit          3D

  0  0  0  0  0  0  0  0  0  0999 V3000
M  V30 BEGIN CTAB
M  V30 COUNTS 75 79 0 0 0
M  V30 BEGIN ATOM
M  V30 1 C 6.809670 -1.012273 1.478915 0
M  V30 2 C 6.439819 -1.818050 0.254975 0
M  V30 3 C 4.986955 -1.848746 -0.060594 0 CFG=2
M  V30 4 C 4.805523 -2.704158 -1.303079 0
M  V30 5 O 5.617773 -3.204984 -2.097218 0
M  V30 6 N 3.400661 -2.947222 -1.552294 0
M  V30 7 C 2.915592 -4.132127 -2.247133 0
M  V30 8 C 2.459099 -1.951841 -1.105647 0
M  V30 9 C 1.120939 -2.206362 -1.324266 0
M  V30 10 N 0.314023 -1.257652 -0.868308 0
M  V30 11 C 0.614882 -0.128158 -0.246714 0
M  V30 12 N -0.322232 0.796888 0.292893 0
M  V30 13 C -1.682023 0.594932 0.645268 0
M  V30 14 C -2.122588 -0.739436 0.477689 0
M  V30 15 C -3.450051 -1.018005 0.859952 0
M  V30 16 C -4.365822 -0.073033 1.393944 0
M  V30 17 C -5.658645 -0.632904 1.773510 0
M  V30 18 O -6.405851 -0.246388 2.690474 0
M  V30 19 N -6.178723 -1.752917 1.069157 0
M  V30 20 C -7.420595 -2.412054 1.329566 0
M  V30 21 C -8.238297 -2.434879 0.042515 0
M  V30 22 C -7.634267 -3.511177 -0.817828 0
M  V30 23 C -7.054047 -4.481972 0.165006 0
M  V30 24 C -7.244863 -3.906978 1.550265 0
M  V30 25 C -3.834308 1.175851 1.503712 0
M  V30 26 C -2.549675 1.503559 1.146850 0
M  V30 27 C -2.091615 2.881261 1.327718 0
M  V30 28 C -1.329147 3.029476 2.608796 0
M  V30 29 O -2.153388 2.693896 3.695516 0
M  V30 30 N 1.927665 0.112371 -0.040154 0
M  V30 31 C 2.885721 -0.776103 -0.453348 0
M  V30 32 N 4.315298 -0.598324 -0.247109 0
M  V30 33 C 4.769286 0.742240 -0.297675 0
M  V30 34 C 5.680246 1.056806 -1.493750 0
M  V30 35 C 5.973819 2.525477 -1.163970 0
M  V30 36 C 4.659124 3.043544 -0.665251 0
M  V30 37 C 3.753164 1.813217 -0.459369 0
M  V30 38 H 5.836473 -0.762133 1.986219 0
M  V30 39 H 7.336555 -1.681986 2.191553 0
M  V30 40 H 7.392123 -0.104783 1.257957 0
M  V30 41 H 6.696541 -2.899591 0.520166 0
M  V30 42 H 7.107181 -1.635826 -0.617152 0
M  V30 43 H 4.491013 -2.416217 0.765668 0
M  V30 44 H 3.734737 -4.867315 -2.355534 0
M  V30 45 H 2.140902 -4.594415 -1.604042 0
M  V30 46 H 2.516672 -3.918841 -3.243853 0
M  V30 47 H 0.728573 -3.088455 -1.817858 0
M  V30 48 H -0.015811 1.769698 0.460478 0
M  V30 49 H -1.620846 -1.614078 0.101235 0
M  V30 50 H -3.792941 -2.054635 0.745710 0
M  V30 51 H -5.727426 -2.239279 0.263585 0
M  V30 52 H -7.977976 -1.952844 2.159402 0
M  V30 53 H -8.178276 -1.469914 -0.503347 0
M  V30 54 H -9.302693 -2.716692 0.245047 0
M  V30 55 H -8.422093 -4.027487 -1.420088 0
M  V30 56 H -6.910302 -3.127809 -1.553196 0
M  V30 57 H -5.969999 -4.655388 -0.053818 0
M  V30 58 H -7.543237 -5.475828 0.053712 0
M  V30 59 H -8.128162 -4.372439 2.015188 0
M  V30 60 H -6.371343 -4.151410 2.161716 0
M  V30 61 H -4.532297 1.886334 1.901420 0
M  V30 62 H -2.984944 3.558337 1.364857 0
M  V30 63 H -1.487436 3.244146 0.461103 0
M  V30 64 H -0.381688 2.479945 2.673740 0
M  V30 65 H -1.070207 4.119423 2.774219 0
M  V30 66 H -1.644500 2.382019 4.473055 0
M  V30 67 H 5.415123 1.059447 0.576072 0
M  V30 68 H 6.576394 0.448731 -1.524343 0
M  V30 69 H 5.109745 1.093083 -2.440871 0
M  V30 70 H 6.766358 2.501563 -0.380935 0
M  V30 71 H 6.306672 2.994140 -2.109605 0
M  V30 72 H 4.842757 3.546578 0.311388 0
M  V30 73 H 4.239751 3.749776 -1.381190 0
M  V30 74 H 3.083153 1.721813 -1.313342 0
M  V30 75 H 3.184446 2.017443 0.493514 0
M  V30 END ATOM
M  V30 BEGIN BOND
M  V30 1 1 1 2
M  V30 2 1 2 3
M  V30 3 1 3 4
M  V30 4 2 4 5
M  V30 5 1 4 6
M  V30 6 1 6 7
M  V30 7 1 6 8
M  V30 8 2 8 9
M  V30 9 1 9 10
M  V30 10 2 10 11
M  V30 11 1 11 12
M  V30 12 1 12 13
M  V30 13 2 13 14
M  V30 14 1 14 15
M  V30 15 2 15 16
M  V30 16 1 16 17
M  V30 17 2 17 18
M  V30 18 1 17 19
M  V30 19 1 19 20
M  V30 20 1 20 21
M  V30 21 1 21 22
M  V30 22 1 22 23
M  V30 23 1 23 24
M  V30 24 1 16 25
M  V30 25 2 25 26
M  V30 26 1 26 27
M  V30 27 1 27 28
M  V30 28 1 28 29
M  V30 29 1 11 30
M  V30 30 2 30 31
M  V30 31 1 31 32
M  V30 32 1 32 33
M  V30 33 1 33 34
M  V30 34 1 34 35
M  V30 35 1 35 36
M  V30 36 1 36 37
M  V30 37 1 32 3
M  V30 38 1 37 33
M  V30 39 1 31 8
M  V30 40 1 26 13
M  V30 41 1 24 20
M  V30 42 1 1 38
M  V30 43 1 1 39
M  V30 44 1 1 40
M  V30 45 1 2 41
M  V30 46 1 2 42
M  V30 47 1 3 43 CFG=1
M  V30 48 1 7 44
M  V30 49 1 7 45
M  V30 50 1 7 46
M  V30 51 1 9 47
M  V30 52 1 12 48
M  V30 53 1 14 49
M  V30 54 1 15 50
M  V30 55 1 19 51
M  V30 56 1 20 52
M  V30 57 1 21 53
M  V30 58 1 21 54
M  V30 59 1 22 55
M  V30 60 1 22 56
M  V30 61 1 23 57
M  V30 62 1 23 58
M  V30 63 1 24 59
M  V30 64 1 24 60
M  V30 65 1 25 61
M  V30 66 1 27 62
M  V30 67 1 27 63
M  V30 68 1 28 64
M  V30 69 1 28 65
M  V30 70 1 29 66
M  V30 71 1 33 67
M  V30 72 1 34 68
M  V30 73 1 34 69
M  V30 74 1 35 70
M  V30 75 1 35 71
M  V30 76 1 36 72
M  V30 77 1 36 73
M  V30 78 1 37 74
M  V30 79 1 37 75
M  V30 END BOND
M  V30 END CTAB
M  END
>  <Dataset>  (541) 
ChEMBL_Kinases

>  <Ligand_Instance>  (541) 
nan

>  <PDB_ID>  (541) 
nan

>  <Standardized_SMILES>  (541) 
CC[C@@H]1C(=O)N(C)c2cnc(Nc3ccc(C(=O)NC4CCCC4)cc3CCO)nc2N1C1CCCC1

>  <Name>  (541) 
nan

>  <Pocket>  (541) 
nan

>  <ATP_Site>  (541) 
nan

>  <Peripheral>  (541) 
nan

>  <Num_H_Atoms_ProtBoundConf>  (541) 
nan

>  <Num_Resolved_Atoms>  (541) 
nan

>  <Num_Not_Resolved_Atoms>  (541) 
nan

$$$$
CHEMBL4752888
     RDKit          3D

  0  0  0  0  0  0  0  0  0  0999 V3000
M  V30 BEGIN CTAB
M  V30 COUNTS 41 44 0 0 0
M  V30 BEGIN ATOM
M  V30 1 C 0.875796 -5.702262 4.849949 0
M  V30 2 C 0.327393 -4.381755 4.430026 0
M  V30 3 N 0.016266 -3.411228 5.307782 0
M  V30 4 C -0.451104 -2.355927 4.596359 0
M  V30 5 C -0.417244 -2.707322 3.261653 0
M  V30 6 C -0.773324 -2.048413 1.988168 0
M  V30 7 C -1.482457 -2.638828 0.961346 0
M  V30 8 C -1.768924 -1.953610 -0.186274 0
M  V30 9 C -1.344711 -0.651799 -0.324571 0
M  V30 10 C -1.641333 0.032332 -1.492794 0
M  V30 11 N -1.195126 1.304880 -1.561553 0
M  V30 12 C -0.501610 1.903575 -0.574216 0
M  V30 13 N -0.099175 3.269871 -0.809744 0
M  V30 14 C 1.169355 3.283392 -1.425574 0
M  V30 15 O 1.740321 2.167156 -1.669666 0
M  V30 16 C 1.924278 4.492841 -1.827483 0
M  V30 17 F 1.348671 5.725024 -1.584715 0
M  V30 18 C 2.670242 4.352614 -3.172153 0
M  V30 19 C 3.402452 4.486334 -1.890209 0
M  V30 20 C -0.192338 1.245924 0.599672 0
M  V30 21 C -0.634219 -0.076520 0.717132 0
M  V30 22 C -0.330605 -0.744981 1.887610 0
M  V30 23 N 0.071698 -3.978104 3.165036 0
M  V30 24 C 0.316826 -4.837067 1.998089 0
M  V30 25 H 1.972791 -5.633438 5.079232 0
M  V30 26 H 0.778291 -6.421514 4.006634 0
M  V30 27 H 0.405462 -6.076869 5.767784 0
M  V30 28 H -0.815273 -1.375535 4.839351 0
M  V30 29 H -1.789745 -3.644903 1.111558 0
M  V30 30 H -2.320417 -2.401377 -0.993922 0
M  V30 31 H -2.196490 -0.425186 -2.300378 0
M  V30 32 H -0.531715 4.218921 -0.627891 0
M  V30 33 H 2.593171 5.172081 -3.893280 0
M  V30 34 H 2.670087 3.351024 -3.662189 0
M  V30 35 H 3.950364 5.424238 -1.699568 0
M  V30 36 H 3.917728 3.567684 -1.509031 0
M  V30 37 H 0.372068 1.785931 1.361335 0
M  V30 38 H 0.229642 -0.240578 2.668758 0
M  V30 39 H 1.242261 -5.411147 2.211402 0
M  V30 40 H 0.553737 -4.224703 1.101994 0
M  V30 41 H -0.510257 -5.536804 1.849421 0
M  V30 END ATOM
M  V30 BEGIN BOND
M  V30 1 1 1 2
M  V30 2 2 2 3
M  V30 3 1 3 4
M  V30 4 2 4 5
M  V30 5 1 5 6
M  V30 6 2 6 7
M  V30 7 1 7 8
M  V30 8 2 8 9
M  V30 9 1 9 10
M  V30 10 2 10 11
M  V30 11 1 11 12
M  V30 12 1 12 13
M  V30 13 1 13 14
M  V30 14 2 14 15
M  V30 15 1 14 16
M  V30 16 1 16 17
M  V30 17 1 16 18
M  V30 18 1 18 19
M  V30 19 2 12 20
M  V30 20 1 20 21
M  V30 21 2 21 22
M  V30 22 1 5 23
M  V30 23 1 23 24
M  V30 24 1 23 2
M  V30 25 1 22 6
M  V30 26 1 21 9
M  V30 27 1 19 16
M  V30 28 1 1 25
M  V30 29 1 1 26
M  V30 30 1 1 27
M  V30 31 1 4 28
M  V30 32 1 7 29
M  V30 33 1 8 30
M  V30 34 1 10 31
M  V30 35 1 13 32
M  V30 36 1 18 33
M  V30 37 1 18 34
M  V30 38 1 19 35
M  V30 39 1 19 36
M  V30 40 1 20 37
M  V30 41 1 22 38
M  V30 42 1 24 39
M  V30 43 1 24 40
M  V30 44 1 24 41
M  V30 END BOND
M  V30 END CTAB
M  END
>  <Dataset>  (542) 
ChEMBL_Kinases

>  <Ligand_Instance>  (542) 
nan

>  <PDB_ID>  (542) 
nan

>  <Standardized_SMILES>  (542) 
Cc1ncc(-c2ccc3cnc(NC(=O)C4(F)CC4)cc3c2)n1C

>  <Name>  (542) 
nan

>  <Pocket>  (542) 
nan

>  <ATP_Site>  (542) 
nan

>  <Peripheral>  (542) 
nan

>  <Num_H_Atoms_ProtBoundConf>  (542) 
nan

>  <Num_Resolved_Atoms>  (542) 
nan

>  <Num_Not_Resolved_Atoms>  (542) 
nan

$$$$
CHEMBL253116
     RDKit          3D

  0  0  0  0  0  0  0  0  0  0999 V3000
M  V30 BEGIN CTAB
M  V30 COUNTS 48 50 0 0 0
M  V30 BEGIN ATOM
M  V30 1 C 2.754985 -2.701333 2.073456 0
M  V30 2 C 3.240455 -2.147818 0.730826 0
M  V30 3 C 2.319542 -2.680220 -0.326456 0
M  V30 4 O 2.733014 -2.226998 -1.577174 0
M  V30 5 N 3.271603 -0.698026 0.784199 0
M  V30 6 C 3.682503 0.122483 -0.296907 0
M  V30 7 N 4.688345 -0.325587 -0.969344 0
M  V30 8 C 2.969764 1.363819 -0.549010 0
M  V30 9 C 3.084084 1.846097 -1.829620 0
M  V30 10 O 3.674901 1.538397 -3.041324 0
M  V30 11 N 2.456342 3.010506 -2.162853 0
M  V30 12 S 1.621633 3.529537 -0.618905 0
M  V30 13 C 2.216128 2.117845 0.290737 0
M  V30 14 N 1.884160 1.895437 1.636260 0
M  V30 15 C 0.577112 1.314314 1.847098 0
M  V30 16 C 0.141261 0.954755 3.110463 0
M  V30 17 C -1.081224 0.406668 3.396916 0
M  V30 18 C -1.963979 0.187191 2.360151 0
M  V30 19 N -3.249697 -0.351751 2.540406 0
M  V30 20 C -4.187218 -1.024618 1.714510 0
M  V30 21 C -5.532309 -1.025208 2.017844 0
M  V30 22 C -6.425881 -1.695608 1.214572 0
M  V30 23 C -6.017880 -2.382012 0.092304 0
M  V30 24 C -4.677739 -2.394966 -0.230209 0
M  V30 25 C -3.803901 -1.718118 0.587912 0
M  V30 26 C -1.570336 0.531637 1.084077 0
M  V30 27 C -0.331945 1.080687 0.834548 0
M  V30 28 H 3.333454 -3.593460 2.324428 0
M  V30 29 H 2.961494 -1.894414 2.833751 0
M  V30 30 H 1.675441 -2.866848 2.102960 0
M  V30 31 H 4.249536 -2.499697 0.522507 0
M  V30 32 H 1.249006 -2.431487 -0.135907 0
M  V30 33 H 2.436818 -3.799319 -0.296765 0
M  V30 34 H 2.320825 -2.714573 -2.317985 0
M  V30 35 H 2.973457 -0.215351 1.685127 0
M  V30 36 H 5.081857 0.182265 -1.782089 0
M  V30 37 H 3.214512 0.910420 -3.708082 0
M  V30 38 H 2.442857 2.088659 2.491037 0
M  V30 39 H 0.810548 1.118274 3.934418 0
M  V30 40 H -1.369101 0.144958 4.406180 0
M  V30 41 H -3.596298 -0.217926 3.540269 0
M  V30 42 H -5.871104 -0.481172 2.911291 0
M  V30 43 H -7.474984 -1.632548 1.547073 0
M  V30 44 H -6.840584 -2.852274 -0.426853 0
M  V30 45 H -4.439517 -2.951577 -1.118816 0
M  V30 46 H -2.784493 -1.798322 0.257923 0
M  V30 47 H -2.134666 0.437716 0.173888 0
M  V30 48 H 0.031243 1.372352 -0.164104 0
M  V30 END ATOM
M  V30 BEGIN BOND
M  V30 1 1 1 2
M  V30 2 1 2 3
M  V30 3 1 3 4
M  V30 4 1 2 5
M  V30 5 1 5 6
M  V30 6 2 6 7 CFG=2
M  V30 7 1 6 8
M  V30 8 1 8 9
M  V30 9 1 9 10
M  V30 10 2 9 11
M  V30 11 1 11 12
M  V30 12 1 12 13
M  V30 13 1 13 14
M  V30 14 1 14 15
M  V30 15 2 15 16
M  V30 16 1 16 17
M  V30 17 2 17 18
M  V30 18 1 18 19
M  V30 19 1 19 20
M  V30 20 2 20 21
M  V30 21 1 21 22
M  V30 22 2 22 23
M  V30 23 1 23 24
M  V30 24 2 24 25
M  V30 25 1 18 26
M  V30 26 2 26 27
M  V30 27 2 13 8
M  V30 28 1 27 15
M  V30 29 1 25 20
M  V30 30 1 1 28
M  V30 31 1 1 29
M  V30 32 1 1 30
M  V30 33 1 2 31
M  V30 34 1 3 32
M  V30 35 1 3 33
M  V30 36 1 4 34
M  V30 37 1 5 35
M  V30 38 1 7 36
M  V30 39 1 10 37
M  V30 40 1 14 38
M  V30 41 1 16 39
M  V30 42 1 17 40
M  V30 43 1 19 41
M  V30 44 1 21 42
M  V30 45 1 22 43
M  V30 46 1 23 44
M  V30 47 1 24 45
M  V30 48 1 25 46
M  V30 49 1 26 47
M  V30 50 1 27 48
M  V30 END BOND
M  V30 END CTAB
M  END
>  <Dataset>  (543) 
ChEMBL_Kinases

>  <Ligand_Instance>  (543) 
nan

>  <PDB_ID>  (543) 
nan

>  <Standardized_SMILES>  (543) 
CC(CO)NC(=N)c1c(O)nsc1Nc1ccc(Nc2ccccc2)cc1

>  <Name>  (543) 
nan

>  <Pocket>  (543) 
nan

>  <ATP_Site>  (543) 
nan

>  <Peripheral>  (543) 
nan

>  <Num_H_Atoms_ProtBoundConf>  (543) 
nan

>  <Num_Resolved_Atoms>  (543) 
nan

>  <Num_Not_Resolved_Atoms>  (543) 
nan

$$$$
CHEMBL252724
     RDKit          3D

  0  0  0  0  0  0  0  0  0  0999 V3000
M  V30 BEGIN CTAB
M  V30 COUNTS 30 32 0 0 0
M  V30 BEGIN ATOM
M  V30 1 C 0.408035 -1.597951 -1.109171 0
M  V30 2 N 0.073740 -0.897435 0.136383 0
M  V30 3 C 0.789779 -0.919533 1.278435 0
M  V30 4 C 2.037084 -1.646442 1.493817 0
M  V30 5 C 2.280987 -2.400318 2.640881 0
M  V30 6 C 3.501290 -3.039213 2.721086 0
M  V30 7 N 4.453352 -2.975515 1.768277 0
M  V30 8 C 4.226097 -2.251227 0.660005 0
M  V30 9 C 3.029111 -1.593298 0.524899 0
M  V30 10 C 0.093757 -0.125852 2.158368 0
M  V30 11 C -1.032594 0.367961 1.544909 0
M  V30 12 C -1.035010 -0.128660 0.261019 0
M  V30 13 C -2.133317 0.219379 -0.680991 0
M  V30 14 C -2.763615 1.546224 -0.306231 0
M  V30 15 N -3.125751 1.556804 1.103477 0
M  V30 16 C -2.087797 1.244657 2.037197 0
M  V30 17 O -2.123428 1.721704 3.206920 0
M  V30 18 H 1.052675 -2.486236 -0.883865 0
M  V30 19 H -0.510150 -2.012465 -1.601622 0
M  V30 20 H 0.965654 -0.921623 -1.789396 0
M  V30 21 H 1.525618 -2.446468 3.388903 0
M  V30 22 H 3.620853 -3.608866 3.644791 0
M  V30 23 H 5.000547 -2.224520 -0.069670 0
M  V30 24 H 2.938149 -1.036745 -0.400351 0
M  V30 25 H 0.413459 0.059888 3.172358 0
M  V30 26 H -2.910171 -0.576379 -0.628191 0
M  V30 27 H -1.760789 0.344064 -1.737991 0
M  V30 28 H -1.980094 2.322143 -0.455407 0
M  V30 29 H -3.642087 1.708277 -0.957020 0
M  V30 30 H -4.102513 1.780503 1.461087 0
M  V30 END ATOM
M  V30 BEGIN BOND
M  V30 1 1 1 2
M  V30 2 1 2 3
M  V30 3 1 3 4
M  V30 4 2 4 5
M  V30 5 1 5 6
M  V30 6 2 6 7
M  V30 7 1 7 8
M  V30 8 2 8 9
M  V30 9 2 3 10
M  V30 10 1 10 11
M  V30 11 2 11 12
M  V30 12 1 12 13
M  V30 13 1 13 14
M  V30 14 1 14 15
M  V30 15 1 15 16
M  V30 16 2 16 17
M  V30 17 1 12 2
M  V30 18 1 9 4
M  V30 19 1 16 11
M  V30 20 1 1 18
M  V30 21 1 1 19
M  V30 22 1 1 20
M  V30 23 1 5 21
M  V30 24 1 6 22
M  V30 25 1 8 23
M  V30 26 1 9 24
M  V30 27 1 10 25
M  V30 28 1 13 26
M  V30 29 1 13 27
M  V30 30 1 14 28
M  V30 31 1 14 29
M  V30 32 1 15 30
M  V30 END BOND
M  V30 END CTAB
M  END
>  <Dataset>  (544) 
ChEMBL_Kinases

>  <Ligand_Instance>  (544) 
nan

>  <PDB_ID>  (544) 
nan

>  <Standardized_SMILES>  (544) 
Cn1c(-c2ccncc2)cc2c1CCNC2=O

>  <Name>  (544) 
nan

>  <Pocket>  (544) 
nan

>  <ATP_Site>  (544) 
nan

>  <Peripheral>  (544) 
nan

>  <Num_H_Atoms_ProtBoundConf>  (544) 
nan

>  <Num_Resolved_Atoms>  (544) 
nan

>  <Num_Not_Resolved_Atoms>  (544) 
nan

$$$$
CHEMBL4752659
     RDKit          3D

  0  0  0  0  0  0  0  0  0  0999 V3000
M  V30 BEGIN CTAB
M  V30 COUNTS 50 55 0 0 0
M  V30 BEGIN ATOM
M  V30 1 C 3.869261 -2.846503 -2.451483 0
M  V30 2 C 4.037390 -1.919325 -1.296439 0
M  V30 3 N 5.293471 -1.571241 -0.911090 0
M  V30 4 C 5.182285 -0.737106 0.138683 0
M  V30 5 C 3.818300 -0.582227 0.387978 0
M  V30 6 C 3.237249 0.241774 1.444072 0
M  V30 7 C 4.060682 0.948699 2.296618 0
M  V30 8 C 3.669630 1.762781 3.332601 0
M  V30 9 C 2.298426 1.864133 3.515113 0
M  V30 10 N 1.556695 2.540019 4.392150 0
M  V30 11 N 0.281680 2.297695 4.140117 0
M  V30 12 C 0.180984 1.461858 3.096753 0
M  V30 13 C -1.076499 0.982899 2.547523 0
M  V30 14 N -1.311273 0.157152 1.522174 0
M  V30 15 C -2.650518 0.015814 1.399332 0
M  V30 16 C -3.416581 -0.715010 0.514479 0
M  V30 17 C -2.841539 -1.539684 -0.542361 0
M  V30 18 C -1.813975 -1.115466 -1.360583 0
M  V30 19 C -1.319017 -1.970149 -2.351945 0
M  V30 20 C -1.905318 -3.218718 -2.452727 0
M  V30 21 C -2.932783 -3.670434 -1.650114 0
M  V30 22 F -3.458282 -4.923387 -1.815912 0
M  V30 23 C -3.409120 -2.809065 -0.674140 0
M  V30 24 C -4.792097 -0.655272 0.645105 0
M  V30 25 C -5.461092 0.083951 1.598656 0
M  V30 26 C -4.662836 0.806658 2.472029 0
M  V30 27 C -3.286224 0.765328 2.364431 0
M  V30 28 N -2.280123 1.344800 3.049870 0
M  V30 29 C 1.444873 1.162163 2.669997 0
M  V30 30 N 1.919948 0.386479 1.678724 0
M  V30 31 N 3.130767 -1.316988 -0.504941 0
M  V30 32 C 1.707213 -1.480018 -0.651633 0
M  V30 33 H 4.321630 -2.327438 -3.332731 0
M  V30 34 H 4.490335 -3.749332 -2.297440 0
M  V30 35 H 2.811732 -3.040271 -2.683042 0
M  V30 36 H 6.024220 -0.300087 0.652238 0
M  V30 37 H 5.134762 0.851182 2.130935 0
M  V30 38 H 4.390689 2.277365 3.948257 0
M  V30 39 H 1.908752 3.161701 5.156963 0
M  V30 40 H -1.398838 -0.108882 -1.220130 0
M  V30 41 H -0.513822 -1.654422 -3.002497 0
M  V30 42 H -1.563262 -3.921725 -3.201218 0
M  V30 43 H -4.212076 -3.165981 -0.049105 0
M  V30 44 H -5.395281 -1.220864 -0.039273 0
M  V30 45 H -6.539506 0.100072 1.662567 0
M  V30 46 H -5.127816 1.409039 3.245829 0
M  V30 47 H -2.502541 1.986567 3.863175 0
M  V30 48 H 1.355812 -0.798102 -1.468069 0
M  V30 49 H 1.515557 -2.531913 -1.008583 0
M  V30 50 H 1.129595 -1.359954 0.268354 0
M  V30 END ATOM
M  V30 BEGIN BOND
M  V30 1 1 1 2
M  V30 2 2 2 3
M  V30 3 1 3 4
M  V30 4 2 4 5
M  V30 5 1 5 6
M  V30 6 2 6 7
M  V30 7 1 7 8
M  V30 8 2 8 9
M  V30 9 1 9 10
M  V30 10 1 10 11
M  V30 11 2 11 12
M  V30 12 1 12 13
M  V30 13 2 13 14
M  V30 14 1 14 15
M  V30 15 2 15 16
M  V30 16 1 16 17
M  V30 17 2 17 18
M  V30 18 1 18 19
M  V30 19 2 19 20
M  V30 20 1 20 21
M  V30 21 1 21 22
M  V30 22 2 21 23
M  V30 23 1 16 24
M  V30 24 2 24 25
M  V30 25 1 25 26
M  V30 26 2 26 27
M  V30 27 1 27 28
M  V30 28 1 12 29
M  V30 29 2 29 30
M  V30 30 1 5 31
M  V30 31 1 31 32
M  V30 32 1 31 2
M  V30 33 1 30 6
M  V30 34 1 29 9
M  V30 35 1 28 13
M  V30 36 1 27 15
M  V30 37 1 23 17
M  V30 38 1 1 33
M  V30 39 1 1 34
M  V30 40 1 1 35
M  V30 41 1 4 36
M  V30 42 1 7 37
M  V30 43 1 8 38
M  V30 44 1 10 39
M  V30 45 1 18 40
M  V30 46 1 19 41
M  V30 47 1 20 42
M  V30 48 1 23 43
M  V30 49 1 24 44
M  V30 50 1 25 45
M  V30 51 1 26 46
M  V30 52 1 28 47
M  V30 53 1 32 48
M  V30 54 1 32 49
M  V30 55 1 32 50
M  V30 END BOND
M  V30 END CTAB
M  END
>  <Dataset>  (545) 
ChEMBL_Kinases

>  <Ligand_Instance>  (545) 
nan

>  <PDB_ID>  (545) 
nan

>  <Standardized_SMILES>  (545) 
Cc1ncc(-c2ccc3[nH]nc(-c4nc5c(-c6cccc(F)c6)cccc5[nH]4)c3n2)n1C

>  <Name>  (545) 
nan

>  <Pocket>  (545) 
nan

>  <ATP_Site>  (545) 
nan

>  <Peripheral>  (545) 
nan

>  <Num_H_Atoms_ProtBoundConf>  (545) 
nan

>  <Num_Resolved_Atoms>  (545) 
nan

>  <Num_Not_Resolved_Atoms>  (545) 
nan

$$$$
CHEMBL4752631
     RDKit          3D

  0  0  0  0  0  0  0  0  0  0999 V3000
M  V30 BEGIN CTAB
M  V30 COUNTS 65 71 0 0 0
M  V30 BEGIN ATOM
M  V30 1 O 2.262182 0.402021 5.848671 0
M  V30 2 C 2.946126 1.386055 6.297618 0
M  V30 3 N 3.933701 1.808966 5.354982 0
M  V30 4 C 3.792120 0.941605 4.202601 0
M  V30 5 C 4.464911 -0.251247 4.037290 0
M  V30 6 N 4.214909 -0.952016 2.890406 0
M  V30 7 C 3.340782 -0.441457 2.007643 0
M  V30 8 C 2.643369 0.743004 2.124273 0
M  V30 9 C 1.706331 1.212270 1.100012 0
M  V30 10 C 1.602075 2.582149 0.974955 0
M  V30 11 C 0.724427 3.045645 0.016992 0
M  V30 12 C -0.000918 2.172208 -0.764059 0
M  V30 13 N -0.902477 2.320488 -1.746046 0
M  V30 14 N -1.307433 1.159396 -2.176515 0
M  V30 15 C -0.711563 0.128017 -1.519583 0
M  V30 16 C -0.950180 -1.281889 -1.769961 0
M  V30 17 N -1.817461 -1.676292 -2.716900 0
M  V30 18 C -1.850076 -3.008795 -2.745332 0
M  V30 19 C -2.608734 -3.845819 -3.572604 0
M  V30 20 N -3.510852 -3.318267 -4.560621 0
M  V30 21 C -4.628782 -2.458230 -4.167952 0
M  V30 22 C -5.946618 -3.033377 -4.635255 0
M  V30 23 C -5.905049 -3.522245 -6.048819 0
M  V30 24 C -4.678076 -4.330680 -6.384898 0
M  V30 25 C -3.449655 -3.547207 -6.013057 0
M  V30 26 C -2.424749 -5.197139 -3.365095 0
M  V30 27 N -1.582868 -5.689392 -2.440654 0
M  V30 28 C -0.845428 -4.875705 -1.636548 0
M  V30 29 C -0.992334 -3.534376 -1.803557 0
M  V30 30 N -0.486597 -2.422350 -1.256188 0
M  V30 31 C 0.101645 0.811713 -0.640867 0
M  V30 32 C 0.977026 0.348361 0.314648 0
M  V30 33 C 2.898917 1.460952 3.298236 0
M  V30 34 C 2.679441 1.950720 7.632770 0
M  V30 35 C 3.773959 1.929287 8.639119 0
M  V30 36 C 3.281815 3.301137 9.117597 0
M  V30 37 C 2.669771 3.456346 7.732398 0
M  V30 38 H 4.531226 2.626866 5.681082 0
M  V30 39 H 5.133888 -0.519994 4.841336 0
M  V30 40 H 3.175971 -1.038834 1.108459 0
M  V30 41 H 2.116601 3.354401 1.527880 0
M  V30 42 H 0.570748 4.103542 -0.159483 0
M  V30 43 H -1.268000 3.212643 -2.151460 0
M  V30 44 H -4.456370 -1.436500 -4.504828 0
M  V30 45 H -4.677167 -2.435018 -3.069085 0
M  V30 46 H -6.373693 -3.765248 -3.911929 0
M  V30 47 H -6.671422 -2.179037 -4.619526 0
M  V30 48 H -6.774327 -4.234748 -6.165394 0
M  V30 49 H -6.075456 -2.727573 -6.792444 0
M  V30 50 H -4.720774 -4.536389 -7.468552 0
M  V30 51 H -4.767593 -5.298292 -5.855547 0
M  V30 52 H -2.515323 -4.032552 -6.304981 0
M  V30 53 H -3.556848 -2.544511 -6.488709 0
M  V30 54 H -3.015006 -5.846745 -4.008649 0
M  V30 55 H -0.159750 -5.198828 -0.884320 0
M  V30 56 H 0.207730 -2.500498 -0.495470 0
M  V30 57 H 1.113929 -0.685143 0.472447 0
M  V30 58 H 2.356959 2.387955 3.395619 0
M  V30 59 H 1.728276 1.563972 8.033760 0
M  V30 60 H 4.811050 1.979788 8.260244 0
M  V30 61 H 3.624320 1.204866 9.474758 0
M  V30 62 H 2.474505 3.229634 9.883330 0
M  V30 63 H 4.071507 4.010933 9.386065 0
M  V30 64 H 1.665820 3.930848 7.740871 0
M  V30 65 H 3.354475 3.992797 7.053621 0
M  V30 END ATOM
M  V30 BEGIN BOND
M  V30 1 2 1 2
M  V30 2 1 2 3
M  V30 3 1 3 4
M  V30 4 2 4 5
M  V30 5 1 5 6
M  V30 6 2 6 7
M  V30 7 1 7 8
M  V30 8 1 8 9
M  V30 9 2 9 10
M  V30 10 1 10 11
M  V30 11 2 11 12
M  V30 12 1 12 13
M  V30 13 1 13 14
M  V30 14 2 14 15
M  V30 15 1 15 16
M  V30 16 2 16 17
M  V30 17 1 17 18
M  V30 18 2 18 19
M  V30 19 1 19 20
M  V30 20 1 20 21
M  V30 21 1 21 22
M  V30 22 1 22 23
M  V30 23 1 23 24
M  V30 24 1 24 25
M  V30 25 1 19 26
M  V30 26 2 26 27
M  V30 27 1 27 28
M  V30 28 2 28 29
M  V30 29 1 29 30
M  V30 30 1 15 31
M  V30 31 2 31 32
M  V30 32 2 8 33
M  V30 33 1 2 34
M  V30 34 1 34 35
M  V30 35 1 35 36
M  V30 36 1 36 37
M  V30 37 1 33 4
M  V30 38 1 37 34
M  V30 39 1 32 9
M  V30 40 1 31 12
M  V30 41 1 30 16
M  V30 42 1 29 18
M  V30 43 1 25 20
M  V30 44 1 3 38
M  V30 45 1 5 39
M  V30 46 1 7 40
M  V30 47 1 10 41
M  V30 48 1 11 42
M  V30 49 1 13 43
M  V30 50 1 21 44
M  V30 51 1 21 45
M  V30 52 1 22 46
M  V30 53 1 22 47
M  V30 54 1 23 48
M  V30 55 1 23 49
M  V30 56 1 24 50
M  V30 57 1 24 51
M  V30 58 1 25 52
M  V30 59 1 25 53
M  V30 60 1 26 54
M  V30 61 1 28 55
M  V30 62 1 30 56
M  V30 63 1 32 57
M  V30 64 1 33 58
M  V30 65 1 34 59
M  V30 66 1 35 60
M  V30 67 1 35 61
M  V30 68 1 36 62
M  V30 69 1 36 63
M  V30 70 1 37 64
M  V30 71 1 37 65
M  V30 END BOND
M  V30 END CTAB
M  END
>  <Dataset>  (546) 
ChEMBL_Kinases

>  <Ligand_Instance>  (546) 
nan

>  <PDB_ID>  (546) 
nan

>  <Standardized_SMILES>  (546) 
O=C(Nc1cncc(-c2ccc3[nH]nc(-c4nc5c(N6CCCCC6)cncc5[nH]4)c3c2)c1)C1CCC1

>  <Name>  (546) 
nan

>  <Pocket>  (546) 
nan

>  <ATP_Site>  (546) 
nan

>  <Peripheral>  (546) 
nan

>  <Num_H_Atoms_ProtBoundConf>  (546) 
nan

>  <Num_Resolved_Atoms>  (546) 
nan

>  <Num_Not_Resolved_Atoms>  (546) 
nan

$$$$
CHEMBL4752625
     RDKit          3D

  0  0  0  0  0  0  0  0  0  0999 V3000
M  V30 BEGIN CTAB
M  V30 COUNTS 69 74 0 0 0
M  V30 BEGIN ATOM
M  V30 1 O 2.501800 -2.335575 5.145554 0
M  V30 2 C 1.536595 -2.372215 4.324544 0
M  V30 3 N 1.940515 -1.696108 3.185854 0
M  V30 4 C 2.936887 -0.992440 2.525343 0
M  V30 5 C 2.997346 0.395711 2.706799 0
M  V30 6 C 3.942535 1.221794 2.087490 0
M  V30 7 C 4.813845 0.530910 1.277189 0
M  V30 8 C 5.869014 1.223260 0.518288 0
M  V30 9 O 7.105087 0.926035 0.560606 0
M  V30 10 N 5.357355 2.296595 -0.301221 0
M  V30 11 C 3.978480 2.781337 -0.463565 0
M  V30 12 C 3.868859 3.296974 -1.873600 0
M  V30 13 C 5.274265 3.285144 -2.435678 0
M  V30 14 C 6.135354 3.157554 -1.193050 0
M  V30 15 N 4.829254 -0.815868 1.043250 0
M  V30 16 C 3.881883 -1.573529 1.675263 0
M  V30 17 C 0.304651 -3.028323 4.654786 0
M  V30 18 N 0.179719 -3.408000 5.959635 0
M  V30 19 N -0.992584 -3.997003 6.123845 0
M  V30 20 C -1.713719 -4.057926 4.995245 0
M  V30 21 C -2.917436 -4.506295 4.502099 0
M  V30 22 C -3.261618 -4.350277 3.178410 0
M  V30 23 C -2.403009 -3.728313 2.272445 0
M  V30 24 C -2.756801 -3.572023 0.865540 0
M  V30 25 C -3.565038 -4.607096 0.377466 0
M  V30 26 N -3.936816 -4.563178 -0.933121 0
M  V30 27 C -3.533883 -3.549233 -1.727828 0
M  V30 28 C -2.740257 -2.523232 -1.267801 0
M  V30 29 C -2.333278 -1.464173 -2.218445 0
M  V30 30 N -3.217385 -0.359787 -2.323510 0
M  V30 31 C -4.514861 -0.759536 -2.766926 0
M  V30 32 C -5.388561 0.422429 -3.132084 0
M  V30 33 C -4.690876 1.735581 -2.906350 0
M  V30 34 C -3.943574 1.794478 -1.604299 0
M  V30 35 C -3.337750 0.483329 -1.182696 0
M  V30 36 C -2.351136 -2.541902 0.048331 0
M  V30 37 C -1.198425 -3.277745 2.763904 0
M  V30 38 C -0.872224 -3.441242 4.087494 0
M  V30 39 H 1.270957 -1.607064 2.403146 0
M  V30 40 H 2.269636 0.865054 3.367252 0
M  V30 41 H 4.000860 2.278161 2.218060 0
M  V30 42 H 3.842072 3.610669 0.236665 0
M  V30 43 H 3.271282 1.926711 -0.309503 0
M  V30 44 H 3.507931 4.354512 -1.913182 0
M  V30 45 H 3.141967 2.730343 -2.502954 0
M  V30 46 H 5.456097 2.454224 -3.143564 0
M  V30 47 H 5.479911 4.214873 -3.004234 0
M  V30 48 H 7.089397 2.679659 -1.500640 0
M  V30 49 H 6.274389 4.173146 -0.780221 0
M  V30 50 H 3.856477 -2.647904 1.519768 0
M  V30 51 H -1.370216 -4.393703 7.021603 0
M  V30 52 H -3.552738 -4.983236 5.241692 0
M  V30 53 H -4.229248 -4.726511 2.860647 0
M  V30 54 H -3.909072 -5.440141 0.985877 0
M  V30 55 H -3.908139 -3.657279 -2.724708 0
M  V30 56 H -2.132706 -1.897546 -3.218317 0
M  V30 57 H -1.360409 -1.057486 -1.810058 0
M  V30 58 H -5.031545 -1.309654 -1.946591 0
M  V30 59 H -4.397768 -1.480416 -3.594798 0
M  V30 60 H -5.593040 0.332827 -4.217848 0
M  V30 61 H -6.363924 0.390420 -2.614611 0
M  V30 62 H -5.460940 2.529138 -2.883913 0
M  V30 63 H -4.021052 1.954678 -3.760954 0
M  V30 64 H -4.538488 2.189238 -0.759609 0
M  V30 65 H -3.118165 2.543755 -1.760588 0
M  V30 66 H -2.330189 0.683739 -0.779510 0
M  V30 67 H -4.013836 0.050615 -0.389845 0
M  V30 68 H -1.741352 -1.780256 0.459925 0
M  V30 69 H -0.563527 -2.816455 2.056132 0
M  V30 END ATOM
M  V30 BEGIN BOND
M  V30 1 2 1 2
M  V30 2 1 2 3
M  V30 3 1 3 4
M  V30 4 2 4 5
M  V30 5 1 5 6
M  V30 6 2 6 7
M  V30 7 1 7 8
M  V30 8 2 8 9
M  V30 9 1 8 10
M  V30 10 1 10 11
M  V30 11 1 11 12
M  V30 12 1 12 13
M  V30 13 1 13 14
M  V30 14 1 7 15
M  V30 15 2 15 16
M  V30 16 1 2 17
M  V30 17 2 17 18
M  V30 18 1 18 19
M  V30 19 1 19 20
M  V30 20 2 20 21
M  V30 21 1 21 22
M  V30 22 2 22 23
M  V30 23 1 23 24
M  V30 24 2 24 25
M  V30 25 1 25 26
M  V30 26 2 26 27
M  V30 27 1 27 28
M  V30 28 1 28 29
M  V30 29 1 29 30
M  V30 30 1 30 31
M  V30 31 1 31 32
M  V30 32 1 32 33
M  V30 33 1 33 34
M  V30 34 1 34 35
M  V30 35 2 28 36
M  V30 36 1 23 37
M  V30 37 2 37 38
M  V30 38 1 16 4
M  V30 39 1 38 17
M  V30 40 1 14 10
M  V30 41 1 38 20
M  V30 42 1 36 24
M  V30 43 1 35 30
M  V30 44 1 3 39
M  V30 45 1 5 40
M  V30 46 1 6 41
M  V30 47 1 11 42
M  V30 48 1 11 43
M  V30 49 1 12 44
M  V30 50 1 12 45
M  V30 51 1 13 46
M  V30 52 1 13 47
M  V30 53 1 14 48
M  V30 54 1 14 49
M  V30 55 1 16 50
M  V30 56 1 19 51
M  V30 57 1 21 52
M  V30 58 1 22 53
M  V30 59 1 25 54
M  V30 60 1 27 55
M  V30 61 1 29 56
M  V30 62 1 29 57
M  V30 63 1 31 58
M  V30 64 1 31 59
M  V30 65 1 32 60
M  V30 66 1 32 61
M  V30 67 1 33 62
M  V30 68 1 33 63
M  V30 69 1 34 64
M  V30 70 1 34 65
M  V30 71 1 35 66
M  V30 72 1 35 67
M  V30 73 1 36 68
M  V30 74 1 37 69
M  V30 END BOND
M  V30 END CTAB
M  END
>  <Dataset>  (547) 
ChEMBL_Kinases

>  <Ligand_Instance>  (547) 
nan

>  <PDB_ID>  (547) 
nan

>  <Standardized_SMILES>  (547) 
O=C(Nc1ccc(C(=O)N2CCCC2)nc1)c1n[nH]c2ccc(-c3cncc(CN4CCCCC4)c3)cc12

>  <Name>  (547) 
nan

>  <Pocket>  (547) 
nan

>  <ATP_Site>  (547) 
nan

>  <Peripheral>  (547) 
nan

>  <Num_H_Atoms_ProtBoundConf>  (547) 
nan

>  <Num_Resolved_Atoms>  (547) 
nan

>  <Num_Not_Resolved_Atoms>  (547) 
nan

$$$$
CHEMBL4752468
     RDKit          3D

  0  0  0  0  0  0  0  0  0  0999 V3000
M  V30 BEGIN CTAB
M  V30 COUNTS 55 59 0 0 0
M  V30 BEGIN ATOM
M  V30 1 C 4.749752 0.332737 3.265512 0
M  V30 2 C 5.625247 0.847756 2.167066 0
M  V30 3 C 6.900290 1.402384 2.781780 0
M  V30 4 C 5.995696 -0.299881 1.246682 0
M  V30 5 C 4.973919 1.943890 1.375176 0
M  V30 6 C 3.711294 1.468289 0.739536 0
M  V30 7 O 3.419212 0.264842 0.976745 0
M  V30 8 N 2.928847 2.340751 -0.064665 0
M  V30 9 C 1.764741 1.642543 -0.559533 0
M  V30 10 C 1.920568 0.986122 -1.784929 0
M  V30 11 N 0.917083 0.294467 -2.365438 0
M  V30 12 C -0.293095 0.219097 -1.758707 0
M  V30 13 C -0.482468 0.861399 -0.537318 0
M  V30 14 C -1.772775 0.808949 0.158491 0
M  V30 15 C -2.152302 1.887148 0.938174 0
M  V30 16 N -3.341842 1.804960 1.562535 0
M  V30 17 C -4.138354 0.732670 1.445973 0
M  V30 18 N -5.337637 0.386069 1.937411 0
M  V30 19 N -5.701904 -0.793919 1.522060 0
M  V30 20 C -4.774085 -1.340699 0.713819 0
M  V30 21 C -4.859404 -2.631367 0.085391 0
M  V30 22 C -5.946858 -3.472698 0.258571 0
M  V30 23 C -5.827720 -4.652705 -0.425606 0
M  V30 24 C -6.604881 -5.777444 -0.575315 0
M  V30 25 N -6.147467 -6.767759 -1.350839 0
M  V30 26 C -4.970554 -6.726640 -1.992965 0
M  V30 27 C -4.185570 -5.603505 -1.848464 0
M  V30 28 C -4.605450 -4.554365 -1.063350 0
M  V30 29 N -4.094901 -3.363642 -0.728534 0
M  V30 30 C -3.796560 -0.373773 0.672670 0
M  V30 31 C -2.591395 -0.292207 0.039201 0
M  V30 32 C 0.533176 1.571255 0.067205 0
M  V30 33 H 5.326544 0.178843 4.196086 0
M  V30 34 H 4.321011 -0.631973 2.960116 0
M  V30 35 H 3.897638 0.995837 3.509639 0
M  V30 36 H 7.709689 1.234998 2.046567 0
M  V30 37 H 7.160509 0.824931 3.694966 0
M  V30 38 H 6.812705 2.487897 2.964153 0
M  V30 39 H 5.361393 -1.205805 1.435583 0
M  V30 40 H 5.830325 0.014395 0.195315 0
M  V30 41 H 7.062935 -0.555719 1.373343 0
M  V30 42 H 5.703153 2.352075 0.656075 0
M  V30 43 H 4.692776 2.755038 2.075217 0
M  V30 44 H 3.247726 3.343302 -0.214152 0
M  V30 45 H 2.868356 1.007572 -2.324843 0
M  V30 46 H -1.143525 -0.308767 -2.150089 0
M  V30 47 H -1.525103 2.767823 1.049010 0
M  V30 48 H -5.944744 0.945824 2.572380 0
M  V30 49 H -6.841033 -3.293800 0.856335 0
M  V30 50 H -7.548045 -5.822200 -0.066839 0
M  V30 51 H -4.658870 -7.554175 -2.601290 0
M  V30 52 H -3.234605 -5.533435 -2.347937 0
M  V30 53 H -3.187265 -3.087882 -1.096148 0
M  V30 54 H -2.255787 -1.089259 -0.568286 0
M  V30 55 H 0.474697 2.088820 0.993713 0
M  V30 END ATOM
M  V30 BEGIN BOND
M  V30 1 1 1 2
M  V30 2 1 2 3
M  V30 3 1 2 4
M  V30 4 1 2 5
M  V30 5 1 5 6
M  V30 6 2 6 7
M  V30 7 1 6 8
M  V30 8 1 8 9
M  V30 9 2 9 10
M  V30 10 1 10 11
M  V30 11 2 11 12
M  V30 12 1 12 13
M  V30 13 1 13 14
M  V30 14 2 14 15
M  V30 15 1 15 16
M  V30 16 2 16 17
M  V30 17 1 17 18
M  V30 18 1 18 19
M  V30 19 2 19 20
M  V30 20 1 20 21
M  V30 21 2 21 22
M  V30 22 1 22 23
M  V30 23 2 23 24
M  V30 24 1 24 25
M  V30 25 2 25 26
M  V30 26 1 26 27
M  V30 27 2 27 28
M  V30 28 1 28 29
M  V30 29 1 20 30
M  V30 30 2 30 31
M  V30 31 2 13 32
M  V30 32 1 32 9
M  V30 33 1 31 14
M  V30 34 1 30 17
M  V30 35 1 29 21
M  V30 36 1 28 23
M  V30 37 1 1 33
M  V30 38 1 1 34
M  V30 39 1 1 35
M  V30 40 1 3 36
M  V30 41 1 3 37
M  V30 42 1 3 38
M  V30 43 1 4 39
M  V30 44 1 4 40
M  V30 45 1 4 41
M  V30 46 1 5 42
M  V30 47 1 5 43
M  V30 48 1 8 44
M  V30 49 1 10 45
M  V30 50 1 12 46
M  V30 51 1 15 47
M  V30 52 1 18 48
M  V30 53 1 22 49
M  V30 54 1 24 50
M  V30 55 1 26 51
M  V30 56 1 27 52
M  V30 57 1 29 53
M  V30 58 1 31 54
M  V30 59 1 32 55
M  V30 END BOND
M  V30 END CTAB
M  END
>  <Dataset>  (548) 
ChEMBL_Kinases

>  <Ligand_Instance>  (548) 
nan

>  <PDB_ID>  (548) 
nan

>  <Standardized_SMILES>  (548) 
CC(C)(C)CC(=O)Nc1cncc(-c2cnc3[nH]nc(-c4cc5cnccc5[nH]4)c3c2)c1

>  <Name>  (548) 
nan

>  <Pocket>  (548) 
nan

>  <ATP_Site>  (548) 
nan

>  <Peripheral>  (548) 
nan

>  <Num_H_Atoms_ProtBoundConf>  (548) 
nan

>  <Num_Resolved_Atoms>  (548) 
nan

>  <Num_Not_Resolved_Atoms>  (548) 
nan

$$$$
CHEMBL4752464
     RDKit          3D

  0  0  0  0  0  0  0  0  0  0999 V3000
M  V30 BEGIN CTAB
M  V30 COUNTS 69 73 0 0 0
M  V30 BEGIN ATOM
M  V30 1 C 3.837532 -2.174646 6.281747 0
M  V30 2 N 3.577228 -2.370947 4.866918 0
M  V30 3 N 3.335187 -3.569544 4.362301 0
M  V30 4 C 3.130781 -3.457406 3.038274 0
M  V30 5 C 3.248534 -2.112441 2.675419 0
M  V30 6 C 3.089234 -1.655008 1.315444 0
M  V30 7 C 3.870630 -0.807132 0.560330 0
M  V30 8 C 3.527799 -0.492508 -0.737358 0
M  V30 9 C 2.403583 -0.994069 -1.355601 0
M  V30 10 C 2.180648 -0.596250 -2.657332 0
M  V30 11 N 1.062763 -1.106987 -3.243152 0
M  V30 12 C 0.251007 -1.951831 -2.544586 0
M  V30 13 N -0.907317 -2.434795 -3.258964 0
M  V30 14 C -1.938556 -1.493549 -2.996252 0
M  V30 15 O -1.825565 -0.446789 -2.270991 0
M  V30 16 C -3.362404 -1.354319 -3.394507 0 CFG=1
M  V30 17 C -3.881144 -0.096317 -2.745718 0
M  V30 18 C -5.372539 -0.055325 -2.921577 0
M  V30 19 C -5.829092 -0.392436 -4.294294 0 CFG=2
M  V30 20 C -6.790216 -1.588672 -4.291323 0
M  V30 21 O -7.912972 -1.272680 -3.510050 0
M  V30 22 C -4.761135 -0.557219 -5.310890 0
M  V30 23 C -3.505515 -1.216864 -4.872758 0
M  V30 24 C 0.490330 -2.339100 -1.241581 0
M  V30 25 C 1.601718 -1.844698 -0.627411 0
M  V30 26 C 1.950366 -2.155154 0.669983 0
M  V30 27 C 3.529859 -1.472818 3.864226 0
M  V30 28 C 3.739017 -0.031982 4.000244 0
M  V30 29 N 2.479715 0.718635 3.938071 0
M  V30 30 C 1.618345 0.277218 5.013395 0
M  V30 31 C 0.467415 1.199557 5.260776 0
M  V30 32 C 0.304956 2.243452 4.182184 0
M  V30 33 C 1.573395 2.954392 3.833235 0
M  V30 34 C 2.810334 2.113488 4.031051 0
M  V30 35 H 4.167611 -1.154620 6.531261 0
M  V30 36 H 4.561536 -2.875997 6.707395 0
M  V30 37 H 2.875314 -2.320862 6.824810 0
M  V30 38 H 2.916677 -4.360610 2.466840 0
M  V30 39 H 4.737719 -0.441400 1.077151 0
M  V30 40 H 4.221702 0.179508 -1.215275 0
M  V30 41 H 2.871687 0.079671 -3.149348 0
M  V30 42 H -1.325881 -3.166576 -3.882354 0
M  V30 43 H -4.004534 -2.191328 -3.054859 0
M  V30 44 H -3.629662 -0.095966 -1.662577 0
M  V30 45 H -3.445247 0.819840 -3.189791 0
M  V30 46 H -5.695765 0.960434 -2.575577 0
M  V30 47 H -5.821643 -0.782241 -2.215999 0
M  V30 48 H -6.481097 0.466942 -4.631809 0
M  V30 49 H -7.192491 -1.765929 -5.309189 0
M  V30 50 H -6.285304 -2.517478 -3.973276 0
M  V30 51 H -7.891455 -1.788086 -2.644855 0
M  V30 52 H -5.195266 -1.207532 -6.126425 0
M  V30 53 H -4.580810 0.419277 -5.844039 0
M  V30 54 H -3.288296 -2.180968 -5.414944 0
M  V30 55 H -2.651484 -0.554950 -5.203602 0
M  V30 56 H -0.172365 -3.010465 -0.714870 0
M  V30 57 H 1.252594 -2.832517 1.154436 0
M  V30 58 H 4.205036 0.192546 5.000075 0
M  V30 59 H 4.427502 0.421710 3.267070 0
M  V30 60 H 1.352421 -0.772607 4.827154 0
M  V30 61 H 2.251083 0.285744 5.938456 0
M  V30 62 H 0.460138 1.668404 6.264670 0
M  V30 63 H -0.458740 0.575531 5.214423 0
M  V30 64 H -0.201162 1.779886 3.311049 0
M  V30 65 H -0.409815 3.009275 4.582037 0
M  V30 66 H 1.493915 3.252087 2.762148 0
M  V30 67 H 1.684672 3.923489 4.396178 0
M  V30 68 H 3.510737 2.346137 3.204594 0
M  V30 69 H 3.355589 2.368617 4.964116 0
M  V30 END ATOM
M  V30 BEGIN BOND
M  V30 1 1 1 2
M  V30 2 1 2 3
M  V30 3 2 3 4
M  V30 4 1 4 5
M  V30 5 1 5 6
M  V30 6 2 6 7
M  V30 7 1 7 8
M  V30 8 2 8 9
M  V30 9 1 9 10
M  V30 10 2 10 11
M  V30 11 1 11 12
M  V30 12 1 12 13
M  V30 13 1 13 14
M  V30 14 2 14 15
M  V30 15 1 14 16
M  V30 16 1 16 17
M  V30 17 1 17 18
M  V30 18 1 18 19
M  V30 19 1 19 20
M  V30 20 1 20 21
M  V30 21 1 19 22
M  V30 22 1 22 23
M  V30 23 2 12 24
M  V30 24 1 24 25
M  V30 25 2 25 26
M  V30 26 2 5 27
M  V30 27 1 27 28
M  V30 28 1 28 29
M  V30 29 1 29 30
M  V30 30 1 30 31
M  V30 31 1 31 32
M  V30 32 1 32 33
M  V30 33 1 33 34
M  V30 34 1 27 2
M  V30 35 1 34 29
M  V30 36 1 26 6
M  V30 37 1 25 9
M  V30 38 1 23 16
M  V30 39 1 1 35
M  V30 40 1 1 36
M  V30 41 1 1 37
M  V30 42 1 4 38
M  V30 43 1 7 39
M  V30 44 1 8 40
M  V30 45 1 10 41
M  V30 46 1 13 42
M  V30 47 1 16 43 CFG=1
M  V30 48 1 17 44
M  V30 49 1 17 45
M  V30 50 1 18 46
M  V30 51 1 18 47
M  V30 52 1 19 48 CFG=3
M  V30 53 1 20 49
M  V30 54 1 20 50
M  V30 55 1 21 51
M  V30 56 1 22 52
M  V30 57 1 22 53
M  V30 58 1 23 54
M  V30 59 1 23 55
M  V30 60 1 24 56
M  V30 61 1 26 57
M  V30 62 1 28 58
M  V30 63 1 28 59
M  V30 64 1 30 60
M  V30 65 1 30 61
M  V30 66 1 31 62
M  V30 67 1 31 63
M  V30 68 1 32 64
M  V30 69 1 32 65
M  V30 70 1 33 66
M  V30 71 1 33 67
M  V30 72 1 34 68
M  V30 73 1 34 69
M  V30 END BOND
M  V30 END CTAB
M  END
>  <Dataset>  (549) 
ChEMBL_Kinases

>  <Ligand_Instance>  (549) 
nan

>  <PDB_ID>  (549) 
nan

>  <Standardized_SMILES>  (549) 
Cn1ncc(-c2ccc3cnc(NC(=O)[C@H]4CC[C@H](CO)CC4)cc3c2)c1CN1CCCCC1

>  <Name>  (549) 
nan

>  <Pocket>  (549) 
nan

>  <ATP_Site>  (549) 
nan

>  <Peripheral>  (549) 
nan

>  <Num_H_Atoms_ProtBoundConf>  (549) 
nan

>  <Num_Resolved_Atoms>  (549) 
nan

>  <Num_Not_Resolved_Atoms>  (549) 
nan

$$$$
CHEMBL250871
     RDKit          3D

  0  0  0  0  0  0  0  0  0  0999 V3000
M  V30 BEGIN CTAB
M  V30 COUNTS 34 36 0 0 0
M  V30 BEGIN ATOM
M  V30 1 O 0.675094 -1.553989 4.578934 0
M  V30 2 C 0.379802 -2.129694 3.476766 0
M  V30 3 N 0.071642 -3.535214 3.374322 0
M  V30 4 C 0.406115 -4.099807 2.087281 0
M  V30 5 C -0.280147 -3.360507 0.952762 0
M  V30 6 C 0.034081 -1.904982 1.017988 0
M  V30 7 C 0.346438 -1.336345 2.234973 0
M  V30 8 C 0.578707 -0.007632 1.952445 0
M  V30 9 C 0.410075 0.228464 0.581951 0
M  V30 10 C 0.610271 1.588370 0.105057 0
M  V30 11 C 1.344413 2.027274 -0.975511 0
M  V30 12 C 1.423977 3.362876 -1.301448 0
M  V30 13 N 0.787558 4.299800 -0.577751 0
M  V30 14 C 0.051197 3.976812 0.487678 0
M  V30 15 C -0.016046 2.634520 0.797465 0
M  V30 16 N 0.080178 -0.957906 0.066698 0
M  V30 17 C -0.189296 -1.133927 -1.335333 0
M  V30 18 C -1.680905 -0.908038 -1.616121 0
M  V30 19 O -2.446851 -1.818636 -0.892033 0
M  V30 20 H -0.352580 -3.962896 4.241815 0
M  V30 21 H 0.063212 -5.155461 1.991622 0
M  V30 22 H 1.497826 -4.006324 1.916269 0
M  V30 23 H -1.369984 -3.560580 0.938574 0
M  V30 24 H 0.115890 -3.832722 0.020972 0
M  V30 25 H 0.851813 0.679299 2.768961 0
M  V30 26 H 1.854006 1.260189 -1.540452 0
M  V30 27 H 2.026117 3.603197 -2.168788 0
M  V30 28 H -0.479119 4.689984 1.101893 0
M  V30 29 H -0.616848 2.363884 1.667930 0
M  V30 30 H 0.339012 -0.476285 -2.015425 0
M  V30 31 H -0.007582 -2.203207 -1.570945 0
M  V30 32 H -1.991203 0.108402 -1.258683 0
M  V30 33 H -1.893783 -0.951668 -2.688287 0
M  V30 34 H -2.624686 -1.470734 0.036662 0
M  V30 END ATOM
M  V30 BEGIN BOND
M  V30 1 2 1 2
M  V30 2 1 2 3
M  V30 3 1 3 4
M  V30 4 1 4 5
M  V30 5 1 5 6
M  V30 6 2 6 7
M  V30 7 1 7 8
M  V30 8 2 8 9
M  V30 9 1 9 10
M  V30 10 2 10 11
M  V30 11 1 11 12
M  V30 12 2 12 13
M  V30 13 1 13 14
M  V30 14 2 14 15
M  V30 15 1 9 16
M  V30 16 1 16 17
M  V30 17 1 17 18
M  V30 18 1 18 19
M  V30 19 1 7 2
M  V30 20 1 15 10
M  V30 21 1 16 6
M  V30 22 1 3 20
M  V30 23 1 4 21
M  V30 24 1 4 22
M  V30 25 1 5 23
M  V30 26 1 5 24
M  V30 27 1 8 25
M  V30 28 1 11 26
M  V30 29 1 12 27
M  V30 30 1 14 28
M  V30 31 1 15 29
M  V30 32 1 17 30
M  V30 33 1 17 31
M  V30 34 1 18 32
M  V30 35 1 18 33
M  V30 36 1 19 34
M  V30 END BOND
M  V30 END CTAB
M  END
>  <Dataset>  (550) 
ChEMBL_Kinases

>  <Ligand_Instance>  (550) 
nan

>  <PDB_ID>  (550) 
nan

>  <Standardized_SMILES>  (550) 
O=C1NCCc2c1cc(-c1ccncc1)n2CCO

>  <Name>  (550) 
nan

>  <Pocket>  (550) 
nan

>  <ATP_Site>  (550) 
nan

>  <Peripheral>  (550) 
nan

>  <Num_H_Atoms_ProtBoundConf>  (550) 
nan

>  <Num_Resolved_Atoms>  (550) 
nan

>  <Num_Not_Resolved_Atoms>  (550) 
nan

$$$$
CHEMBL250870
     RDKit          3D

  0  0  0  0  0  0  0  0  0  0999 V3000
M  V30 BEGIN CTAB
M  V30 COUNTS 33 35 0 0 0
M  V30 BEGIN ATOM
M  V30 1 C -2.250636 -1.584155 1.605396 0
M  V30 2 C -0.916530 -1.181473 2.207680 0
M  V30 3 N -0.195452 -0.478737 1.178372 0
M  V30 4 C 0.616668 -1.097248 0.309125 0
M  V30 5 C 1.044274 -2.463960 0.063319 0
M  V30 6 C 1.497332 -3.409810 0.940569 0
M  V30 7 C 1.854596 -4.675098 0.530372 0
M  V30 8 N 1.776311 -5.047323 -0.759555 0
M  V30 9 C 1.342047 -4.183591 -1.693466 0
M  V30 10 C 0.989246 -2.921811 -1.261301 0
M  V30 11 C 1.107584 -0.076938 -0.518140 0
M  V30 12 C 0.591053 1.127966 -0.140412 0
M  V30 13 C -0.229934 0.851033 0.933742 0
M  V30 14 C -0.972297 1.949192 1.613766 0
M  V30 15 C -1.269003 3.089566 0.669965 0
M  V30 16 N -0.004408 3.537478 0.074435 0
M  V30 17 C 0.730622 2.503005 -0.610056 0
M  V30 18 O 1.479665 2.757498 -1.590469 0
M  V30 19 H -2.466183 -1.031446 0.664052 0
M  V30 20 H -3.075780 -1.466615 2.332382 0
M  V30 21 H -2.153191 -2.653014 1.308638 0
M  V30 22 H -1.181337 -0.417971 2.995766 0
M  V30 23 H -0.399639 -2.002970 2.686960 0
M  V30 24 H 1.561318 -3.096663 1.971877 0
M  V30 25 H 2.205536 -5.356743 1.319809 0
M  V30 26 H 1.261504 -4.434618 -2.741015 0
M  V30 27 H 0.636059 -2.228077 -2.039498 0
M  V30 28 H 1.792471 -0.136054 -1.351671 0
M  V30 29 H -1.863899 1.615198 2.142018 0
M  V30 30 H -0.278291 2.373114 2.385319 0
M  V30 31 H -1.975789 2.765934 -0.143415 0
M  V30 32 H -1.744864 3.890675 1.270043 0
M  V30 33 H 0.431927 4.501588 0.080499 0
M  V30 END ATOM
M  V30 BEGIN BOND
M  V30 1 1 1 2
M  V30 2 1 2 3
M  V30 3 1 3 4
M  V30 4 1 4 5
M  V30 5 2 5 6
M  V30 6 1 6 7
M  V30 7 2 7 8
M  V30 8 1 8 9
M  V30 9 2 9 10
M  V30 10 2 4 11
M  V30 11 1 11 12
M  V30 12 2 12 13
M  V30 13 1 13 14
M  V30 14 1 14 15
M  V30 15 1 15 16
M  V30 16 1 16 17
M  V30 17 2 17 18
M  V30 18 1 13 3
M  V30 19 1 10 5
M  V30 20 1 17 12
M  V30 21 1 1 19
M  V30 22 1 1 20
M  V30 23 1 1 21
M  V30 24 1 2 22
M  V30 25 1 2 23
M  V30 26 1 6 24
M  V30 27 1 7 25
M  V30 28 1 9 26
M  V30 29 1 10 27
M  V30 30 1 11 28
M  V30 31 1 14 29
M  V30 32 1 14 30
M  V30 33 1 15 31
M  V30 34 1 15 32
M  V30 35 1 16 33
M  V30 END BOND
M  V30 END CTAB
M  END
>  <Dataset>  (551) 
ChEMBL_Kinases

>  <Ligand_Instance>  (551) 
nan

>  <PDB_ID>  (551) 
nan

>  <Standardized_SMILES>  (551) 
CCn1c(-c2ccncc2)cc2c1CCNC2=O

>  <Name>  (551) 
nan

>  <Pocket>  (551) 
nan

>  <ATP_Site>  (551) 
nan

>  <Peripheral>  (551) 
nan

>  <Num_H_Atoms_ProtBoundConf>  (551) 
nan

>  <Num_Resolved_Atoms>  (551) 
nan

>  <Num_Not_Resolved_Atoms>  (551) 
nan

$$$$
CHEMBL4753143
     RDKit          3D

  0  0  0  0  0  0  0  0  0  0999 V3000
M  V30 BEGIN CTAB
M  V30 COUNTS 61 67 0 0 0
M  V30 BEGIN ATOM
M  V30 1 F 2.106104 -3.355100 5.978879 0
M  V30 2 C 1.474982 -3.147336 4.793091 0
M  V30 3 F 0.159051 -3.488596 4.760003 0
M  V30 4 C 2.309773 -3.845868 3.718182 0
M  V30 5 C 3.555873 -2.986474 3.756909 0
M  V30 6 N 3.036675 -1.634496 3.852064 0
M  V30 7 C 3.218311 -1.010178 2.589103 0
M  V30 8 C 2.760292 0.372099 2.459881 0
M  V30 9 C 3.639380 1.390953 2.770739 0
M  V30 10 N 3.368744 2.708453 2.700717 0
M  V30 11 C 2.155418 3.131393 2.300414 0
M  V30 12 C 1.253393 2.136355 1.982143 0
M  V30 13 C -0.072531 2.585667 1.544716 0
M  V30 14 C -0.633245 3.760125 2.040666 0
M  V30 15 N -1.834574 4.194848 1.662621 0
M  V30 16 C -2.528242 3.469135 0.768328 0
M  V30 17 N -3.727615 3.632052 0.202875 0
M  V30 18 N -3.969862 2.641330 -0.620007 0
M  V30 19 C -2.962073 1.756214 -0.662865 0
M  V30 20 C -2.939224 0.562178 -1.477647 0
M  V30 21 C -2.070601 -0.470194 -1.702026 0
M  V30 22 C -2.569210 -1.375732 -2.612789 0
M  V30 23 C -2.042401 -2.543807 -3.123007 0
M  V30 24 C -0.728109 -3.033133 -2.727996 0
M  V30 25 C -0.767129 -4.386011 -2.419240 0
M  V30 26 C 0.372894 -5.072517 -2.018729 0
M  V30 27 N 1.525683 -4.393493 -1.935485 0
M  V30 28 C 1.583473 -3.075915 -2.232158 0
M  V30 29 C 0.478844 -2.372826 -2.629181 0
M  V30 30 C -2.797717 -3.238270 -4.029910 0
M  V30 31 C -4.037922 -2.790197 -4.420823 0
M  V30 32 C -4.519301 -1.618131 -3.882508 0
M  V30 33 C -3.798623 -0.881181 -2.965588 0
M  V30 34 N -3.979949 0.258043 -2.277910 0
M  V30 35 C -2.062332 2.294865 0.218850 0
M  V30 36 C -0.822906 1.878638 0.631273 0
M  V30 37 C 1.507996 0.776953 2.046097 0
M  V30 38 C 1.711309 -1.692014 4.364821 0
M  V30 39 H 2.498426 -4.899673 3.968897 0
M  V30 40 H 1.751199 -3.698375 2.773359 0
M  V30 41 H 4.153527 -3.266685 4.646610 0
M  V30 42 H 4.105020 -3.150923 2.806513 0
M  V30 43 H 2.786480 -1.664722 1.775659 0
M  V30 44 H 4.319971 -1.031141 2.365094 0
M  V30 45 H 4.649341 1.141936 3.105421 0
M  V30 46 H 1.903235 4.168931 2.232123 0
M  V30 47 H -0.059743 4.337981 2.764814 0
M  V30 48 H -4.401105 4.407095 0.358475 0
M  V30 49 H -1.127323 -0.573830 -1.237370 0
M  V30 50 H -1.652202 -5.039519 -2.452199 0
M  V30 51 H 0.415744 -6.110413 -1.766417 0
M  V30 52 H 2.510521 -2.501097 -2.171901 0
M  V30 53 H 0.409415 -1.338460 -2.889117 0
M  V30 54 H -2.463568 -4.172503 -4.487109 0
M  V30 55 H -4.673503 -3.318025 -5.144932 0
M  V30 56 H -5.477367 -1.263155 -4.178849 0
M  V30 57 H -4.886686 0.760667 -2.442518 0
M  V30 58 H -0.410727 0.983244 0.244480 0
M  V30 59 H 0.792731 0.023790 1.793098 0
M  V30 60 H 0.899638 -1.484438 3.646509 0
M  V30 61 H 1.574533 -1.109127 5.320290 0
M  V30 END ATOM
M  V30 BEGIN BOND
M  V30 1 1 1 2
M  V30 2 1 2 3
M  V30 3 1 2 4
M  V30 4 1 4 5
M  V30 5 1 5 6
M  V30 6 1 6 7
M  V30 7 1 7 8
M  V30 8 2 8 9
M  V30 9 1 9 10
M  V30 10 2 10 11
M  V30 11 1 11 12
M  V30 12 1 12 13
M  V30 13 2 13 14
M  V30 14 1 14 15
M  V30 15 2 15 16
M  V30 16 1 16 17
M  V30 17 1 17 18
M  V30 18 2 18 19
M  V30 19 1 19 20
M  V30 20 2 20 21
M  V30 21 1 21 22
M  V30 22 2 22 23
M  V30 23 1 23 24
M  V30 24 2 24 25
M  V30 25 1 25 26
M  V30 26 2 26 27
M  V30 27 1 27 28
M  V30 28 2 28 29
M  V30 29 1 23 30
M  V30 30 2 30 31
M  V30 31 1 31 32
M  V30 32 2 32 33
M  V30 33 1 33 34
M  V30 34 1 19 35
M  V30 35 2 35 36
M  V30 36 2 12 37
M  V30 37 1 6 38
M  V30 38 1 38 2
M  V30 39 1 37 8
M  V30 40 1 36 13
M  V30 41 1 35 16
M  V30 42 1 34 20
M  V30 43 1 33 22
M  V30 44 1 29 24
M  V30 45 1 4 39
M  V30 46 1 4 40
M  V30 47 1 5 41
M  V30 48 1 5 42
M  V30 49 1 7 43
M  V30 50 1 7 44
M  V30 51 1 9 45
M  V30 52 1 11 46
M  V30 53 1 14 47
M  V30 54 1 17 48
M  V30 55 1 21 49
M  V30 56 1 25 50
M  V30 57 1 26 51
M  V30 58 1 28 52
M  V30 59 1 29 53
M  V30 60 1 30 54
M  V30 61 1 31 55
M  V30 62 1 32 56
M  V30 63 1 34 57
M  V30 64 1 36 58
M  V30 65 1 37 59
M  V30 66 1 38 60
M  V30 67 1 38 61
M  V30 END BOND
M  V30 END CTAB
M  END
>  <Dataset>  (552) 
ChEMBL_Kinases

>  <Ligand_Instance>  (552) 
nan

>  <PDB_ID>  (552) 
nan

>  <Standardized_SMILES>  (552) 
FC1(F)CCN(Cc2cncc(-c3cnc4[nH]nc(-c5cc6c(-c7ccncc7)cccc6[nH]5)c4c3)c2)C1

>  <Name>  (552) 
nan

>  <Pocket>  (552) 
nan

>  <ATP_Site>  (552) 
nan

>  <Peripheral>  (552) 
nan

>  <Num_H_Atoms_ProtBoundConf>  (552) 
nan

>  <Num_Resolved_Atoms>  (552) 
nan

>  <Num_Not_Resolved_Atoms>  (552) 
nan

$$$$
CHEMBL4760846
     RDKit          3D

  0  0  0  0  0  0  0  0  0  0999 V3000
M  V30 BEGIN CTAB
M  V30 COUNTS 46 51 0 0 0
M  V30 BEGIN ATOM
M  V30 1 C -6.233566 -0.894763 2.045339 0
M  V30 2 N -4.815579 -1.028963 1.737609 0
M  V30 3 C -4.126468 -2.156590 1.526228 0
M  V30 4 C -2.828450 -1.762316 1.274613 0
M  V30 5 C -1.754352 -2.708061 0.992356 0
M  V30 6 C -0.459900 -2.327375 0.740682 0
M  V30 7 C 0.554078 -3.222266 0.474075 0
M  V30 8 C 1.899742 -3.085868 0.197342 0
M  V30 9 C 2.658030 -1.840996 0.109439 0
M  V30 10 N 2.141071 -0.612235 0.290366 0
M  V30 11 C 3.124990 0.319890 0.136542 0
M  V30 12 C 3.302396 1.690677 0.178869 0
M  V30 13 C 2.101187 2.459494 0.477743 0
M  V30 14 C 1.697814 3.599557 -0.184256 0
M  V30 15 C 0.533775 4.233829 0.201123 0
M  V30 16 C -0.249162 3.764785 1.234596 0
M  V30 17 C 0.114266 2.612024 1.939610 0
M  V30 18 F -0.603646 2.102319 2.956069 0
M  V30 19 C 1.299864 2.011629 1.507656 0
M  V30 20 C 4.546819 2.246246 -0.051992 0
M  V30 21 N 5.630522 1.501323 -0.324614 0
M  V30 22 C 5.473132 0.158734 -0.369531 0
M  V30 23 C 4.253263 -0.446773 -0.146774 0
M  V30 24 N 3.973869 -1.769050 -0.164701 0
M  V30 25 N 2.361822 -4.334552 0.026884 0
M  V30 26 N 1.400621 -5.233581 0.177883 0
M  V30 27 C 0.247576 -4.562423 0.460889 0
M  V30 28 C -1.055705 -4.949570 0.714056 0
M  V30 29 N -2.020564 -4.022206 0.972163 0
M  V30 30 C -2.740160 -0.388600 1.335879 0
M  V30 31 N -3.994839 0.002251 1.624015 0
M  V30 32 H -6.770683 -0.877612 1.058942 0
M  V30 33 H -6.557294 -1.832045 2.542808 0
M  V30 34 H -6.447581 0.010787 2.631949 0
M  V30 35 H -4.536205 -3.159644 1.554524 0
M  V30 36 H -0.217768 -1.277258 0.750603 0
M  V30 37 H 2.322685 3.950856 -0.989161 0
M  V30 38 H 0.279622 5.125979 -0.366249 0
M  V30 39 H -1.155729 4.273681 1.521833 0
M  V30 40 H 1.574333 1.122177 2.056410 0
M  V30 41 H 4.630863 3.322570 -0.007074 0
M  V30 42 H 6.389211 -0.397699 -0.595716 0
M  V30 43 H 4.639539 -2.542404 -0.350563 0
M  V30 44 H 1.427388 -6.277626 0.111436 0
M  V30 45 H -1.298303 -5.990134 0.704793 0
M  V30 46 H -1.824230 0.145331 1.173209 0
M  V30 END ATOM
M  V30 BEGIN BOND
M  V30 1 1 1 2
M  V30 2 1 2 3
M  V30 3 2 3 4
M  V30 4 1 4 5
M  V30 5 2 5 6
M  V30 6 1 6 7
M  V30 7 1 7 8
M  V30 8 1 8 9
M  V30 9 2 9 10
M  V30 10 1 10 11
M  V30 11 2 11 12
M  V30 12 1 12 13
M  V30 13 2 13 14
M  V30 14 1 14 15
M  V30 15 2 15 16
M  V30 16 1 16 17
M  V30 17 1 17 18
M  V30 18 2 17 19
M  V30 19 1 12 20
M  V30 20 2 20 21
M  V30 21 1 21 22
M  V30 22 2 22 23
M  V30 23 1 23 24
M  V30 24 2 8 25
M  V30 25 1 25 26
M  V30 26 1 26 27
M  V30 27 1 27 28
M  V30 28 2 28 29
M  V30 29 1 4 30
M  V30 30 2 30 31
M  V30 31 1 31 2
M  V30 32 1 29 5
M  V30 33 2 27 7
M  V30 34 1 24 9
M  V30 35 1 23 11
M  V30 36 1 19 13
M  V30 37 1 1 32
M  V30 38 1 1 33
M  V30 39 1 1 34
M  V30 40 1 3 35
M  V30 41 1 6 36
M  V30 42 1 14 37
M  V30 43 1 15 38
M  V30 44 1 16 39
M  V30 45 1 19 40
M  V30 46 1 20 41
M  V30 47 1 22 42
M  V30 48 1 24 43
M  V30 49 1 26 44
M  V30 50 1 28 45
M  V30 51 1 30 46
M  V30 END BOND
M  V30 END CTAB
M  END
>  <Dataset>  (553) 
ChEMBL_Kinases

>  <Ligand_Instance>  (553) 
nan

>  <PDB_ID>  (553) 
nan

>  <Standardized_SMILES>  (553) 
Cn1cc(-c2cc3c(-c4nc5c(-c6cccc(F)c6)cncc5[nH]4)n[nH]c3cn2)cn1

>  <Name>  (553) 
nan

>  <Pocket>  (553) 
nan

>  <ATP_Site>  (553) 
nan

>  <Peripheral>  (553) 
nan

>  <Num_H_Atoms_ProtBoundConf>  (553) 
nan

>  <Num_Resolved_Atoms>  (553) 
nan

>  <Num_Not_Resolved_Atoms>  (553) 
nan

$$$$
CHEMBL4760804
     RDKit          3D

  0  0  0  0  0  0  0  0  0  0999 V3000
M  V30 BEGIN CTAB
M  V30 COUNTS 57 62 0 0 0
M  V30 BEGIN ATOM
M  V30 1 C 1.774673 -2.910101 3.211175 0
M  V30 2 C 2.381336 -2.237805 1.992242 0
M  V30 3 N 3.802126 -2.385188 1.937635 0
M  V30 4 C 4.385308 -1.751627 0.787457 0
M  V30 5 C 4.094462 -0.273179 0.777345 0
M  V30 6 C 5.013989 0.546186 1.416096 0
M  V30 7 N 4.777452 1.869141 1.421874 0
M  V30 8 C 3.685577 2.367699 0.826533 0
M  V30 9 C 2.762084 1.543835 0.184806 0
M  V30 10 C 1.603863 2.177829 -0.434174 0
M  V30 11 C 1.826436 3.459228 -0.937370 0
M  V30 12 N 0.824592 4.147026 -1.534143 0
M  V30 13 C -0.395529 3.590537 -1.642858 0
M  V30 14 N -1.566732 3.996818 -2.163649 0
M  V30 15 N -2.463611 3.067406 -2.012627 0
M  V30 16 C -1.990943 1.973088 -1.390150 0
M  V30 17 C -2.748339 0.781831 -1.082934 0
M  V30 18 C -2.528117 -0.410879 -0.491078 0
M  V30 19 C -3.651520 -1.206648 -0.466047 0
M  V30 20 C -3.908285 -2.471960 0.019010 0
M  V30 21 C -2.843549 -3.226921 0.662995 0
M  V30 22 C -2.454127 -3.289965 1.967744 0
M  V30 23 C -1.404186 -4.086533 2.347869 0
M  V30 24 C -0.709637 -4.846687 1.430917 0
M  V30 25 C -1.083193 -4.801961 0.100777 0
M  V30 26 C -2.150933 -3.991686 -0.284528 0
M  V30 27 F -2.391964 -4.058925 -1.624776 0
M  V30 28 C -5.173057 -3.013104 -0.109884 0
M  V30 29 N -6.119438 -2.270448 -0.713987 0
M  V30 30 C -5.871123 -1.035305 -1.188107 0
M  V30 31 C -4.613757 -0.464446 -1.074564 0
M  V30 32 N -4.057404 0.701931 -1.428728 0
M  V30 33 C -0.681940 2.316793 -1.161627 0
M  V30 34 C 0.354301 1.651627 -0.564907 0
M  V30 35 C 2.950997 0.198117 0.148166 0
M  V30 36 H 0.769163 -2.473087 3.384674 0
M  V30 37 H 1.649542 -3.990094 3.012972 0
M  V30 38 H 2.422126 -2.786224 4.114711 0
M  V30 39 H 2.167200 -1.131051 2.068787 0
M  V30 40 H 1.923449 -2.699357 1.095664 0
M  V30 41 H 4.295669 -2.248745 2.825269 0
M  V30 42 H 3.868024 -2.167152 -0.096795 0
M  V30 43 H 5.462534 -1.939283 0.753556 0
M  V30 44 H 5.887747 0.113148 1.889207 0
M  V30 45 H 3.600737 3.463143 0.897519 0
M  V30 46 H 2.772373 3.979568 -0.892221 0
M  V30 47 H -1.743725 4.908606 -2.619129 0
M  V30 48 H -1.592659 -0.720773 -0.081643 0
M  V30 49 H -3.063152 -2.656679 2.606933 0
M  V30 50 H -1.175524 -4.066873 3.399134 0
M  V30 51 H 0.113721 -5.458773 1.789506 0
M  V30 52 H -0.509052 -5.412457 -0.566535 0
M  V30 53 H -5.337528 -4.015687 0.285921 0
M  V30 54 H -6.645648 -0.479037 -1.659942 0
M  V30 55 H -4.679481 1.398586 -1.917824 0
M  V30 56 H 0.196630 0.683518 -0.181575 0
M  V30 57 H 2.250057 -0.470771 -0.343603 0
M  V30 END ATOM
M  V30 BEGIN BOND
M  V30 1 1 1 2
M  V30 2 1 2 3
M  V30 3 1 3 4
M  V30 4 1 4 5
M  V30 5 2 5 6
M  V30 6 1 6 7
M  V30 7 2 7 8
M  V30 8 1 8 9
M  V30 9 1 9 10
M  V30 10 2 10 11
M  V30 11 1 11 12
M  V30 12 2 12 13
M  V30 13 1 13 14
M  V30 14 1 14 15
M  V30 15 2 15 16
M  V30 16 1 16 17
M  V30 17 2 17 18
M  V30 18 1 18 19
M  V30 19 2 19 20
M  V30 20 1 20 21
M  V30 21 2 21 22
M  V30 22 1 22 23
M  V30 23 2 23 24
M  V30 24 1 24 25
M  V30 25 2 25 26
M  V30 26 1 26 27
M  V30 27 1 20 28
M  V30 28 2 28 29
M  V30 29 1 29 30
M  V30 30 2 30 31
M  V30 31 1 31 32
M  V30 32 1 16 33
M  V30 33 2 33 34
M  V30 34 2 9 35
M  V30 35 1 35 5
M  V30 36 1 34 10
M  V30 37 1 33 13
M  V30 38 1 32 17
M  V30 39 1 31 19
M  V30 40 1 26 21
M  V30 41 1 1 36
M  V30 42 1 1 37
M  V30 43 1 1 38
M  V30 44 1 2 39
M  V30 45 1 2 40
M  V30 46 1 3 41
M  V30 47 1 4 42
M  V30 48 1 4 43
M  V30 49 1 6 44
M  V30 50 1 8 45
M  V30 51 1 11 46
M  V30 52 1 14 47
M  V30 53 1 18 48
M  V30 54 1 22 49
M  V30 55 1 23 50
M  V30 56 1 24 51
M  V30 57 1 25 52
M  V30 58 1 28 53
M  V30 59 1 30 54
M  V30 60 1 32 55
M  V30 61 1 34 56
M  V30 62 1 35 57
M  V30 END BOND
M  V30 END CTAB
M  END
>  <Dataset>  (554) 
ChEMBL_Kinases

>  <Ligand_Instance>  (554) 
nan

>  <PDB_ID>  (554) 
nan

>  <Standardized_SMILES>  (554) 
CCNCc1cncc(-c2cnc3[nH]nc(-c4cc5c(-c6ccccc6F)cncc5[nH]4)c3c2)c1

>  <Name>  (554) 
nan

>  <Pocket>  (554) 
nan

>  <ATP_Site>  (554) 
nan

>  <Peripheral>  (554) 
nan

>  <Num_H_Atoms_ProtBoundConf>  (554) 
nan

>  <Num_Resolved_Atoms>  (554) 
nan

>  <Num_Not_Resolved_Atoms>  (554) 
nan

$$$$
CHEMBL184510
     RDKit          3D

  0  0  0  0  0  0  0  0  0  0999 V3000
M  V30 BEGIN CTAB
M  V30 COUNTS 34 37 0 0 0
M  V30 BEGIN ATOM
M  V30 1 F 0.428075 -3.048237 3.315214 0
M  V30 2 C 0.603750 -3.259837 1.972742 0
M  V30 3 C 0.215593 -4.488375 1.422136 0
M  V30 4 C 0.385416 -4.712595 0.071154 0
M  V30 5 F 0.012995 -5.905601 -0.502633 0
M  V30 6 C 0.934501 -3.725039 -0.718042 0
M  V30 7 C 1.320272 -2.510219 -0.186161 0
M  V30 8 N 1.882347 -1.498389 -1.050253 0
M  V30 9 C 2.200006 -0.204978 -0.496443 0
M  V30 10 N 3.321096 0.509506 -0.300142 0
M  V30 11 C 3.244656 1.722513 0.271813 0
M  V30 12 C 2.047033 2.267639 0.669199 0
M  V30 13 C 0.885550 1.540402 0.471738 0
M  V30 14 C -0.428752 2.049748 0.887616 0
M  V30 15 C -0.847782 3.247267 1.426688 0
M  V30 16 N -2.165337 3.144591 1.617624 0
M  V30 17 N -2.643028 1.972869 1.244906 0
M  V30 18 N -3.862838 1.457559 1.261403 0
M  V30 19 C -4.137918 0.223773 0.834482 0
M  V30 20 C -3.111067 -0.594712 0.338218 0
M  V30 21 C -1.847791 0.003959 0.345042 0
M  V30 22 C -1.577946 1.296773 0.795235 0
M  V30 23 N 1.051498 0.323157 -0.113247 0
M  V30 24 C 1.154287 -2.278702 1.161929 0
M  V30 25 H -0.213891 -5.242765 2.069628 0
M  V30 26 H 1.081500 -3.870451 -1.792018 0
M  V30 27 H 2.046363 -1.729952 -2.060352 0
M  V30 28 H 4.196123 2.215290 0.384488 0
M  V30 29 H 2.015723 3.260854 1.132568 0
M  V30 30 H -0.157070 4.051049 1.617832 0
M  V30 31 H -5.144300 -0.216058 0.842647 0
M  V30 32 H -3.271474 -1.596996 -0.017725 0
M  V30 33 H -1.083265 -0.640354 -0.037323 0
M  V30 34 H 1.464069 -1.307174 1.578279 0
M  V30 END ATOM
M  V30 BEGIN BOND
M  V30 1 1 1 2
M  V30 2 2 2 3
M  V30 3 1 3 4
M  V30 4 1 4 5
M  V30 5 2 4 6
M  V30 6 1 6 7
M  V30 7 1 7 8
M  V30 8 1 8 9
M  V30 9 2 9 10
M  V30 10 1 10 11
M  V30 11 2 11 12
M  V30 12 1 12 13
M  V30 13 1 13 14
M  V30 14 1 14 15
M  V30 15 2 15 16
M  V30 16 1 16 17
M  V30 17 1 17 18
M  V30 18 2 18 19
M  V30 19 1 19 20
M  V30 20 2 20 21
M  V30 21 1 21 22
M  V30 22 2 13 23
M  V30 23 2 7 24
M  V30 24 1 24 2
M  V30 25 1 23 9
M  V30 26 2 22 14
M  V30 27 1 22 17
M  V30 28 1 3 25
M  V30 29 1 6 26
M  V30 30 1 8 27
M  V30 31 1 11 28
M  V30 32 1 12 29
M  V30 33 1 15 30
M  V30 34 1 19 31
M  V30 35 1 20 32
M  V30 36 1 21 33
M  V30 37 1 24 34
M  V30 END BOND
M  V30 END CTAB
M  END
>  <Dataset>  (555) 
ChEMBL_Kinases

>  <Ligand_Instance>  (555) 
nan

>  <PDB_ID>  (555) 
nan

>  <Standardized_SMILES>  (555) 
Fc1cc(F)cc(Nc2nccc(-c3cnn4ncccc34)n2)c1

>  <Name>  (555) 
nan

>  <Pocket>  (555) 
nan

>  <ATP_Site>  (555) 
nan

>  <Peripheral>  (555) 
nan

>  <Num_H_Atoms_ProtBoundConf>  (555) 
nan

>  <Num_Resolved_Atoms>  (555) 
nan

>  <Num_Not_Resolved_Atoms>  (555) 
nan

$$$$
CHEMBL184548
     RDKit          3D

  0  0  0  0  0  0  0  0  0  0999 V3000
M  V30 BEGIN CTAB
M  V30 COUNTS 56 59 0 0 0
M  V30 BEGIN ATOM
M  V30 1 C 0.472505 -1.243695 4.080288 0
M  V30 2 N 1.837333 -0.952081 4.194474 0
M  V30 3 C 2.747859 -1.988044 4.510263 0
M  V30 4 C 2.343862 0.259647 3.682995 0
M  V30 5 C 2.271816 0.306383 2.142791 0
M  V30 6 C 3.032069 -0.832358 1.549476 0
M  V30 7 C 3.039858 -0.799169 0.077147 0
M  V30 8 N 1.779606 -0.848251 -0.613455 0
M  V30 9 C 0.983372 0.150621 -1.104881 0
M  V30 10 C -0.128665 -0.343781 -1.761314 0
M  V30 11 C -1.212391 0.367877 -2.416982 0
M  V30 12 C -2.041779 1.344875 -2.108989 0
M  V30 13 N -2.219151 2.142918 -0.931856 0
M  V30 14 C -2.804077 1.191399 -0.020384 0
M  V30 15 C -4.173052 0.887649 -0.045329 0
M  V30 16 C -4.720761 -0.030676 0.826404 0
M  V30 17 C -3.905547 -0.674491 1.751937 0
M  V30 18 C -2.561365 -0.348669 1.746103 0
M  V30 19 C -1.968288 0.558167 0.900777 0
M  V30 20 C -2.926791 1.649458 -3.219723 0
M  V30 21 O -3.856210 2.494374 -3.357413 0
M  V30 22 N -2.601403 0.765536 -4.316710 0
M  V30 23 C -1.517483 -0.044898 -3.808833 0
M  V30 24 O -1.045988 -0.920217 -4.611882 0
M  V30 25 C 0.004776 -1.705387 -1.656071 0
M  V30 26 C -0.771756 -2.761685 -2.088192 0
M  V30 27 C -0.444834 -4.082075 -1.859283 0
M  V30 28 C 0.729476 -4.370840 -1.153255 0
M  V30 29 C 1.517818 -3.327824 -0.712535 0
M  V30 30 C 1.167222 -2.008336 -0.957047 0
M  V30 31 H 0.292322 -1.784637 3.098527 0
M  V30 32 H 0.044450 -1.890187 4.864206 0
M  V30 33 H -0.085231 -0.272171 3.991054 0
M  V30 34 H 2.968671 -2.045645 5.612356 0
M  V30 35 H 3.757272 -1.860815 4.043890 0
M  V30 36 H 2.280228 -2.971953 4.244515 0
M  V30 37 H 3.412704 0.444149 3.935134 0
M  V30 38 H 1.787199 1.160609 4.025405 0
M  V30 39 H 2.738808 1.247783 1.833137 0
M  V30 40 H 1.238258 0.257145 1.802692 0
M  V30 41 H 4.113207 -0.818611 1.886566 0
M  V30 42 H 2.637761 -1.829163 1.866821 0
M  V30 43 H 3.560090 0.132543 -0.310866 0
M  V30 44 H 3.684492 -1.630528 -0.369192 0
M  V30 45 H 1.212740 1.203853 -0.983745 0
M  V30 46 H -1.984146 3.159870 -0.769420 0
M  V30 47 H -4.815575 1.390004 -0.778841 0
M  V30 48 H -5.763794 -0.291999 0.836837 0
M  V30 49 H -4.216632 -1.416348 2.487349 0
M  V30 50 H -1.867485 -0.807006 2.439631 0
M  V30 51 H -0.927849 0.789646 0.929255 0
M  V30 52 H -3.070455 0.747516 -5.262518 0
M  V30 53 H -1.711387 -2.642241 -2.645664 0
M  V30 54 H -1.072820 -4.911817 -2.212914 0
M  V30 55 H 0.946692 -5.409944 -1.001075 0
M  V30 56 H 2.435947 -3.592345 -0.158813 0
M  V30 END ATOM
M  V30 BEGIN BOND
M  V30 1 1 1 2
M  V30 2 1 2 3
M  V30 3 1 2 4
M  V30 4 1 4 5
M  V30 5 1 5 6
M  V30 6 1 6 7
M  V30 7 1 7 8
M  V30 8 1 8 9
M  V30 9 2 9 10
M  V30 10 1 10 11
M  V30 11 2 11 12
M  V30 12 1 12 13
M  V30 13 1 13 14
M  V30 14 2 14 15
M  V30 15 1 15 16
M  V30 16 2 16 17
M  V30 17 1 17 18
M  V30 18 2 18 19
M  V30 19 1 12 20
M  V30 20 2 20 21
M  V30 21 1 20 22
M  V30 22 1 22 23
M  V30 23 2 23 24
M  V30 24 1 10 25
M  V30 25 2 25 26
M  V30 26 1 26 27
M  V30 27 2 27 28
M  V30 28 1 28 29
M  V30 29 2 29 30
M  V30 30 1 30 8
M  V30 31 1 23 11
M  V30 32 1 30 25
M  V30 33 1 19 14
M  V30 34 1 1 31
M  V30 35 1 1 32
M  V30 36 1 1 33
M  V30 37 1 3 34
M  V30 38 1 3 35
M  V30 39 1 3 36
M  V30 40 1 4 37
M  V30 41 1 4 38
M  V30 42 1 5 39
M  V30 43 1 5 40
M  V30 44 1 6 41
M  V30 45 1 6 42
M  V30 46 1 7 43
M  V30 47 1 7 44
M  V30 48 1 9 45
M  V30 49 1 13 46
M  V30 50 1 15 47
M  V30 51 1 16 48
M  V30 52 1 17 49
M  V30 53 1 18 50
M  V30 54 1 19 51
M  V30 55 1 22 52
M  V30 56 1 26 53
M  V30 57 1 27 54
M  V30 58 1 28 55
M  V30 59 1 29 56
M  V30 END BOND
M  V30 END CTAB
M  END
>  <Dataset>  (556) 
ChEMBL_Kinases

>  <Ligand_Instance>  (556) 
nan

>  <PDB_ID>  (556) 
nan

>  <Standardized_SMILES>  (556) 
CN(C)CCCCn1cc(C2=C(Nc3ccccc3)C(=O)NC2=O)c2ccccc21

>  <Name>  (556) 
nan

>  <Pocket>  (556) 
nan

>  <ATP_Site>  (556) 
nan

>  <Peripheral>  (556) 
nan

>  <Num_H_Atoms_ProtBoundConf>  (556) 
nan

>  <Num_Resolved_Atoms>  (556) 
nan

>  <Num_Not_Resolved_Atoms>  (556) 
nan

$$$$
CHEMBL184647
     RDKit          3D

  0  0  0  0  0  0  0  0  0  0999 V3000
M  V30 BEGIN CTAB
M  V30 COUNTS 59 62 0 0 0
M  V30 BEGIN ATOM
M  V30 1 C 0.872468 -1.301581 7.501234 0
M  V30 2 N 1.396656 -1.272241 6.125451 0
M  V30 3 C 2.744879 -1.804196 6.211946 0
M  V30 4 C 1.367903 0.068580 5.618450 0
M  V30 5 C 1.876655 0.196191 4.222031 0
M  V30 6 C 1.123225 -0.602047 3.206072 0
M  V30 7 C -0.312368 -0.192459 3.158968 0
M  V30 8 C -1.131247 -0.973786 2.133163 0
M  V30 9 N -0.597626 -0.780839 0.799870 0
M  V30 10 C -1.045561 0.260314 0.050929 0
M  V30 11 C -0.409337 0.265792 -1.173085 0
M  V30 12 C -0.624045 1.234321 -2.239435 0
M  V30 13 C -0.732449 1.163806 -3.545796 0
M  V30 14 N -0.678859 0.072857 -4.431874 0
M  V30 15 C -1.547111 -1.035707 -4.420857 0
M  V30 16 C -2.559614 -1.178538 -3.512082 0
M  V30 17 C -3.426812 -2.252381 -3.479001 0
M  V30 18 C -3.263950 -3.250702 -4.425051 0
M  V30 19 C -2.245046 -3.147711 -5.371649 0
M  V30 20 C -1.420400 -2.042425 -5.337173 0
M  V30 21 C -0.946756 2.512797 -4.112721 0
M  V30 22 O -1.097339 2.873468 -5.307780 0
M  V30 23 N -0.964392 3.449306 -3.042132 0
M  V30 24 C -0.765613 2.666172 -1.882707 0
M  V30 25 O -0.728144 3.211856 -0.726629 0
M  V30 26 C 0.431469 -0.823500 -1.099701 0
M  V30 27 C 1.328388 -1.343385 -2.006706 0
M  V30 28 C 2.090200 -2.460908 -1.737868 0
M  V30 29 C 1.945894 -3.081581 -0.508104 0
M  V30 30 C 1.051391 -2.594372 0.445991 0
M  V30 31 C 0.323088 -1.474574 0.110115 0
M  V30 32 H -0.190074 -0.994134 7.510203 0
M  V30 33 H 0.954967 -2.330179 7.886614 0
M  V30 34 H 1.467320 -0.582843 8.111883 0
M  V30 35 H 3.472567 -0.985285 6.009894 0
M  V30 36 H 2.901213 -2.587312 5.456778 0
M  V30 37 H 2.960801 -2.279738 7.199904 0
M  V30 38 H 0.339737 0.471587 5.671892 0
M  V30 39 H 2.034118 0.701506 6.257542 0
M  V30 40 H 1.863572 1.252935 3.873592 0
M  V30 41 H 2.969136 -0.089656 4.164896 0
M  V30 42 H 1.204139 -1.702875 3.374426 0
M  V30 43 H 1.615453 -0.385234 2.211119 0
M  V30 44 H -0.340660 0.871022 2.774452 0
M  V30 45 H -0.805605 -0.152258 4.128652 0
M  V30 46 H -1.006686 -2.053617 2.369838 0
M  V30 47 H -2.177473 -0.676917 2.224372 0
M  V30 48 H -1.793585 1.017194 0.313989 0
M  V30 49 H 0.089921 0.117662 -5.155980 0
M  V30 50 H -2.738922 -0.436495 -2.749471 0
M  V30 51 H -4.221050 -2.341448 -2.747310 0
M  V30 52 H -3.898204 -4.128880 -4.473273 0
M  V30 53 H -2.059715 -3.883700 -6.135906 0
M  V30 54 H -0.619980 -1.961617 -6.080868 0
M  V30 55 H -1.095761 4.487400 -3.104566 0
M  V30 56 H 1.466048 -0.879701 -2.971930 0
M  V30 57 H 2.780271 -2.833216 -2.480120 0
M  V30 58 H 2.529039 -3.957886 -0.271264 0
M  V30 59 H 0.912735 -3.053777 1.416320 0
M  V30 END ATOM
M  V30 BEGIN BOND
M  V30 1 1 1 2
M  V30 2 1 2 3
M  V30 3 1 2 4
M  V30 4 1 4 5
M  V30 5 1 5 6
M  V30 6 1 6 7
M  V30 7 1 7 8
M  V30 8 1 8 9
M  V30 9 1 9 10
M  V30 10 2 10 11
M  V30 11 1 11 12
M  V30 12 2 12 13
M  V30 13 1 13 14
M  V30 14 1 14 15
M  V30 15 2 15 16
M  V30 16 1 16 17
M  V30 17 2 17 18
M  V30 18 1 18 19
M  V30 19 2 19 20
M  V30 20 1 13 21
M  V30 21 2 21 22
M  V30 22 1 21 23
M  V30 23 1 23 24
M  V30 24 2 24 25
M  V30 25 1 11 26
M  V30 26 2 26 27
M  V30 27 1 27 28
M  V30 28 2 28 29
M  V30 29 1 29 30
M  V30 30 2 30 31
M  V30 31 1 31 9
M  V30 32 1 24 12
M  V30 33 1 31 26
M  V30 34 1 20 15
M  V30 35 1 1 32
M  V30 36 1 1 33
M  V30 37 1 1 34
M  V30 38 1 3 35
M  V30 39 1 3 36
M  V30 40 1 3 37
M  V30 41 1 4 38
M  V30 42 1 4 39
M  V30 43 1 5 40
M  V30 44 1 5 41
M  V30 45 1 6 42
M  V30 46 1 6 43
M  V30 47 1 7 44
M  V30 48 1 7 45
M  V30 49 1 8 46
M  V30 50 1 8 47
M  V30 51 1 10 48
M  V30 52 1 14 49
M  V30 53 1 16 50
M  V30 54 1 17 51
M  V30 55 1 18 52
M  V30 56 1 19 53
M  V30 57 1 20 54
M  V30 58 1 23 55
M  V30 59 1 27 56
M  V30 60 1 28 57
M  V30 61 1 29 58
M  V30 62 1 30 59
M  V30 END BOND
M  V30 END CTAB
M  END
>  <Dataset>  (557) 
ChEMBL_Kinases

>  <Ligand_Instance>  (557) 
nan

>  <PDB_ID>  (557) 
nan

>  <Standardized_SMILES>  (557) 
CN(C)CCCCCn1cc(C2=C(Nc3ccccc3)C(=O)NC2=O)c2ccccc21

>  <Name>  (557) 
nan

>  <Pocket>  (557) 
nan

>  <ATP_Site>  (557) 
nan

>  <Peripheral>  (557) 
nan

>  <Num_H_Atoms_ProtBoundConf>  (557) 
nan

>  <Num_Resolved_Atoms>  (557) 
nan

>  <Num_Not_Resolved_Atoms>  (557) 
nan

$$$$
CHEMBL4760685
     RDKit          3D

  0  0  0  0  0  0  0  0  0  0999 V3000
M  V30 BEGIN CTAB
M  V30 COUNTS 61 67 0 0 0
M  V30 BEGIN ATOM
M  V30 1 F 6.240139 -0.793253 5.529377 0
M  V30 2 C 5.534058 -0.500584 4.377402 0
M  V30 3 F 4.990419 -1.668293 3.904866 0
M  V30 4 C 6.408621 0.154798 3.352366 0
M  V30 5 C 5.796087 1.505687 3.020557 0
M  V30 6 N 4.975885 1.779480 4.137508 0
M  V30 7 C 4.059089 2.856913 4.044579 0
M  V30 8 C 3.127074 2.600896 2.917806 0
M  V30 9 C 3.421460 3.031122 1.618443 0
M  V30 10 N 2.618467 2.834859 0.556931 0
M  V30 11 C 1.442547 2.193223 0.671213 0
M  V30 12 C 1.092271 1.742554 1.928568 0
M  V30 13 C -0.179700 1.035045 2.112720 0
M  V30 14 C -0.864563 1.134948 3.324713 0
M  V30 15 C -2.058546 0.458146 3.470780 0
M  V30 16 C -2.559197 -0.297061 2.442539 0
M  V30 17 N -3.643943 -1.040684 2.280000 0
M  V30 18 N -3.672681 -1.578187 1.079755 0
M  V30 19 C -2.590426 -1.222947 0.348880 0
M  V30 20 C -2.309714 -1.637281 -1.007831 0
M  V30 21 C -3.167040 -2.478883 -1.709164 0
M  V30 22 C -2.698642 -2.738720 -2.975515 0
M  V30 23 C -3.150211 -3.488284 -4.041623 0
M  V30 24 C -4.408215 -4.219414 -3.937578 0
M  V30 25 C -5.647915 -3.818433 -3.482763 0
M  V30 26 C -6.681512 -4.739532 -3.490226 0
M  V30 27 C -6.513059 -6.034701 -3.934212 0
M  V30 28 N -5.280452 -6.420025 -4.382487 0
M  V30 29 C -4.257572 -5.538352 -4.384288 0
M  V30 30 C -2.424050 -3.549891 -5.216111 0
M  V30 31 C -1.246145 -2.838300 -5.271642 0
M  V30 32 N -0.824476 -2.111935 -4.216452 0
M  V30 33 C -1.522575 -2.045358 -3.070156 0
M  V30 34 N -1.346512 -1.426051 -1.902834 0
M  V30 35 C -1.913004 -0.420705 1.230900 0
M  V30 36 C -0.725880 0.262932 1.110349 0
M  V30 37 C 1.920116 1.947047 3.013650 0
M  V30 38 C 4.500282 0.562018 4.695084 0
M  V30 39 H 7.472558 0.246380 3.666894 0
M  V30 40 H 6.402424 -0.483315 2.426938 0
M  V30 41 H 6.573805 2.264396 2.806617 0
M  V30 42 H 5.181201 1.387995 2.110264 0
M  V30 43 H 3.466394 2.975175 4.995121 0
M  V30 44 H 4.526140 3.838699 3.871432 0
M  V30 45 H 4.334250 3.555514 1.406491 0
M  V30 46 H 0.835058 2.060062 -0.202684 0
M  V30 47 H -0.478572 1.724684 4.135509 0
M  V30 48 H -2.654245 0.477197 4.367896 0
M  V30 49 H -4.421472 -1.229896 2.957820 0
M  V30 50 H -4.101201 -2.916498 -1.368804 0
M  V30 51 H -5.654852 -2.797247 -3.169791 0
M  V30 52 H -7.626803 -4.346977 -3.116609 0
M  V30 53 H -7.362801 -6.715287 -3.916797 0
M  V30 54 H -3.374670 -6.039865 -4.775012 0
M  V30 55 H -2.737086 -4.130593 -6.093870 0
M  V30 56 H -0.631243 -2.848726 -6.171311 0
M  V30 57 H -0.514484 -0.837999 -1.747318 0
M  V30 58 H -0.155001 0.223847 0.203947 0
M  V30 59 H 1.613855 1.584355 3.980242 0
M  V30 60 H 3.582089 0.252766 4.154318 0
M  V30 61 H 4.256355 0.601921 5.768036 0
M  V30 END ATOM
M  V30 BEGIN BOND
M  V30 1 1 1 2
M  V30 2 1 2 3
M  V30 3 1 2 4
M  V30 4 1 4 5
M  V30 5 1 5 6
M  V30 6 1 6 7
M  V30 7 1 7 8
M  V30 8 2 8 9
M  V30 9 1 9 10
M  V30 10 2 10 11
M  V30 11 1 11 12
M  V30 12 1 12 13
M  V30 13 2 13 14
M  V30 14 1 14 15
M  V30 15 2 15 16
M  V30 16 1 16 17
M  V30 17 1 17 18
M  V30 18 2 18 19
M  V30 19 1 19 20
M  V30 20 2 20 21
M  V30 21 1 21 22
M  V30 22 2 22 23
M  V30 23 1 23 24
M  V30 24 2 24 25
M  V30 25 1 25 26
M  V30 26 2 26 27
M  V30 27 1 27 28
M  V30 28 2 28 29
M  V30 29 1 23 30
M  V30 30 2 30 31
M  V30 31 1 31 32
M  V30 32 2 32 33
M  V30 33 1 33 34
M  V30 34 1 19 35
M  V30 35 2 35 36
M  V30 36 2 12 37
M  V30 37 1 6 38
M  V30 38 1 38 2
M  V30 39 1 37 8
M  V30 40 1 36 13
M  V30 41 1 35 16
M  V30 42 1 34 20
M  V30 43 1 33 22
M  V30 44 1 29 24
M  V30 45 1 4 39
M  V30 46 1 4 40
M  V30 47 1 5 41
M  V30 48 1 5 42
M  V30 49 1 7 43
M  V30 50 1 7 44
M  V30 51 1 9 45
M  V30 52 1 11 46
M  V30 53 1 14 47
M  V30 54 1 15 48
M  V30 55 1 17 49
M  V30 56 1 21 50
M  V30 57 1 25 51
M  V30 58 1 26 52
M  V30 59 1 27 53
M  V30 60 1 29 54
M  V30 61 1 30 55
M  V30 62 1 31 56
M  V30 63 1 34 57
M  V30 64 1 36 58
M  V30 65 1 37 59
M  V30 66 1 38 60
M  V30 67 1 38 61
M  V30 END BOND
M  V30 END CTAB
M  END
>  <Dataset>  (558) 
ChEMBL_Kinases

>  <Ligand_Instance>  (558) 
nan

>  <PDB_ID>  (558) 
nan

>  <Standardized_SMILES>  (558) 
FC1(F)CCN(Cc2cncc(-c3ccc4[nH]nc(-c5cc6c(-c7cccnc7)ccnc6[nH]5)c4c3)c2)C1

>  <Name>  (558) 
nan

>  <Pocket>  (558) 
nan

>  <ATP_Site>  (558) 
nan

>  <Peripheral>  (558) 
nan

>  <Num_H_Atoms_ProtBoundConf>  (558) 
nan

>  <Num_Resolved_Atoms>  (558) 
nan

>  <Num_Not_Resolved_Atoms>  (558) 
nan

$$$$
CHEMBL4760441
     RDKit          3D

  0  0  0  0  0  0  0  0  0  0999 V3000
M  V30 BEGIN CTAB
M  V30 COUNTS 55 60 0 0 0
M  V30 BEGIN ATOM
M  V30 1 C 5.244620 -1.806244 5.463172 0
M  V30 2 C 5.401511 -0.322167 5.513354 0
M  V30 3 C 5.644895 0.275920 4.126235 0
M  V30 4 C 4.463611 -0.062138 3.263470 0
M  V30 5 O 3.573419 -0.731349 3.842515 0
M  V30 6 N 4.445795 0.383777 1.912755 0
M  V30 7 C 3.232863 -0.040124 1.254432 0
M  V30 8 C 3.147879 -1.259792 0.580571 0
M  V30 9 N 1.974172 -1.566462 -0.001904 0
M  V30 10 C 0.906874 -0.744727 0.049022 0
M  V30 11 C 0.972457 0.456830 0.706375 0
M  V30 12 C -0.225049 1.287164 0.715223 0
M  V30 13 C -0.341271 2.519568 1.323325 0
M  V30 14 C -1.501387 3.258458 1.297226 0
M  V30 15 C -2.615302 2.797017 0.654859 0
M  V30 16 N -3.882717 3.221503 0.424674 0
M  V30 17 N -4.502225 2.288560 -0.289071 0
M  V30 18 C -3.676196 1.260085 -0.535392 0
M  V30 19 C -4.025760 0.060928 -1.292436 0
M  V30 20 N -3.228991 -0.978078 -1.554649 0
M  V30 21 C -3.913709 -1.873205 -2.271257 0
M  V30 22 C -3.663473 -3.109957 -2.833244 0
M  V30 23 C -2.332413 -3.677985 -2.655814 0
M  V30 24 C -1.671663 -3.682563 -1.478267 0
M  V30 25 C -0.373997 -4.278150 -1.469899 0
M  V30 26 S -0.068240 -4.837324 -3.113167 0
M  V30 27 C -1.701804 -4.250451 -3.763526 0
M  V30 28 C -4.619444 -3.810589 -3.544484 0
M  V30 29 N -5.838405 -3.260099 -3.690703 0
M  V30 30 C -6.102773 -2.056532 -3.151255 0
M  V30 31 C -5.190883 -1.326892 -2.440531 0
M  V30 32 N -5.249643 -0.118954 -1.825210 0
M  V30 33 C -2.458733 1.561672 0.059666 0
M  V30 34 N -1.326392 0.839027 0.084372 0
M  V30 35 C 2.146705 0.830337 1.324294 0
M  V30 36 H 5.823422 -2.313650 6.278839 0
M  V30 37 H 4.191581 -2.116548 5.622554 0
M  V30 38 H 5.533672 -2.202355 4.468004 0
M  V30 39 H 6.200783 -0.038054 6.204109 0
M  V30 40 H 4.464431 0.154427 5.913667 0
M  V30 41 H 5.722397 1.363612 4.272900 0
M  V30 42 H 6.533135 -0.214882 3.718752 0
M  V30 43 H 5.256856 0.943030 1.535813 0
M  V30 44 H 4.043659 -1.866330 0.581769 0
M  V30 45 H 0.005633 -1.081188 -0.451470 0
M  V30 46 H 0.526599 2.905748 1.837796 0
M  V30 47 H -1.556543 4.232986 1.791352 0
M  V30 48 H -4.216159 4.151646 0.795613 0
M  V30 49 H -2.054123 -3.271510 -0.555712 0
M  V30 50 H 0.275758 -4.350972 -0.580231 0
M  V30 51 H -2.074821 -4.340983 -4.794007 0
M  V30 52 H -4.412487 -4.770132 -3.975901 0
M  V30 53 H -7.096553 -1.657476 -3.296614 0
M  V30 54 H -6.082938 0.511918 -1.791086 0
M  V30 55 H 2.216447 1.772718 1.846368 0
M  V30 END ATOM
M  V30 BEGIN BOND
M  V30 1 1 1 2
M  V30 2 1 2 3
M  V30 3 1 3 4
M  V30 4 2 4 5
M  V30 5 1 4 6
M  V30 6 1 6 7
M  V30 7 2 7 8
M  V30 8 1 8 9
M  V30 9 2 9 10
M  V30 10 1 10 11
M  V30 11 1 11 12
M  V30 12 2 12 13
M  V30 13 1 13 14
M  V30 14 2 14 15
M  V30 15 1 15 16
M  V30 16 1 16 17
M  V30 17 2 17 18
M  V30 18 1 18 19
M  V30 19 2 19 20
M  V30 20 1 20 21
M  V30 21 2 21 22
M  V30 22 1 22 23
M  V30 23 1 23 24
M  V30 24 2 24 25
M  V30 25 1 25 26
M  V30 26 1 26 27
M  V30 27 1 22 28
M  V30 28 2 28 29
M  V30 29 1 29 30
M  V30 30 2 30 31
M  V30 31 1 31 32
M  V30 32 1 18 33
M  V30 33 2 33 34
M  V30 34 2 11 35
M  V30 35 1 35 7
M  V30 36 1 34 12
M  V30 37 1 33 15
M  V30 38 1 32 19
M  V30 39 1 31 21
M  V30 40 2 27 23
M  V30 41 1 1 36
M  V30 42 1 1 37
M  V30 43 1 1 38
M  V30 44 1 2 39
M  V30 45 1 2 40
M  V30 46 1 3 41
M  V30 47 1 3 42
M  V30 48 1 6 43
M  V30 49 1 8 44
M  V30 50 1 10 45
M  V30 51 1 13 46
M  V30 52 1 14 47
M  V30 53 1 16 48
M  V30 54 1 24 49
M  V30 55 1 25 50
M  V30 56 1 27 51
M  V30 57 1 28 52
M  V30 58 1 30 53
M  V30 59 1 32 54
M  V30 60 1 35 55
M  V30 END BOND
M  V30 END CTAB
M  END
>  <Dataset>  (559) 
ChEMBL_Kinases

>  <Ligand_Instance>  (559) 
nan

>  <PDB_ID>  (559) 
nan

>  <Standardized_SMILES>  (559) 
CCCC(=O)Nc1cncc(-c2ccc3[nH]nc(-c4nc5c(-c6ccsc6)cncc5[nH]4)c3n2)c1

>  <Name>  (559) 
nan

>  <Pocket>  (559) 
nan

>  <ATP_Site>  (559) 
nan

>  <Peripheral>  (559) 
nan

>  <Num_H_Atoms_ProtBoundConf>  (559) 
nan

>  <Num_Resolved_Atoms>  (559) 
nan

>  <Num_Not_Resolved_Atoms>  (559) 
nan

$$$$
CHEMBL4760437
     RDKit          3D

  0  0  0  0  0  0  0  0  0  0999 V3000
M  V30 BEGIN CTAB
M  V30 COUNTS 73 78 0 0 0
M  V30 BEGIN ATOM
M  V30 1 C 2.263786 -5.405827 1.936740 0
M  V30 2 C 2.383883 -5.400813 0.426898 0
M  V30 3 C 1.496202 -6.465380 -0.180075 0
M  V30 4 N 2.108901 -4.117737 -0.166688 0
M  V30 5 C 2.856344 -2.968287 0.134915 0
M  V30 6 C 3.900712 -3.030427 1.022543 0
M  V30 7 N 4.609823 -1.909929 1.304122 0
M  V30 8 C 4.340529 -0.715529 0.749838 0
M  V30 9 C 3.278715 -0.626063 -0.160082 0
M  V30 10 C 3.058058 0.706038 -0.707795 0
M  V30 11 C 4.152438 1.534727 -0.874731 0
M  V30 12 C 4.010769 2.813169 -1.388766 0
M  V30 13 C 2.729851 3.216160 -1.724018 0
M  V30 14 N 2.295855 4.381525 -2.235201 0
M  V30 15 N 0.989098 4.295091 -2.385079 0
M  V30 16 C 0.545420 3.090706 -1.981910 0
M  V30 17 C -0.858330 2.695506 -2.027656 0
M  V30 18 N -1.438489 1.535942 -1.665328 0
M  V30 19 C -2.750758 1.573483 -1.868036 0
M  V30 20 C -3.800551 0.700595 -1.685572 0
M  V30 21 C -3.571541 -0.632872 -1.145241 0
M  V30 22 C -4.258352 -1.593088 -1.882058 0
M  V30 23 C -4.178704 -2.921517 -1.536564 0
M  V30 24 F -4.803780 -3.930000 -2.185408 0
M  V30 25 C -3.417313 -3.302719 -0.457726 0
M  V30 26 C -2.716250 -2.365480 0.302439 0
M  V30 27 N -1.907804 -2.687759 1.406089 0
M  V30 28 C -1.152755 -1.874827 2.333959 0
M  V30 29 C -1.983871 -1.050904 3.259329 0
M  V30 30 N -1.177241 -0.248352 4.172320 0
M  V30 31 C -0.466296 0.787415 3.446657 0
M  V30 32 C -1.986665 0.382797 5.178993 0
M  V30 33 C -2.808254 -1.042600 -0.059635 0
M  V30 34 N -5.036880 1.088701 -2.014017 0
M  V30 35 C -5.311878 2.304840 -2.520414 0
M  V30 36 C -4.287181 3.210765 -2.719132 0
M  V30 37 C -3.006339 2.826800 -2.386060 0
M  V30 38 N -1.836947 3.520063 -2.484634 0
M  V30 39 C 1.647071 2.379402 -1.552278 0
M  V30 40 C 1.776706 1.111648 -1.044100 0
M  V30 41 C 2.566960 -1.750522 -0.442855 0
M  V30 42 H 3.148867 -5.886020 2.414696 0
M  V30 43 H 1.397107 -6.078703 2.209218 0
M  V30 44 H 2.016217 -4.423677 2.349632 0
M  V30 45 H 3.430093 -5.651137 0.160926 0
M  V30 46 H 0.848793 -6.024960 -0.965142 0
M  V30 47 H 0.813944 -6.874529 0.615334 0
M  V30 48 H 2.091839 -7.277777 -0.629683 0
M  V30 49 H 1.307652 -4.036928 -0.861452 0
M  V30 50 H 4.212433 -3.927040 1.529434 0
M  V30 51 H 4.985792 0.117176 1.057937 0
M  V30 52 H 5.165949 1.259593 -0.627254 0
M  V30 53 H 4.823094 3.512941 -1.545021 0
M  V30 54 H 2.882217 5.231816 -2.482039 0
M  V30 55 H -4.893864 -1.420009 -2.755063 0
M  V30 56 H -3.330487 -4.350423 -0.152554 0
M  V30 57 H -1.864258 -3.726301 1.561932 0
M  V30 58 H -0.512779 -1.176530 1.733251 0
M  V30 59 H -0.446423 -2.543373 2.884463 0
M  V30 60 H -2.626293 -0.363617 2.689518 0
M  V30 61 H -2.660455 -1.727812 3.860319 0
M  V30 62 H -0.561408 1.765523 3.945412 0
M  V30 63 H -0.922721 0.883025 2.453695 0
M  V30 64 H 0.614247 0.495776 3.388764 0
M  V30 65 H -1.977245 -0.170274 6.145751 0
M  V30 66 H -1.556775 1.380161 5.399269 0
M  V30 67 H -3.023356 0.550857 4.812664 0
M  V30 68 H -2.344619 -0.180608 0.382988 0
M  V30 69 H -6.350223 2.508031 -2.749621 0
M  V30 70 H -4.560968 4.162905 -3.123680 0
M  V30 71 H -1.775961 4.502342 -2.853271 0
M  V30 72 H 0.907371 0.486706 -0.923940 0
M  V30 73 H 1.748009 -1.637499 -1.157138 0
M  V30 END ATOM
M  V30 BEGIN BOND
M  V30 1 1 1 2
M  V30 2 1 2 3
M  V30 3 1 2 4
M  V30 4 1 4 5
M  V30 5 2 5 6
M  V30 6 1 6 7
M  V30 7 2 7 8
M  V30 8 1 8 9
M  V30 9 1 9 10
M  V30 10 2 10 11
M  V30 11 1 11 12
M  V30 12 2 12 13
M  V30 13 1 13 14
M  V30 14 1 14 15
M  V30 15 2 15 16
M  V30 16 1 16 17
M  V30 17 2 17 18
M  V30 18 1 18 19
M  V30 19 2 19 20
M  V30 20 1 20 21
M  V30 21 2 21 22
M  V30 22 1 22 23
M  V30 23 1 23 24
M  V30 24 2 23 25
M  V30 25 1 25 26
M  V30 26 1 26 27
M  V30 27 1 27 28
M  V30 28 1 28 29
M  V30 29 1 29 30
M  V30 30 1 30 31
M  V30 31 1 30 32
M  V30 32 2 26 33
M  V30 33 1 20 34
M  V30 34 2 34 35
M  V30 35 1 35 36
M  V30 36 2 36 37
M  V30 37 1 37 38
M  V30 38 1 16 39
M  V30 39 2 39 40
M  V30 40 2 9 41
M  V30 41 1 41 5
M  V30 42 1 40 10
M  V30 43 1 39 13
M  V30 44 1 38 17
M  V30 45 1 37 19
M  V30 46 1 33 21
M  V30 47 1 1 42
M  V30 48 1 1 43
M  V30 49 1 1 44
M  V30 50 1 2 45
M  V30 51 1 3 46
M  V30 52 1 3 47
M  V30 53 1 3 48
M  V30 54 1 4 49
M  V30 55 1 6 50
M  V30 56 1 8 51
M  V30 57 1 11 52
M  V30 58 1 12 53
M  V30 59 1 14 54
M  V30 60 1 22 55
M  V30 61 1 25 56
M  V30 62 1 27 57
M  V30 63 1 28 58
M  V30 64 1 28 59
M  V30 65 1 29 60
M  V30 66 1 29 61
M  V30 67 1 31 62
M  V30 68 1 31 63
M  V30 69 1 31 64
M  V30 70 1 32 65
M  V30 71 1 32 66
M  V30 72 1 32 67
M  V30 73 1 33 68
M  V30 74 1 35 69
M  V30 75 1 36 70
M  V30 76 1 38 71
M  V30 77 1 40 72
M  V30 78 1 41 73
M  V30 END BOND
M  V30 END CTAB
M  END
>  <Dataset>  (560) 
ChEMBL_Kinases

>  <Ligand_Instance>  (560) 
nan

>  <PDB_ID>  (560) 
nan

>  <Standardized_SMILES>  (560) 
CC(C)Nc1cncc(-c2ccc3[nH]nc(-c4nc5c(-c6cc(F)cc(NCCN(C)C)c6)nccc5[nH]4)c3c2)c1

>  <Name>  (560) 
nan

>  <Pocket>  (560) 
nan

>  <ATP_Site>  (560) 
nan

>  <Peripheral>  (560) 
nan

>  <Num_H_Atoms_ProtBoundConf>  (560) 
nan

>  <Num_Resolved_Atoms>  (560) 
nan

>  <Num_Not_Resolved_Atoms>  (560) 
nan

$$$$
CHEMBL4760436
     RDKit          3D

  0  0  0  0  0  0  0  0  0  0999 V3000
M  V30 BEGIN CTAB
M  V30 COUNTS 53 58 0 0 0
M  V30 BEGIN ATOM
M  V30 1 C 6.060350 0.684108 3.311314 0
M  V30 2 N 5.175143 -0.422986 3.050377 0
M  V30 3 C 3.913534 -0.184774 3.686674 0
M  V30 4 C 5.027666 -0.728081 1.638561 0
M  V30 5 C 4.470256 0.486534 0.984952 0
M  V30 6 C 5.262102 1.483471 0.455430 0
M  V30 7 N 4.739386 2.573176 -0.129091 0
M  V30 8 C 3.399534 2.720894 -0.213707 0
M  V30 9 C 2.527377 1.777088 0.287049 0
M  V30 10 C 1.077563 1.929843 0.200646 0
M  V30 11 C 0.626568 3.253840 0.254763 0
M  V30 12 N -0.707663 3.433331 0.177810 0
M  V30 13 C -1.569003 2.409651 0.055848 0
M  V30 14 N -2.906931 2.312194 -0.038793 0
M  V30 15 N -3.284680 1.056517 -0.143402 0
M  V30 16 C -2.225105 0.217701 -0.126642 0
M  V30 17 C -2.284236 -1.227837 -0.222766 0
M  V30 18 N -3.462504 -1.867088 -0.341415 0
M  V30 19 C -3.291501 -3.190171 -0.414474 0
M  V30 20 C -4.225948 -4.195608 -0.540457 0
M  V30 21 C -5.612532 -3.971160 -0.617423 0
M  V30 22 C -6.343508 -2.828689 -0.593377 0
M  V30 23 C -7.706703 -2.831297 -0.682813 0
M  V30 24 C -8.320770 -4.162891 -0.806909 0
M  V30 25 S -6.829148 -5.288224 -0.780063 0
M  V30 26 C -3.717759 -5.474935 -0.588534 0
M  V30 27 N -2.404330 -5.704699 -0.516362 0
M  V30 28 C -1.483422 -4.732493 -0.393414 0
M  V30 29 C -1.938529 -3.437317 -0.340769 0
M  V30 30 N -1.395816 -2.219802 -0.227315 0
M  V30 31 C -1.171452 1.092046 -0.001518 0
M  V30 32 C 0.187595 0.885207 0.075377 0
M  V30 33 C 3.090972 0.667208 0.882590 0
M  V30 34 H 6.081627 0.799794 4.420362 0
M  V30 35 H 7.072761 0.379453 2.974428 0
M  V30 36 H 5.742550 1.634519 2.865705 0
M  V30 37 H 3.217039 -0.975808 3.324331 0
M  V30 38 H 3.944169 -0.220425 4.775609 0
M  V30 39 H 3.446987 0.789393 3.402351 0
M  V30 40 H 5.979639 -0.932392 1.149007 0
M  V30 41 H 4.313789 -1.579971 1.594469 0
M  V30 42 H 6.329784 1.376810 0.516836 0
M  V30 43 H 2.961047 3.606396 -0.688602 0
M  V30 44 H 1.275903 4.102702 0.351661 0
M  V30 45 H -3.603255 3.094305 -0.034934 0
M  V30 46 H -5.826101 -1.885814 -0.500554 0
M  V30 47 H -8.358978 -1.973841 -0.671599 0
M  V30 48 H -9.439639 -4.279184 -0.887482 0
M  V30 49 H -4.391932 -6.327226 -0.687414 0
M  V30 50 H -0.430192 -4.863703 -0.332125 0
M  V30 51 H -0.386738 -2.119796 -0.154376 0
M  V30 52 H 0.591955 -0.094669 0.040076 0
M  V30 53 H 2.389149 -0.059281 1.267707 0
M  V30 END ATOM
M  V30 BEGIN BOND
M  V30 1 1 1 2
M  V30 2 1 2 3
M  V30 3 1 2 4
M  V30 4 1 4 5
M  V30 5 2 5 6
M  V30 6 1 6 7
M  V30 7 2 7 8
M  V30 8 1 8 9
M  V30 9 1 9 10
M  V30 10 2 10 11
M  V30 11 1 11 12
M  V30 12 2 12 13
M  V30 13 1 13 14
M  V30 14 1 14 15
M  V30 15 2 15 16
M  V30 16 1 16 17
M  V30 17 2 17 18
M  V30 18 1 18 19
M  V30 19 2 19 20
M  V30 20 1 20 21
M  V30 21 2 21 22
M  V30 22 1 22 23
M  V30 23 2 23 24
M  V30 24 1 24 25
M  V30 25 1 20 26
M  V30 26 2 26 27
M  V30 27 1 27 28
M  V30 28 2 28 29
M  V30 29 1 29 30
M  V30 30 1 16 31
M  V30 31 2 31 32
M  V30 32 2 9 33
M  V30 33 1 33 5
M  V30 34 1 32 10
M  V30 35 1 31 13
M  V30 36 1 30 17
M  V30 37 1 29 19
M  V30 38 1 25 21
M  V30 39 1 1 34
M  V30 40 1 1 35
M  V30 41 1 1 36
M  V30 42 1 3 37
M  V30 43 1 3 38
M  V30 44 1 3 39
M  V30 45 1 4 40
M  V30 46 1 4 41
M  V30 47 1 6 42
M  V30 48 1 8 43
M  V30 49 1 11 44
M  V30 50 1 14 45
M  V30 51 1 22 46
M  V30 52 1 23 47
M  V30 53 1 24 48
M  V30 54 1 26 49
M  V30 55 1 28 50
M  V30 56 1 30 51
M  V30 57 1 32 52
M  V30 58 1 33 53
M  V30 END BOND
M  V30 END CTAB
M  END
>  <Dataset>  (561) 
ChEMBL_Kinases

>  <Ligand_Instance>  (561) 
nan

>  <PDB_ID>  (561) 
nan

>  <Standardized_SMILES>  (561) 
CN(C)Cc1cncc(-c2cnc3[nH]nc(-c4nc5c(-c6cccs6)cncc5[nH]4)c3c2)c1

>  <Name>  (561) 
nan

>  <Pocket>  (561) 
nan

>  <ATP_Site>  (561) 
nan

>  <Peripheral>  (561) 
nan

>  <Num_H_Atoms_ProtBoundConf>  (561) 
nan

>  <Num_Resolved_Atoms>  (561) 
nan

>  <Num_Not_Resolved_Atoms>  (561) 
nan

$$$$
CHEMBL185221
     RDKit          3D

  0  0  0  0  0  0  0  0  0  0999 V3000
M  V30 BEGIN CTAB
M  V30 COUNTS 46 49 0 0 0
M  V30 BEGIN ATOM
M  V30 1 O 2.165485 -4.549279 3.590722 0
M  V30 2 C 2.265724 -3.538172 2.848465 0
M  V30 3 N 3.502184 -3.219601 2.227406 0
M  V30 4 C 3.249992 -2.024536 1.469641 0
M  V30 5 O 3.994310 -1.319674 0.736043 0
M  V30 6 C 1.853205 -1.645734 1.653113 0
M  V30 7 C 1.070961 -0.499354 1.135897 0
M  V30 8 C 0.940474 -0.087710 -0.188331 0
M  V30 9 N 0.160110 1.005389 -0.248670 0
M  V30 10 C -0.165182 1.672167 -1.495132 0
M  V30 11 C 0.805673 2.721373 -1.888411 0
M  V30 12 C 2.211611 2.262229 -2.106277 0
M  V30 13 O 2.231655 1.315400 -3.116301 0
M  V30 14 C -0.230641 1.328822 1.015986 0
M  V30 15 C -1.032517 2.369881 1.496968 0
M  V30 16 C -1.245942 2.442266 2.865824 0
M  V30 17 C -0.699372 1.532980 3.754309 0
M  V30 18 C 0.083944 0.524723 3.232066 0
M  V30 19 C 0.330479 0.401893 1.873727 0
M  V30 20 C 1.270903 -2.545887 2.471140 0
M  V30 21 N -0.108780 -2.572809 2.898537 0
M  V30 22 C -1.021725 -2.867772 1.834966 0
M  V30 23 C -0.559408 -3.163167 0.569717 0
M  V30 24 C -1.355718 -3.452865 -0.543936 0
M  V30 25 C -2.731493 -3.429303 -0.307606 0
M  V30 26 C -3.245051 -3.140072 0.938008 0
M  V30 27 C -2.396282 -2.861336 2.001788 0
M  V30 28 H 4.468246 -3.635338 2.208374 0
M  V30 29 H 1.454502 -0.661187 -0.970610 0
M  V30 30 H -1.168368 2.188518 -1.407427 0
M  V30 31 H -0.317629 0.939013 -2.313855 0
M  V30 32 H 0.466597 3.140625 -2.873443 0
M  V30 33 H 0.783370 3.593691 -1.188078 0
M  V30 34 H 2.732300 1.883213 -1.215156 0
M  V30 35 H 2.773858 3.176539 -2.461772 0
M  V30 36 H 1.565339 0.615581 -3.000099 0
M  V30 37 H -1.466055 3.088654 0.810102 0
M  V30 38 H -1.856163 3.230128 3.258172 0
M  V30 39 H -0.878000 1.605609 4.830794 0
M  V30 40 H 0.497056 -0.149572 3.968912 0
M  V30 41 H -0.515953 -2.410958 3.843559 0
M  V30 42 H 0.506814 -3.203677 0.322134 0
M  V30 43 H -0.962077 -3.677090 -1.506021 0
M  V30 44 H -3.406703 -3.649377 -1.145125 0
M  V30 45 H -4.321141 -3.143772 1.034307 0
M  V30 46 H -2.812297 -2.636921 2.973473 0
M  V30 END ATOM
M  V30 BEGIN BOND
M  V30 1 2 1 2
M  V30 2 1 2 3
M  V30 3 1 3 4
M  V30 4 2 4 5
M  V30 5 1 4 6
M  V30 6 1 6 7
M  V30 7 2 7 8
M  V30 8 1 8 9
M  V30 9 1 9 10
M  V30 10 1 10 11
M  V30 11 1 11 12
M  V30 12 1 12 13
M  V30 13 1 9 14
M  V30 14 2 14 15
M  V30 15 1 15 16
M  V30 16 2 16 17
M  V30 17 1 17 18
M  V30 18 2 18 19
M  V30 19 2 6 20
M  V30 20 1 20 21
M  V30 21 1 21 22
M  V30 22 2 22 23
M  V30 23 1 23 24
M  V30 24 2 24 25
M  V30 25 1 25 26
M  V30 26 2 26 27
M  V30 27 1 20 2
M  V30 28 1 27 22
M  V30 29 1 19 7
M  V30 30 1 19 14
M  V30 31 1 3 28
M  V30 32 1 8 29
M  V30 33 1 10 30
M  V30 34 1 10 31
M  V30 35 1 11 32
M  V30 36 1 11 33
M  V30 37 1 12 34
M  V30 38 1 12 35
M  V30 39 1 13 36
M  V30 40 1 15 37
M  V30 41 1 16 38
M  V30 42 1 17 39
M  V30 43 1 18 40
M  V30 44 1 21 41
M  V30 45 1 23 42
M  V30 46 1 24 43
M  V30 47 1 25 44
M  V30 48 1 26 45
M  V30 49 1 27 46
M  V30 END BOND
M  V30 END CTAB
M  END
>  <Dataset>  (562) 
ChEMBL_Kinases

>  <Ligand_Instance>  (562) 
nan

>  <PDB_ID>  (562) 
nan

>  <Standardized_SMILES>  (562) 
O=C1NC(=O)C(c2cn(CCCO)c3ccccc23)=C1Nc1ccccc1

>  <Name>  (562) 
nan

>  <Pocket>  (562) 
nan

>  <ATP_Site>  (562) 
nan

>  <Peripheral>  (562) 
nan

>  <Num_H_Atoms_ProtBoundConf>  (562) 
nan

>  <Num_Resolved_Atoms>  (562) 
nan

>  <Num_Not_Resolved_Atoms>  (562) 
nan

$$$$
CHEMBL4760198
     RDKit          3D

  0  0  0  0  0  0  0  0  0  0999 V3000
M  V30 BEGIN CTAB
M  V30 COUNTS 57 62 0 0 0
M  V30 BEGIN ATOM
M  V30 1 C 4.846506 -1.883646 1.418075 0
M  V30 2 C 5.863619 -1.775497 0.312240 0
M  V30 3 C 5.221290 -1.378182 -1.002776 0
M  V30 4 C 4.570789 -0.063052 -0.805321 0
M  V30 5 O 4.603651 0.545415 0.315848 0
M  V30 6 N 3.859780 0.643405 -1.814675 0
M  V30 7 C 3.362597 1.880526 -1.275565 0
M  V30 8 C 4.132372 3.024119 -1.343240 0
M  V30 9 N 3.542873 4.125800 -0.795454 0
M  V30 10 C 2.317182 4.093558 -0.239097 0
M  V30 11 C 1.567706 2.962958 -0.177512 0
M  V30 12 C 0.234177 2.872570 0.414054 0
M  V30 13 C -0.410460 3.950834 0.981484 0
M  V30 14 C -1.663642 3.913059 1.549207 0
M  V30 15 C -2.343057 2.705817 1.559278 0
M  V30 16 N -3.552566 2.353695 2.028039 0
M  V30 17 N -3.700163 1.066870 1.773176 0
M  V30 18 C -2.595992 0.587744 1.144401 0
M  V30 19 C -2.386609 -0.788871 0.702548 0
M  V30 20 N -3.262564 -1.799396 0.852509 0
M  V30 21 C -2.751447 -2.941077 0.330668 0
M  V30 22 C -3.170725 -4.246757 0.196281 0
M  V30 23 C -4.474494 -4.578502 0.713345 0
M  V30 24 C -4.866554 -4.127767 1.958226 0
M  V30 25 C -6.120853 -4.429301 2.490029 0
M  V30 26 N -6.941220 -5.174359 1.753558 0
M  V30 27 C -6.641772 -5.651965 0.538819 0
M  V30 28 C -5.389930 -5.343307 0.023321 0
M  V30 29 C -2.311619 -5.130169 -0.421006 0
M  V30 30 N -1.099138 -4.786272 -0.893210 0
M  V30 31 C -0.634490 -3.521412 -0.789971 0
M  V30 32 C -1.489655 -2.608365 -0.167073 0
M  V30 33 N -1.293159 -1.284869 0.074450 0
M  V30 34 C -1.697683 1.628702 0.991797 0
M  V30 35 N -0.469605 1.722575 0.449712 0
M  V30 36 C 2.097823 1.805142 -0.712030 0
M  V30 37 H 3.797993 -1.758564 1.026998 0
M  V30 38 H 4.961830 -1.055412 2.160369 0
M  V30 39 H 4.863329 -2.850794 1.958289 0
M  V30 40 H 6.628868 -1.037975 0.644525 0
M  V30 41 H 6.286067 -2.794498 0.177566 0
M  V30 42 H 5.940599 -1.410933 -1.833879 0
M  V30 43 H 4.415279 -2.132019 -1.175365 0
M  V30 44 H 3.797534 0.196863 -2.754504 0
M  V30 45 H 5.112136 3.030135 -1.792847 0
M  V30 46 H 1.920375 5.007469 0.172850 0
M  V30 47 H 0.062440 4.911274 1.004612 0
M  V30 48 H -2.128196 4.798594 1.985320 0
M  V30 49 H -4.268849 2.970537 2.512696 0
M  V30 50 H -4.241807 -3.520084 2.598817 0
M  V30 51 H -6.435359 -4.076335 3.471581 0
M  V30 52 H -7.276618 -6.260067 -0.093535 0
M  V30 53 H -5.104858 -5.715271 -0.969481 0
M  V30 54 H -2.642462 -6.169202 -0.529214 0
M  V30 55 H 0.330858 -3.172553 -1.147167 0
M  V30 56 H -0.446056 -0.729097 -0.176352 0
M  V30 57 H 1.535943 0.884153 -0.684327 0
M  V30 END ATOM
M  V30 BEGIN BOND
M  V30 1 1 1 2
M  V30 2 1 2 3
M  V30 3 1 3 4
M  V30 4 2 4 5
M  V30 5 1 4 6
M  V30 6 1 6 7
M  V30 7 2 7 8
M  V30 8 1 8 9
M  V30 9 2 9 10
M  V30 10 1 10 11
M  V30 11 1 11 12
M  V30 12 2 12 13
M  V30 13 1 13 14
M  V30 14 2 14 15
M  V30 15 1 15 16
M  V30 16 1 16 17
M  V30 17 2 17 18
M  V30 18 1 18 19
M  V30 19 2 19 20
M  V30 20 1 20 21
M  V30 21 2 21 22
M  V30 22 1 22 23
M  V30 23 2 23 24
M  V30 24 1 24 25
M  V30 25 2 25 26
M  V30 26 1 26 27
M  V30 27 2 27 28
M  V30 28 1 22 29
M  V30 29 2 29 30
M  V30 30 1 30 31
M  V30 31 2 31 32
M  V30 32 1 32 33
M  V30 33 1 18 34
M  V30 34 2 34 35
M  V30 35 2 11 36
M  V30 36 1 36 7
M  V30 37 1 35 12
M  V30 38 1 34 15
M  V30 39 1 33 19
M  V30 40 1 32 21
M  V30 41 1 28 23
M  V30 42 1 1 37
M  V30 43 1 1 38
M  V30 44 1 1 39
M  V30 45 1 2 40
M  V30 46 1 2 41
M  V30 47 1 3 42
M  V30 48 1 3 43
M  V30 49 1 6 44
M  V30 50 1 8 45
M  V30 51 1 10 46
M  V30 52 1 13 47
M  V30 53 1 14 48
M  V30 54 1 16 49
M  V30 55 1 24 50
M  V30 56 1 25 51
M  V30 57 1 27 52
M  V30 58 1 28 53
M  V30 59 1 29 54
M  V30 60 1 31 55
M  V30 61 1 33 56
M  V30 62 1 36 57
M  V30 END BOND
M  V30 END CTAB
M  END
>  <Dataset>  (563) 
ChEMBL_Kinases

>  <Ligand_Instance>  (563) 
nan

>  <PDB_ID>  (563) 
nan

>  <Standardized_SMILES>  (563) 
CCCC(=O)Nc1cncc(-c2ccc3[nH]nc(-c4nc5c(-c6ccncc6)cncc5[nH]4)c3n2)c1

>  <Name>  (563) 
nan

>  <Pocket>  (563) 
nan

>  <ATP_Site>  (563) 
nan

>  <Peripheral>  (563) 
nan

>  <Num_H_Atoms_ProtBoundConf>  (563) 
nan

>  <Num_Resolved_Atoms>  (563) 
nan

>  <Num_Not_Resolved_Atoms>  (563) 
nan

$$$$
CHEMBL4760183
     RDKit          3D

  0  0  0  0  0  0  0  0  0  0999 V3000
M  V30 BEGIN CTAB
M  V30 COUNTS 57 61 0 0 0
M  V30 BEGIN ATOM
M  V30 1 C 3.512667 -3.029751 0.514430 0
M  V30 2 N 4.809835 -3.128903 -0.121647 0
M  V30 3 C 5.747781 -2.283235 0.590533 0
M  V30 4 C 5.452638 -0.819495 0.305129 0
M  V30 5 N 5.390414 -0.644350 -1.088730 0
M  V30 6 C 4.651203 0.433772 -1.621649 0
M  V30 7 C 3.207466 0.395337 -1.230765 0
M  V30 8 C 2.789808 1.040945 -0.057553 0
M  V30 9 C 1.471739 1.046163 0.364407 0
M  V30 10 C 0.553395 0.378630 -0.424653 0
M  V30 11 N -0.823161 0.334054 -0.063028 0
M  V30 12 C -1.705655 1.310013 -0.504914 0
M  V30 13 O -1.006912 2.114906 -1.214899 0
M  V30 14 C -3.110957 1.603745 -0.362154 0
M  V30 15 N -3.588210 2.690516 -1.002528 0
M  V30 16 N -4.896233 2.802780 -0.755635 0
M  V30 17 C -5.346118 1.820871 0.042219 0
M  V30 18 C -6.538859 1.439882 0.605798 0
M  V30 19 C -6.605691 0.315156 1.409019 0
M  V30 20 C -5.430823 -0.413455 1.626083 0
M  V30 21 C -5.465887 -1.617631 2.478185 0
M  V30 22 C -4.589962 -2.624886 2.184955 0
M  V30 23 C -4.555955 -3.792419 2.935596 0
M  V30 24 C -5.429457 -3.907861 3.984343 0
M  V30 25 N -6.294907 -2.921785 4.280110 0
M  V30 26 C -6.319820 -1.810087 3.557063 0
M  V30 27 C -4.254256 -0.032824 1.066697 0
M  V30 28 C -4.206002 1.083477 0.273711 0
M  V30 29 C 0.960144 -0.267636 -1.595727 0
M  V30 30 N 2.261632 -0.235779 -1.952826 0
M  V30 31 C 5.668174 -1.753327 -1.923802 0
M  V30 32 C 4.758902 -2.899475 -1.532309 0
M  V30 33 H 2.806892 -3.801541 0.128706 0
M  V30 34 H 3.646580 -3.171336 1.606329 0
M  V30 35 H 3.026657 -2.035860 0.370695 0
M  V30 36 H 6.761803 -2.555176 0.215154 0
M  V30 37 H 5.646923 -2.523643 1.662361 0
M  V30 38 H 6.228460 -0.201954 0.800732 0
M  V30 39 H 4.445431 -0.628195 0.771229 0
M  V30 40 H 4.740314 0.489775 -2.720802 0
M  V30 41 H 5.059677 1.376221 -1.159022 0
M  V30 42 H 3.513151 1.573775 0.574141 0
M  V30 43 H 1.187749 1.554796 1.274371 0
M  V30 44 H -1.281951 -0.386527 0.529949 0
M  V30 45 H -5.482283 3.571349 -1.146463 0
M  V30 46 H -7.410058 2.058712 0.389556 0
M  V30 47 H -7.560544 0.013747 1.857415 0
M  V30 48 H -3.872243 -2.604824 1.374150 0
M  V30 49 H -3.866166 -4.619323 2.727614 0
M  V30 50 H -5.410041 -4.818139 4.577269 0
M  V30 51 H -7.001033 -0.992846 3.762156 0
M  V30 52 H -3.392504 -0.613078 1.258980 0
M  V30 53 H 0.251932 -0.806516 -2.243960 0
M  V30 54 H 6.720688 -2.120365 -1.794802 0
M  V30 55 H 5.557730 -1.472569 -2.981032 0
M  V30 56 H 4.968355 -3.809789 -2.132926 0
M  V30 57 H 3.709560 -2.617795 -1.776166 0
M  V30 END ATOM
M  V30 BEGIN BOND
M  V30 1 1 1 2
M  V30 2 1 2 3
M  V30 3 1 3 4
M  V30 4 1 4 5
M  V30 5 1 5 6
M  V30 6 1 6 7
M  V30 7 2 7 8
M  V30 8 1 8 9
M  V30 9 2 9 10
M  V30 10 1 10 11
M  V30 11 1 11 12
M  V30 12 2 12 13
M  V30 13 1 12 14
M  V30 14 2 14 15
M  V30 15 1 15 16
M  V30 16 1 16 17
M  V30 17 2 17 18
M  V30 18 1 18 19
M  V30 19 2 19 20
M  V30 20 1 20 21
M  V30 21 2 21 22
M  V30 22 1 22 23
M  V30 23 2 23 24
M  V30 24 1 24 25
M  V30 25 2 25 26
M  V30 26 1 20 27
M  V30 27 2 27 28
M  V30 28 1 10 29
M  V30 29 2 29 30
M  V30 30 1 5 31
M  V30 31 1 31 32
M  V30 32 1 32 2
M  V30 33 1 30 7
M  V30 34 1 28 14
M  V30 35 1 28 17
M  V30 36 1 26 21
M  V30 37 1 1 33
M  V30 38 1 1 34
M  V30 39 1 1 35
M  V30 40 1 3 36
M  V30 41 1 3 37
M  V30 42 1 4 38
M  V30 43 1 4 39
M  V30 44 1 6 40
M  V30 45 1 6 41
M  V30 46 1 8 42
M  V30 47 1 9 43
M  V30 48 1 11 44
M  V30 49 1 16 45
M  V30 50 1 18 46
M  V30 51 1 19 47
M  V30 52 1 22 48
M  V30 53 1 23 49
M  V30 54 1 24 50
M  V30 55 1 26 51
M  V30 56 1 27 52
M  V30 57 1 29 53
M  V30 58 1 31 54
M  V30 59 1 31 55
M  V30 60 1 32 56
M  V30 61 1 32 57
M  V30 END BOND
M  V30 END CTAB
M  END
>  <Dataset>  (564) 
ChEMBL_Kinases

>  <Ligand_Instance>  (564) 
nan

>  <PDB_ID>  (564) 
nan

>  <Standardized_SMILES>  (564) 
CN1CCN(Cc2ccc(NC(=O)c3n[nH]c4ccc(-c5cccnc5)cc34)cn2)CC1

>  <Name>  (564) 
nan

>  <Pocket>  (564) 
nan

>  <ATP_Site>  (564) 
nan

>  <Peripheral>  (564) 
nan

>  <Num_H_Atoms_ProtBoundConf>  (564) 
nan

>  <Num_Resolved_Atoms>  (564) 
nan

>  <Num_Not_Resolved_Atoms>  (564) 
nan

$$$$
CHEMBL4760170
     RDKit          3D

  0  0  0  0  0  0  0  0  0  0999 V3000
M  V30 BEGIN CTAB
M  V30 COUNTS 51 53 0 0 0
M  V30 BEGIN ATOM
M  V30 1 C -0.239724 2.251669 6.311367 0
M  V30 2 O 0.740148 1.371808 6.831250 0
M  V30 3 C 1.787983 0.908206 6.077646 0
M  V30 4 C 2.684168 0.050015 6.700234 0
M  V30 5 N 3.728550 -0.421654 5.975274 0
M  V30 6 C 3.853613 -0.042360 4.692286 0
M  V30 7 C 2.991971 0.806288 4.029086 0
M  V30 8 C 3.240578 1.140566 2.629310 0
M  V30 9 O 4.255514 0.615363 2.103714 0
M  V30 10 N 2.389249 2.003405 1.910530 0
M  V30 11 C 2.521122 2.404503 0.552799 0
M  V30 12 C 3.231806 3.523778 0.162189 0
M  V30 13 N 3.119357 3.560840 -1.197154 0
M  V30 14 N 2.387604 2.530197 -1.603300 0
M  V30 15 C 1.992254 1.782867 -0.558655 0
M  V30 16 C 1.183198 0.572252 -0.536471 0
M  V30 17 O 0.966515 0.079717 0.580247 0
M  V30 18 N 0.655710 -0.039972 -1.690143 0
M  V30 19 C -0.137106 -1.206418 -1.798416 0
M  V30 20 C -0.569252 -2.007823 -0.769060 0
M  V30 21 C -1.342357 -3.138430 -0.918547 0
M  V30 22 C -1.729313 -3.522833 -2.185664 0
M  V30 23 C -2.553313 -4.723657 -2.373628 0
M  V30 24 N -3.963963 -4.536676 -2.347742 0
M  V30 25 C -4.489938 -3.999266 -1.144242 0
M  V30 26 C -4.592342 -4.128886 -3.548097 0
M  V30 27 C -1.310594 -2.737533 -3.240980 0
M  V30 28 C -0.537062 -1.612629 -3.049701 0
M  V30 29 C 1.927321 1.289729 4.760979 0
M  V30 30 H -0.778109 1.732606 5.513367 0
M  V30 31 H 0.328098 3.134297 5.901611 0
M  V30 32 H -0.902206 2.647083 7.091278 0
M  V30 33 H 2.580656 -0.256654 7.742147 0
M  V30 34 H 4.721440 -0.481719 4.220041 0
M  V30 35 H 1.549449 2.440026 2.340412 0
M  V30 36 H 3.767681 4.234999 0.748677 0
M  V30 37 H 3.508624 4.245309 -1.884815 0
M  V30 38 H 0.916167 0.479781 -2.556255 0
M  V30 39 H -0.305525 -1.766875 0.232363 0
M  V30 40 H -1.652901 -3.729181 -0.081049 0
M  V30 41 H -2.293036 -5.451928 -1.585843 0
M  V30 42 H -2.272666 -5.162404 -3.353116 0
M  V30 43 H -3.975395 -4.458507 -0.283286 0
M  V30 44 H -4.535186 -2.895050 -1.103705 0
M  V30 45 H -5.566800 -4.335945 -1.086665 0
M  V30 46 H -4.945826 -3.083665 -3.521277 0
M  V30 47 H -5.527479 -4.753152 -3.653736 0
M  V30 48 H -3.980651 -4.373633 -4.418963 0
M  V30 49 H -1.580046 -2.985337 -4.253939 0
M  V30 50 H -0.234931 -1.027406 -3.932347 0
M  V30 51 H 1.234644 1.947581 4.294651 0
M  V30 END ATOM
M  V30 BEGIN BOND
M  V30 1 1 1 2
M  V30 2 1 2 3
M  V30 3 2 3 4
M  V30 4 1 4 5
M  V30 5 2 5 6
M  V30 6 1 6 7
M  V30 7 1 7 8
M  V30 8 2 8 9
M  V30 9 1 8 10
M  V30 10 1 10 11
M  V30 11 2 11 12
M  V30 12 1 12 13
M  V30 13 1 13 14
M  V30 14 2 14 15
M  V30 15 1 15 16
M  V30 16 2 16 17
M  V30 17 1 16 18
M  V30 18 1 18 19
M  V30 19 2 19 20
M  V30 20 1 20 21
M  V30 21 2 21 22
M  V30 22 1 22 23
M  V30 23 1 23 24
M  V30 24 1 24 25
M  V30 25 1 24 26
M  V30 26 1 22 27
M  V30 27 2 27 28
M  V30 28 2 7 29
M  V30 29 1 29 3
M  V30 30 1 15 11
M  V30 31 1 28 19
M  V30 32 1 1 30
M  V30 33 1 1 31
M  V30 34 1 1 32
M  V30 35 1 4 33
M  V30 36 1 6 34
M  V30 37 1 10 35
M  V30 38 1 12 36
M  V30 39 1 13 37
M  V30 40 1 18 38
M  V30 41 1 20 39
M  V30 42 1 21 40
M  V30 43 1 23 41
M  V30 44 1 23 42
M  V30 45 1 25 43
M  V30 46 1 25 44
M  V30 47 1 25 45
M  V30 48 1 26 46
M  V30 49 1 26 47
M  V30 50 1 26 48
M  V30 51 1 27 49
M  V30 52 1 28 50
M  V30 53 1 29 51
M  V30 END BOND
M  V30 END CTAB
M  END
>  <Dataset>  (565) 
ChEMBL_Kinases

>  <Ligand_Instance>  (565) 
nan

>  <PDB_ID>  (565) 
nan

>  <Standardized_SMILES>  (565) 
COc1cncc(C(=O)Nc2c[nH]nc2C(=O)Nc2ccc(CN(C)C)cc2)c1

>  <Name>  (565) 
nan

>  <Pocket>  (565) 
nan

>  <ATP_Site>  (565) 
nan

>  <Peripheral>  (565) 
nan

>  <Num_H_Atoms_ProtBoundConf>  (565) 
nan

>  <Num_Resolved_Atoms>  (565) 
nan

>  <Num_Not_Resolved_Atoms>  (565) 
nan

$$$$
CHEMBL4760110
     RDKit          3D

  0  0  0  0  0  0  0  0  0  0999 V3000
M  V30 BEGIN CTAB
M  V30 COUNTS 62 67 0 0 0
M  V30 BEGIN ATOM
M  V30 1 C 3.627933 -4.644354 4.139424 0
M  V30 2 C 4.638169 -3.594414 4.515003 0
M  V30 3 C 3.896505 -2.407822 5.085792 0
M  V30 4 C 5.428947 -3.124713 3.322915 0
M  V30 5 C 4.467841 -2.549201 2.335645 0
M  V30 6 O 3.196045 -2.432937 2.405460 0
M  V30 7 N 4.917190 -2.010127 1.073662 0
M  V30 8 C 3.741201 -1.544667 0.375016 0
M  V30 9 C 3.153730 -2.530284 -0.425469 0
M  V30 10 N 2.046150 -2.279919 -1.151023 0
M  V30 11 C 1.477242 -1.050183 -1.114580 0
M  V30 12 C 2.054015 -0.073782 -0.325604 0
M  V30 13 C 1.446791 1.259558 -0.276690 0
M  V30 14 C 2.220987 2.389555 -0.083829 0
M  V30 15 C 1.596924 3.624999 -0.045928 0
M  V30 16 C 0.227454 3.690249 -0.201033 0
M  V30 17 N -0.654194 4.705951 -0.213968 0
M  V30 18 N -1.857950 4.250070 -0.396712 0
M  V30 19 C -1.890091 2.916600 -0.519994 0
M  V30 20 C -3.079853 2.124342 -0.730319 0
M  V30 21 C -3.392022 0.810186 -0.881026 0
M  V30 22 C -4.742322 0.602990 -1.056450 0
M  V30 23 C -5.480089 -0.544936 -1.243471 0
M  V30 24 C -4.859902 -1.862712 -1.277956 0
M  V30 25 C -5.343918 -2.600473 -2.366102 0
M  V30 26 C -4.878312 -3.898370 -2.580841 0
M  V30 27 N -3.974711 -4.443375 -1.757137 0
M  V30 28 C -3.512578 -3.740650 -0.719101 0
M  V30 29 C -3.929971 -2.456642 -0.450858 0
M  V30 30 C -6.847242 -0.395223 -1.391837 0
M  V30 31 N -7.409983 0.824059 -1.351806 0
M  V30 32 C -6.664052 1.923381 -1.167858 0
M  V30 33 C -5.290687 1.853073 -1.012021 0
M  V30 34 N -4.297184 2.715042 -0.821151 0
M  V30 35 C -0.566406 2.578583 -0.394335 0
M  V30 36 C 0.081285 1.374273 -0.426753 0
M  V30 37 C 3.187957 -0.301416 0.427894 0
M  V30 38 H 3.860959 -5.212094 3.232318 0
M  V30 39 H 3.572191 -5.375494 4.977293 0
M  V30 40 H 2.595861 -4.214641 4.058371 0
M  V30 41 H 5.365839 -4.013736 5.256581 0
M  V30 42 H 3.940737 -2.410114 6.195238 0
M  V30 43 H 4.406408 -1.473213 4.764039 0
M  V30 44 H 2.856512 -2.436112 4.712089 0
M  V30 45 H 6.190909 -2.410729 3.636318 0
M  V30 46 H 5.911802 -4.051808 2.903804 0
M  V30 47 H 5.931148 -2.013596 0.827554 0
M  V30 48 H 3.540646 -3.542208 -0.515785 0
M  V30 49 H 0.578262 -0.864846 -1.710105 0
M  V30 50 H 3.304833 2.310552 0.036544 0
M  V30 51 H 2.147330 4.544545 0.101686 0
M  V30 52 H -0.464203 5.728279 -0.099969 0
M  V30 53 H -2.679623 0.015085 -0.868632 0
M  V30 54 H -6.066570 -2.314861 -3.119205 0
M  V30 55 H -5.188367 -4.543370 -3.386299 0
M  V30 56 H -2.781775 -4.095971 0.000482 0
M  V30 57 H -3.635610 -1.797356 0.348339 0
M  V30 58 H -7.434055 -1.311664 -1.541059 0
M  V30 59 H -7.126369 2.889047 -1.138193 0
M  V30 60 H -4.559692 3.737622 -0.763007 0
M  V30 61 H -0.481871 0.474800 -0.573829 0
M  V30 62 H 3.678618 0.402936 1.052181 0
M  V30 END ATOM
M  V30 BEGIN BOND
M  V30 1 1 1 2
M  V30 2 1 2 3
M  V30 3 1 2 4
M  V30 4 1 4 5
M  V30 5 2 5 6
M  V30 6 1 5 7
M  V30 7 1 7 8
M  V30 8 2 8 9
M  V30 9 1 9 10
M  V30 10 2 10 11
M  V30 11 1 11 12
M  V30 12 1 12 13
M  V30 13 2 13 14
M  V30 14 1 14 15
M  V30 15 2 15 16
M  V30 16 1 16 17
M  V30 17 1 17 18
M  V30 18 2 18 19
M  V30 19 1 19 20
M  V30 20 2 20 21
M  V30 21 1 21 22
M  V30 22 2 22 23
M  V30 23 1 23 24
M  V30 24 2 24 25
M  V30 25 1 25 26
M  V30 26 2 26 27
M  V30 27 1 27 28
M  V30 28 2 28 29
M  V30 29 1 23 30
M  V30 30 2 30 31
M  V30 31 1 31 32
M  V30 32 2 32 33
M  V30 33 1 33 34
M  V30 34 1 19 35
M  V30 35 2 35 36
M  V30 36 2 12 37
M  V30 37 1 37 8
M  V30 38 1 36 13
M  V30 39 1 35 16
M  V30 40 1 34 20
M  V30 41 1 33 22
M  V30 42 1 29 24
M  V30 43 1 1 38
M  V30 44 1 1 39
M  V30 45 1 1 40
M  V30 46 1 2 41
M  V30 47 1 3 42
M  V30 48 1 3 43
M  V30 49 1 3 44
M  V30 50 1 4 45
M  V30 51 1 4 46
M  V30 52 1 7 47
M  V30 53 1 9 48
M  V30 54 1 11 49
M  V30 55 1 14 50
M  V30 56 1 15 51
M  V30 57 1 17 52
M  V30 58 1 21 53
M  V30 59 1 25 54
M  V30 60 1 26 55
M  V30 61 1 28 56
M  V30 62 1 29 57
M  V30 63 1 30 58
M  V30 64 1 32 59
M  V30 65 1 34 60
M  V30 66 1 36 61
M  V30 67 1 37 62
M  V30 END BOND
M  V30 END CTAB
M  END
>  <Dataset>  (566) 
ChEMBL_Kinases

>  <Ligand_Instance>  (566) 
nan

>  <PDB_ID>  (566) 
nan

>  <Standardized_SMILES>  (566) 
CC(C)CC(=O)Nc1cncc(-c2ccc3[nH]nc(-c4cc5c(-c6ccncc6)cncc5[nH]4)c3c2)c1

>  <Name>  (566) 
nan

>  <Pocket>  (566) 
nan

>  <ATP_Site>  (566) 
nan

>  <Peripheral>  (566) 
nan

>  <Num_H_Atoms_ProtBoundConf>  (566) 
nan

>  <Num_Resolved_Atoms>  (566) 
nan

>  <Num_Not_Resolved_Atoms>  (566) 
nan

$$$$
CHEMBL4756072
     RDKit          3D

  0  0  0  0  0  0  0  0  0  0999 V3000
M  V30 BEGIN CTAB
M  V30 COUNTS 61 67 0 0 0
M  V30 BEGIN ATOM
M  V30 1 F 6.013120 -1.588034 4.701824 0
M  V30 2 C 5.733885 -0.263236 4.913636 0
M  V30 3 C 6.240356 0.371070 6.029575 0
M  V30 4 C 6.008458 1.697566 6.316280 0
M  V30 5 C 5.223626 2.458656 5.447975 0
M  V30 6 C 4.723684 1.816559 4.338674 0
M  V30 7 C 4.947224 0.493163 4.039733 0
M  V30 8 C 4.456025 -0.251646 2.889303 0
M  V30 9 N 5.304306 -0.925539 2.107726 0
M  V30 10 C 4.857985 -1.620525 1.037018 0
M  V30 11 C 3.512921 -1.642876 0.735544 0
M  V30 12 C 2.633441 -0.951934 1.535008 0
M  V30 13 N 1.312262 -0.766782 1.531236 0
M  V30 14 C 0.828059 -0.011164 2.501139 0
M  V30 15 C -0.457195 0.480611 2.932281 0
M  V30 16 N -0.691075 1.278754 4.013179 0
M  V30 17 N -1.954832 1.562865 4.144723 0
M  V30 18 C -2.672365 0.982636 3.168423 0
M  V30 19 C -4.005360 0.951482 2.834719 0
M  V30 20 N -4.388396 0.244622 1.748133 0
M  V30 21 C -3.520841 -0.425278 0.985307 0
M  V30 22 C -4.027783 -1.151841 -0.163488 0
M  V30 23 C -5.382731 -1.105005 -0.406108 0
M  V30 24 N -5.926449 -1.758865 -1.456447 0
M  V30 25 C -5.169858 -2.478994 -2.304006 0
M  V30 26 C -3.816354 -2.584631 -2.145208 0
M  V30 27 C -2.842889 -3.321220 -2.984119 0
M  V30 28 N -2.287713 -2.452880 -3.962669 0
M  V30 29 C -3.164579 -1.877870 -4.915768 0
M  V30 30 C -2.572508 -2.174140 -6.301501 0
M  V30 31 C -1.094432 -2.215519 -5.972064 0
M  V30 32 C -1.145283 -2.986961 -4.653535 0
M  V30 33 C -3.284300 -1.897867 -1.050824 0
M  V30 34 C -2.193054 -0.372482 1.347936 0
M  V30 35 C -1.727644 0.320660 2.433197 0
M  V30 36 C 1.998557 0.312304 3.193028 0
M  V30 37 C 3.103616 -0.248013 2.623370 0
M  V30 38 H 6.864753 -0.170599 6.752614 0
M  V30 39 H 6.417446 2.182387 7.204059 0
M  V30 40 H 4.994954 3.504715 5.601856 0
M  V30 41 H 4.103524 2.342180 3.613488 0
M  V30 42 H 5.533851 -2.175673 0.388963 0
M  V30 43 H 3.131272 -2.180927 -0.101485 0
M  V30 44 H 0.727775 -1.203310 0.797637 0
M  V30 45 H -2.312001 2.163403 4.920057 0
M  V30 46 H -4.711320 1.488868 3.446353 0
M  V30 47 H -6.076420 -0.544174 0.229142 0
M  V30 48 H -5.593995 -3.000588 -3.131790 0
M  V30 49 H -2.023709 -3.695408 -2.337738 0
M  V30 50 H -3.390385 -4.188977 -3.412378 0
M  V30 51 H -3.105338 -0.753015 -4.820575 0
M  V30 52 H -4.219345 -2.181056 -4.871263 0
M  V30 53 H -2.754622 -1.367860 -7.009767 0
M  V30 54 H -2.890720 -3.171039 -6.668538 0
M  V30 55 H -0.796678 -1.177955 -5.707104 0
M  V30 56 H -0.467669 -2.686296 -6.730620 0
M  V30 57 H -0.202175 -2.739574 -4.096186 0
M  V30 58 H -1.217947 -4.081383 -4.813261 0
M  V30 59 H -2.220111 -1.939247 -0.867438 0
M  V30 60 H -1.513286 -0.915160 0.723907 0
M  V30 61 H 2.122446 0.932427 4.092268 0
M  V30 END ATOM
M  V30 BEGIN BOND
M  V30 1 1 1 2
M  V30 2 2 2 3
M  V30 3 1 3 4
M  V30 4 2 4 5
M  V30 5 1 5 6
M  V30 6 2 6 7
M  V30 7 1 7 8
M  V30 8 2 8 9
M  V30 9 1 9 10
M  V30 10 2 10 11
M  V30 11 1 11 12
M  V30 12 1 12 13
M  V30 13 1 13 14
M  V30 14 1 14 15
M  V30 15 2 15 16
M  V30 16 1 16 17
M  V30 17 1 17 18
M  V30 18 2 18 19
M  V30 19 1 19 20
M  V30 20 2 20 21
M  V30 21 1 21 22
M  V30 22 2 22 23
M  V30 23 1 23 24
M  V30 24 2 24 25
M  V30 25 1 25 26
M  V30 26 1 26 27
M  V30 27 1 27 28
M  V30 28 1 28 29
M  V30 29 1 29 30
M  V30 30 1 30 31
M  V30 31 1 31 32
M  V30 32 2 26 33
M  V30 33 1 21 34
M  V30 34 2 34 35
M  V30 35 2 14 36
M  V30 36 1 36 37
M  V30 37 1 7 2
M  V30 38 1 37 8
M  V30 39 2 37 12
M  V30 40 1 35 15
M  V30 41 1 35 18
M  V30 42 1 33 22
M  V30 43 1 32 28
M  V30 44 1 3 38
M  V30 45 1 4 39
M  V30 46 1 5 40
M  V30 47 1 6 41
M  V30 48 1 10 42
M  V30 49 1 11 43
M  V30 50 1 13 44
M  V30 51 1 17 45
M  V30 52 1 19 46
M  V30 53 1 23 47
M  V30 54 1 25 48
M  V30 55 1 27 49
M  V30 56 1 27 50
M  V30 57 1 29 51
M  V30 58 1 29 52
M  V30 59 1 30 53
M  V30 60 1 30 54
M  V30 61 1 31 55
M  V30 62 1 31 56
M  V30 63 1 32 57
M  V30 64 1 32 58
M  V30 65 1 33 59
M  V30 66 1 34 60
M  V30 67 1 36 61
M  V30 END BOND
M  V30 END CTAB
M  END
>  <Dataset>  (567) 
ChEMBL_Kinases

>  <Ligand_Instance>  (567) 
nan

>  <PDB_ID>  (567) 
nan

>  <Standardized_SMILES>  (567) 
Fc1ccccc1-c1nccc2[nH]c(-c3n[nH]c4cnc(-c5cncc(CN6CCCC6)c5)cc34)cc12

>  <Name>  (567) 
nan

>  <Pocket>  (567) 
nan

>  <ATP_Site>  (567) 
nan

>  <Peripheral>  (567) 
nan

>  <Num_H_Atoms_ProtBoundConf>  (567) 
nan

>  <Num_Resolved_Atoms>  (567) 
nan

>  <Num_Not_Resolved_Atoms>  (567) 
nan

$$$$
CHEMBL185871
     RDKit          3D

  0  0  0  0  0  0  0  0  0  0999 V3000
M  V30 BEGIN CTAB
M  V30 COUNTS 46 49 0 0 0
M  V30 BEGIN ATOM
M  V30 1 C 0.973451 -4.789724 2.287749 0
M  V30 2 C -0.508726 -4.912388 2.054259 0
M  V30 3 C -1.071351 -3.855229 1.126079 0
M  V30 4 C -0.414536 -3.956685 -0.202675 0
M  V30 5 C -0.955943 -2.497383 1.729108 0
M  V30 6 C 0.241225 -1.826527 1.486942 0
M  V30 7 C 0.438757 -0.558859 2.026582 0
M  V30 8 C -0.550202 0.046509 2.806644 0
M  V30 9 N -0.297255 1.371155 3.326970 0
M  V30 10 C 0.760597 2.132786 2.755913 0
M  V30 11 N 1.703804 2.890330 3.331693 0
M  V30 12 C 2.624990 3.564641 2.583642 0
M  V30 13 C 2.592197 3.472440 1.205554 0
M  V30 14 C 1.615173 2.687296 0.584120 0
M  V30 15 C 1.523193 2.552904 -0.869299 0
M  V30 16 C 2.324861 3.082132 -1.853716 0
M  V30 17 N 1.844932 2.682618 -3.069741 0
M  V30 18 N 0.761889 1.916936 -2.842788 0
M  V30 19 N 0.003988 1.331207 -3.787843 0
M  V30 20 C -1.050664 0.596338 -3.354328 0
M  V30 21 C -1.401180 0.407340 -2.028028 0
M  V30 22 C -0.547451 1.058409 -1.163840 0
M  V30 23 C 0.542112 1.821928 -1.497480 0
M  V30 24 N 0.776647 2.079958 1.422483 0
M  V30 25 C -1.719271 -0.629278 3.032922 0
M  V30 26 C -1.925558 -1.896106 2.498982 0
M  V30 27 H 1.253761 -3.797547 2.669681 0
M  V30 28 H 1.574712 -5.076556 1.410925 0
M  V30 29 H 1.221560 -5.583693 3.061433 0
M  V30 30 H -1.061421 -4.825606 3.035378 0
M  V30 31 H -0.693415 -5.931015 1.657052 0
M  V30 32 H -2.175663 -4.059582 1.006668 0
M  V30 33 H -0.968939 -4.710231 -0.807872 0
M  V30 34 H 0.626608 -4.271274 -0.156722 0
M  V30 35 H -0.526352 -3.004104 -0.780096 0
M  V30 36 H 1.022851 -2.289119 0.869504 0
M  V30 37 H 1.396308 -0.123672 1.788516 0
M  V30 38 H -0.927823 1.671377 4.099193 0
M  V30 39 H 3.351886 4.149777 3.128501 0
M  V30 40 H 3.311420 3.999423 0.613706 0
M  V30 41 H 3.192337 3.713266 -1.678104 0
M  V30 42 H -1.671987 0.115443 -4.127065 0
M  V30 43 H -2.245283 -0.183130 -1.705418 0
M  V30 44 H -0.776124 0.950772 -0.098572 0
M  V30 45 H -2.458831 -0.130824 3.639005 0
M  V30 46 H -2.842987 -2.432922 2.672284 0
M  V30 END ATOM
M  V30 BEGIN BOND
M  V30 1 1 1 2
M  V30 2 1 2 3
M  V30 3 1 3 4
M  V30 4 1 3 5
M  V30 5 2 5 6
M  V30 6 1 6 7
M  V30 7 2 7 8
M  V30 8 1 8 9
M  V30 9 1 9 10
M  V30 10 2 10 11
M  V30 11 1 11 12
M  V30 12 2 12 13
M  V30 13 1 13 14
M  V30 14 1 14 15
M  V30 15 1 15 16
M  V30 16 2 16 17
M  V30 17 1 17 18
M  V30 18 1 18 19
M  V30 19 2 19 20
M  V30 20 1 20 21
M  V30 21 2 21 22
M  V30 22 1 22 23
M  V30 23 2 14 24
M  V30 24 1 8 25
M  V30 25 2 25 26
M  V30 26 1 26 5
M  V30 27 1 24 10
M  V30 28 2 23 15
M  V30 29 1 23 18
M  V30 30 1 1 27
M  V30 31 1 1 28
M  V30 32 1 1 29
M  V30 33 1 2 30
M  V30 34 1 2 31
M  V30 35 1 3 32
M  V30 36 1 4 33
M  V30 37 1 4 34
M  V30 38 1 4 35
M  V30 39 1 6 36
M  V30 40 1 7 37
M  V30 41 1 9 38
M  V30 42 1 12 39
M  V30 43 1 13 40
M  V30 44 1 16 41
M  V30 45 1 20 42
M  V30 46 1 21 43
M  V30 47 1 22 44
M  V30 48 1 25 45
M  V30 49 1 26 46
M  V30 END BOND
M  V30 END CTAB
M  END
>  <Dataset>  (568) 
ChEMBL_Kinases

>  <Ligand_Instance>  (568) 
nan

>  <PDB_ID>  (568) 
nan

>  <Standardized_SMILES>  (568) 
CCC(C)c1ccc(Nc2nccc(-c3cnn4ncccc34)n2)cc1

>  <Name>  (568) 
nan

>  <Pocket>  (568) 
nan

>  <ATP_Site>  (568) 
nan

>  <Peripheral>  (568) 
nan

>  <Num_H_Atoms_ProtBoundConf>  (568) 
nan

>  <Num_Resolved_Atoms>  (568) 
nan

>  <Num_Not_Resolved_Atoms>  (568) 
nan

$$$$
CHEMBL4760076
     RDKit          3D

  0  0  0  0  0  0  0  0  0  0999 V3000
M  V30 BEGIN CTAB
M  V30 COUNTS 59 65 0 0 0
M  V30 BEGIN ATOM
M  V30 1 F 1.895610 -4.207265 4.700161 0
M  V30 2 C 2.342565 -2.969814 5.152698 0
M  V30 3 F 2.493578 -2.986706 6.539168 0
M  V30 4 C 1.300646 -1.959327 4.708852 0
M  V30 5 C 2.179097 -0.759870 4.382134 0
M  V30 6 N 3.419489 -1.272749 3.901682 0
M  V30 7 C 3.574107 -1.326388 2.482579 0
M  V30 8 C 3.472826 -0.021198 1.795846 0
M  V30 9 C 4.680001 0.645814 1.682931 0
M  V30 10 N 4.678597 1.860404 1.059248 0
M  V30 11 C 3.536517 2.382327 0.574206 0
M  V30 12 C 2.311777 1.741043 0.670512 0
M  V30 13 C 1.102841 2.353561 0.127298 0
M  V30 14 C 1.096427 3.739686 0.178459 0
M  V30 15 N 0.017800 4.382490 -0.303772 0
M  V30 16 C -1.038315 3.734322 -0.825936 0
M  V30 17 N -2.216808 4.092829 -1.366260 0
M  V30 18 N -2.895681 3.032266 -1.727105 0
M  V30 19 C -2.235312 1.894483 -1.461043 0
M  V30 20 C -2.731674 0.567498 -1.747212 0
M  V30 21 C -2.289679 -0.717104 -1.589999 0
M  V30 22 C -3.186534 -1.648006 -2.049474 0
M  V30 23 C -3.148228 -3.025959 -2.086227 0
M  V30 24 C -2.007301 -3.756838 -1.577835 0
M  V30 25 C -1.368484 -4.829050 -2.195469 0
M  V30 26 C -0.319837 -5.263706 -1.405576 0
M  V30 27 O -0.318865 -4.492478 -0.354731 0
M  V30 28 C -1.286453 -3.599587 -0.414196 0
M  V30 29 C -4.226837 -3.692845 -2.620857 0
M  V30 30 C -5.295253 -2.993394 -3.096301 0
M  V30 31 C -5.301484 -1.616043 -3.044456 0
M  V30 32 C -4.237064 -0.905347 -2.514876 0
M  V30 33 N -3.934461 0.385331 -2.321088 0
M  V30 34 C -1.073122 2.354076 -0.896254 0
M  V30 35 C 0.023779 1.693698 -0.406089 0
M  V30 36 C 2.301670 0.512258 1.299335 0
M  V30 37 C 3.616442 -2.573406 4.465068 0
M  V30 38 H 0.666966 -1.757597 5.605804 0
M  V30 39 H 0.746760 -2.299917 3.834128 0
M  V30 40 H 1.691378 0.002130 3.780897 0
M  V30 41 H 2.376082 -0.280466 5.378327 0
M  V30 42 H 2.731367 -1.954389 2.081489 0
M  V30 43 H 4.504493 -1.855020 2.234407 0
M  V30 44 H 5.626597 0.263925 2.058864 0
M  V30 45 H 3.575659 3.354948 0.082422 0
M  V30 46 H 1.858102 4.422143 0.563582 0
M  V30 47 H -2.564002 5.067918 -1.491363 0
M  V30 48 H -1.344301 -0.982708 -1.155159 0
M  V30 49 H -1.640448 -5.269084 -3.152621 0
M  V30 50 H 0.391890 -6.060431 -1.552264 0
M  V30 51 H -1.483578 -2.853960 0.340892 0
M  V30 52 H -4.251097 -4.765077 -2.674833 0
M  V30 53 H -6.155665 -3.486988 -3.521114 0
M  V30 54 H -6.142990 -1.066028 -3.419005 0
M  V30 55 H -4.655239 1.084874 -2.632665 0
M  V30 56 H 0.063461 0.638068 -0.428646 0
M  V30 57 H 1.382496 -0.045393 1.409446 0
M  V30 58 H 3.930471 -3.333426 3.705150 0
M  V30 59 H 4.428094 -2.593463 5.246391 0
M  V30 END ATOM
M  V30 BEGIN BOND
M  V30 1 1 1 2
M  V30 2 1 2 3
M  V30 3 1 2 4
M  V30 4 1 4 5
M  V30 5 1 5 6
M  V30 6 1 6 7
M  V30 7 1 7 8
M  V30 8 2 8 9
M  V30 9 1 9 10
M  V30 10 2 10 11
M  V30 11 1 11 12
M  V30 12 1 12 13
M  V30 13 2 13 14
M  V30 14 1 14 15
M  V30 15 2 15 16
M  V30 16 1 16 17
M  V30 17 1 17 18
M  V30 18 2 18 19
M  V30 19 1 19 20
M  V30 20 2 20 21
M  V30 21 1 21 22
M  V30 22 2 22 23
M  V30 23 1 23 24
M  V30 24 1 24 25
M  V30 25 2 25 26
M  V30 26 1 26 27
M  V30 27 1 27 28
M  V30 28 1 23 29
M  V30 29 2 29 30
M  V30 30 1 30 31
M  V30 31 2 31 32
M  V30 32 1 32 33
M  V30 33 1 19 34
M  V30 34 2 34 35
M  V30 35 2 12 36
M  V30 36 1 6 37
M  V30 37 1 37 2
M  V30 38 1 36 8
M  V30 39 1 35 13
M  V30 40 1 34 16
M  V30 41 1 33 20
M  V30 42 1 32 22
M  V30 43 2 28 24
M  V30 44 1 4 38
M  V30 45 1 4 39
M  V30 46 1 5 40
M  V30 47 1 5 41
M  V30 48 1 7 42
M  V30 49 1 7 43
M  V30 50 1 9 44
M  V30 51 1 11 45
M  V30 52 1 14 46
M  V30 53 1 17 47
M  V30 54 1 21 48
M  V30 55 1 25 49
M  V30 56 1 26 50
M  V30 57 1 28 51
M  V30 58 1 29 52
M  V30 59 1 30 53
M  V30 60 1 31 54
M  V30 61 1 33 55
M  V30 62 1 35 56
M  V30 63 1 36 57
M  V30 64 1 37 58
M  V30 65 1 37 59
M  V30 END BOND
M  V30 END CTAB
M  END
>  <Dataset>  (569) 
ChEMBL_Kinases

>  <Ligand_Instance>  (569) 
nan

>  <PDB_ID>  (569) 
nan

>  <Standardized_SMILES>  (569) 
FC1(F)CCN(Cc2cncc(-c3cnc4[nH]nc(-c5cc6c(-c7ccoc7)cccc6[nH]5)c4c3)c2)C1

>  <Name>  (569) 
nan

>  <Pocket>  (569) 
nan

>  <ATP_Site>  (569) 
nan

>  <Peripheral>  (569) 
nan

>  <Num_H_Atoms_ProtBoundConf>  (569) 
nan

>  <Num_Resolved_Atoms>  (569) 
nan

>  <Num_Not_Resolved_Atoms>  (569) 
nan

$$$$
CHEMBL4759886
     RDKit          3D

  0  0  0  0  0  0  0  0  0  0999 V3000
M  V30 BEGIN CTAB
M  V30 COUNTS 60 64 0 0 0
M  V30 BEGIN ATOM
M  V30 1 C 3.893616 -2.238626 5.680305 0
M  V30 2 N 3.274201 -2.632190 4.438504 0
M  V30 3 C 2.616587 -1.530316 3.761242 0
M  V30 4 C 3.653202 -0.518372 3.303707 0
M  V30 5 N 4.495271 -1.142987 2.330919 0
M  V30 6 C 4.703940 -0.761466 0.989826 0
M  V30 7 C 3.967989 0.190266 0.306499 0
M  V30 8 C 4.167370 0.601533 -1.026849 0
M  V30 9 C 3.141150 1.628411 -1.379812 0
M  V30 10 C 2.022124 0.886457 -2.076148 0
M  V30 11 O 2.067119 0.525948 -3.274698 0
M  V30 12 N 0.893949 0.624011 -1.234745 0
M  V30 13 C -0.404899 0.036464 -1.174034 0
M  V30 14 C -1.645421 0.623176 -1.279034 0
M  V30 15 C -2.720408 -0.231468 -1.181828 0
M  V30 16 C -3.968802 0.360462 -1.255612 0
M  V30 17 C -5.059572 -0.480848 -1.128850 0
M  V30 18 C -6.445108 -0.033493 -1.144521 0
M  V30 19 C -7.039692 1.159700 -0.706010 0
M  V30 20 N -8.386108 1.071559 -0.924006 0
M  V30 21 N -8.681695 -0.107807 -1.475954 0
M  V30 22 C -10.012840 -0.573125 -1.832045 0
M  V30 23 C -7.524878 -0.782522 -1.615371 0
M  V30 24 C -4.877427 -1.857482 -0.939548 0
M  V30 25 C -3.622669 -2.427834 -0.869608 0
M  V30 26 C -2.528687 -1.585409 -0.993667 0
M  V30 27 C -1.280553 -2.165095 -0.891992 0
M  V30 28 N -0.238760 -1.293066 -0.989459 0
M  V30 29 C 5.198889 -0.012670 -1.700627 0
M  V30 30 C 5.927031 -0.957922 -1.018822 0
M  V30 31 N 5.692200 -1.314322 0.257390 0
M  V30 32 C 5.161425 -2.282737 2.878087 0
M  V30 33 C 4.270313 -3.245696 3.605843 0
M  V30 34 H 3.401559 -1.312718 6.088602 0
M  V30 35 H 4.973735 -2.049431 5.601786 0
M  V30 36 H 3.743905 -3.092674 6.403502 0
M  V30 37 H 2.074012 -1.940718 2.901788 0
M  V30 38 H 1.939513 -1.077294 4.503098 0
M  V30 39 H 4.219229 -0.203445 4.213086 0
M  V30 40 H 3.142637 0.378795 2.943425 0
M  V30 41 H 3.175734 0.597388 0.963552 0
M  V30 42 H 3.617802 2.251400 -2.161160 0
M  V30 43 H 2.813813 2.238276 -0.551981 0
M  V30 44 H 0.908146 0.942043 -0.224661 0
M  V30 45 H -1.629767 1.688508 -1.424416 0
M  V30 46 H -4.110586 1.412588 -1.399972 0
M  V30 47 H -6.444071 1.951518 -0.282391 0
M  V30 48 H -10.643023 -0.672795 -0.920160 0
M  V30 49 H -9.899840 -1.516488 -2.384462 0
M  V30 50 H -10.432933 0.158967 -2.546406 0
M  V30 51 H -7.421168 -1.774740 -2.036733 0
M  V30 52 H -5.706839 -2.537259 -0.841717 0
M  V30 53 H -3.513490 -3.499930 -0.725331 0
M  V30 54 H -1.205150 -3.230192 -0.750047 0
M  V30 55 H 5.241959 0.384017 -2.698120 0
M  V30 56 H 6.710725 -1.385896 -1.630980 0
M  V30 57 H 5.934838 -1.917096 3.606677 0
M  V30 58 H 5.684160 -2.860031 2.059038 0
M  V30 59 H 3.772175 -3.911834 2.877269 0
M  V30 60 H 4.900742 -3.898456 4.242501 0
M  V30 END ATOM
M  V30 BEGIN BOND
M  V30 1 1 1 2
M  V30 2 1 2 3
M  V30 3 1 3 4
M  V30 4 1 4 5
M  V30 5 1 5 6
M  V30 6 2 6 7
M  V30 7 1 7 8
M  V30 8 1 8 9
M  V30 9 1 9 10
M  V30 10 2 10 11
M  V30 11 1 10 12
M  V30 12 1 12 13
M  V30 13 2 13 14
M  V30 14 1 14 15
M  V30 15 2 15 16
M  V30 16 1 16 17
M  V30 17 1 17 18
M  V30 18 1 18 19
M  V30 19 2 19 20
M  V30 20 1 20 21
M  V30 21 1 21 22
M  V30 22 1 21 23
M  V30 23 2 17 24
M  V30 24 1 24 25
M  V30 25 2 25 26
M  V30 26 1 26 27
M  V30 27 2 27 28
M  V30 28 2 8 29
M  V30 29 1 29 30
M  V30 30 2 30 31
M  V30 31 1 5 32
M  V30 32 1 32 33
M  V30 33 1 33 2
M  V30 34 1 31 6
M  V30 35 1 28 13
M  V30 36 1 26 15
M  V30 37 2 23 18
M  V30 38 1 1 34
M  V30 39 1 1 35
M  V30 40 1 1 36
M  V30 41 1 3 37
M  V30 42 1 3 38
M  V30 43 1 4 39
M  V30 44 1 4 40
M  V30 45 1 7 41
M  V30 46 1 9 42
M  V30 47 1 9 43
M  V30 48 1 12 44
M  V30 49 1 14 45
M  V30 50 1 16 46
M  V30 51 1 19 47
M  V30 52 1 22 48
M  V30 53 1 22 49
M  V30 54 1 22 50
M  V30 55 1 23 51
M  V30 56 1 24 52
M  V30 57 1 25 53
M  V30 58 1 27 54
M  V30 59 1 29 55
M  V30 60 1 30 56
M  V30 61 1 32 57
M  V30 62 1 32 58
M  V30 63 1 33 59
M  V30 64 1 33 60
M  V30 END BOND
M  V30 END CTAB
M  END
>  <Dataset>  (570) 
ChEMBL_Kinases

>  <Ligand_Instance>  (570) 
nan

>  <PDB_ID>  (570) 
nan

>  <Standardized_SMILES>  (570) 
CN1CCN(c2cc(CC(=O)Nc3cc4cc(-c5cnn(C)c5)ccc4cn3)ccn2)CC1

>  <Name>  (570) 
nan

>  <Pocket>  (570) 
nan

>  <ATP_Site>  (570) 
nan

>  <Peripheral>  (570) 
nan

>  <Num_H_Atoms_ProtBoundConf>  (570) 
nan

>  <Num_Resolved_Atoms>  (570) 
nan

>  <Num_Not_Resolved_Atoms>  (570) 
nan

$$$$
CHEMBL186288
     RDKit          3D

  0  0  0  0  0  0  0  0  0  0999 V3000
M  V30 BEGIN CTAB
M  V30 COUNTS 40 43 0 0 0
M  V30 BEGIN ATOM
M  V30 1 C 0.486537 -6.049856 2.878910 0
M  V30 2 O 0.748612 -4.675474 2.881265 0
M  V30 3 C 0.752395 -3.927853 1.719355 0
M  V30 4 C 1.005737 -2.576737 1.934233 0
M  V30 5 C 1.055069 -1.657279 0.882293 0
M  V30 6 C 0.850930 -2.078024 -0.413320 0
M  V30 7 C 0.847204 -1.476460 -1.658784 0
M  V30 8 C 1.083501 -0.055722 -1.926012 0
M  V30 9 C 1.320500 0.439881 -3.167724 0
M  V30 10 C 1.551122 1.809871 -3.282534 0
M  V30 11 N 1.543368 2.641452 -2.202605 0
M  V30 12 C 1.306436 2.125069 -0.995657 0
M  V30 13 N 1.266464 2.847947 0.240171 0
M  V30 14 C 0.315589 2.556225 1.285546 0
M  V30 15 C 0.386872 3.029546 2.576118 0
M  V30 16 C -0.611009 2.717288 3.507711 0
M  V30 17 C -1.682947 1.923720 3.131870 0
M  V30 18 N -2.720879 1.586787 4.043450 0 CHG=1 VAL=4
M  V30 19 O -2.695835 1.985681 5.245205 0
M  V30 20 O -3.795143 0.816255 3.669295 0 CHG=-1 VAL=1
M  V30 21 C -1.735935 1.459642 1.836366 0
M  V30 22 C -0.758447 1.749075 0.874165 0
M  V30 23 N 1.089997 0.804517 -0.920250 0
M  V30 24 C 0.597826 -2.504441 -2.535525 0
M  V30 25 N 0.457476 -3.660098 -1.846854 0
M  V30 26 N 0.609744 -3.410378 -0.549102 0
M  V30 27 N 0.556898 -4.297981 0.429082 0
M  V30 28 H 0.722483 -6.564764 1.916848 0
M  V30 29 H 1.106721 -6.550509 3.678173 0
M  V30 30 H -0.568604 -6.283189 3.179848 0
M  V30 31 H 1.181652 -2.134056 2.897931 0
M  V30 32 H 1.249013 -0.611091 1.039040 0
M  V30 33 H 1.321127 -0.234046 -4.010145 0
M  V30 34 H 1.743778 2.236580 -4.275262 0
M  V30 35 H 1.953843 3.616018 0.393927 0
M  V30 36 H 1.247025 3.639837 2.806925 0
M  V30 37 H -0.525697 3.106802 4.519497 0
M  V30 38 H -2.613845 0.838214 1.603970 0
M  V30 39 H -0.984555 1.305251 -0.065132 0
M  V30 40 H 0.538457 -2.336145 -3.616458 0
M  V30 END ATOM
M  V30 BEGIN BOND
M  V30 1 1 1 2
M  V30 2 1 2 3
M  V30 3 1 3 4
M  V30 4 2 4 5
M  V30 5 1 5 6
M  V30 6 2 6 7
M  V30 7 1 7 8
M  V30 8 2 8 9
M  V30 9 1 9 10
M  V30 10 2 10 11
M  V30 11 1 11 12
M  V30 12 1 12 13
M  V30 13 1 13 14
M  V30 14 2 14 15
M  V30 15 1 15 16
M  V30 16 2 16 17
M  V30 17 1 17 18
M  V30 18 2 18 19
M  V30 19 1 18 20
M  V30 20 1 17 21
M  V30 21 2 21 22
M  V30 22 2 12 23
M  V30 23 1 7 24
M  V30 24 2 24 25
M  V30 25 1 25 26
M  V30 26 1 26 27
M  V30 27 2 27 3
M  V30 28 1 26 6
M  V30 29 1 23 8
M  V30 30 1 22 14
M  V30 31 1 1 28
M  V30 32 1 1 29
M  V30 33 1 1 30
M  V30 34 1 4 31
M  V30 35 1 5 32
M  V30 36 1 9 33
M  V30 37 1 10 34
M  V30 38 1 13 35
M  V30 39 1 15 36
M  V30 40 1 16 37
M  V30 41 1 21 38
M  V30 42 1 22 39
M  V30 43 1 24 40
M  V30 END BOND
M  V30 END CTAB
M  END
>  <Dataset>  (571) 
ChEMBL_Kinases

>  <Ligand_Instance>  (571) 
nan

>  <PDB_ID>  (571) 
nan

>  <Standardized_SMILES>  (571) 
COc1ccc2c(-c3ccnc(Nc4ccc([N+](=O)[O-])cc4)n3)cnn2n1

>  <Name>  (571) 
nan

>  <Pocket>  (571) 
nan

>  <ATP_Site>  (571) 
nan

>  <Peripheral>  (571) 
nan

>  <Num_H_Atoms_ProtBoundConf>  (571) 
nan

>  <Num_Resolved_Atoms>  (571) 
nan

>  <Num_Not_Resolved_Atoms>  (571) 
nan

$$$$
CHEMBL4759727
     RDKit          3D

  0  0  0  0  0  0  0  0  0  0999 V3000
M  V30 BEGIN CTAB
M  V30 COUNTS 65 70 0 0 0
M  V30 BEGIN ATOM
M  V30 1 C 6.030799 -2.120801 5.441501 0
M  V30 2 N 5.275946 -1.039335 4.813774 0
M  V30 3 C 4.475445 -0.287878 5.728111 0
M  V30 4 C 4.537243 -1.627745 3.719202 0
M  V30 5 C 3.694314 -0.637551 2.956260 0
M  V30 6 N 4.491919 0.422874 2.370852 0
M  V30 7 C 3.925540 1.495824 1.588863 0
M  V30 8 C 4.717634 2.493032 1.044567 0
M  V30 9 C 4.106659 3.495131 0.302194 0
M  V30 10 F 4.875165 4.467672 -0.229101 0
M  V30 11 C 2.727453 3.459499 0.133911 0
M  V30 12 C 1.935222 2.447259 0.687942 0
M  V30 13 C 0.516767 2.619532 0.382728 0
M  V30 14 C -0.042205 3.873608 0.569489 0
M  V30 15 C -1.383485 4.013951 0.282934 0
M  V30 16 C -2.139622 2.953177 -0.170580 0
M  V30 17 C -1.537001 1.725352 -0.340273 0
M  V30 18 N -2.000203 0.536800 -0.758009 0
M  V30 19 C -1.093554 -0.439628 -0.791728 0
M  V30 20 C -1.063930 -1.840124 -1.145470 0
M  V30 21 N 0.021789 -2.661034 -1.095987 0
M  V30 22 N -0.251001 -3.868694 -1.472653 0
M  V30 23 C -1.532426 -3.971522 -1.807137 0
M  V30 24 C -2.335277 -4.996613 -2.264173 0
M  V30 25 N -3.653459 -4.745144 -2.516207 0
M  V30 26 C -4.177613 -3.505389 -2.322809 0
M  V30 27 C -5.595344 -3.337387 -2.620005 0
M  V30 28 C -6.297408 -4.434855 -3.071104 0
M  V30 29 N -7.626275 -4.376801 -3.375241 0
M  V30 30 C -8.324452 -3.234544 -3.248779 0
M  V30 31 C -7.639103 -2.124381 -2.798399 0
M  V30 32 N -8.325283 -0.866409 -2.639339 0
M  V30 33 C -6.292630 -2.170368 -2.486943 0
M  V30 34 C -3.359794 -2.516002 -1.871399 0
M  V30 35 C -2.024860 -2.709056 -1.600294 0
M  V30 36 C 0.041832 0.222984 -0.347910 0
M  V30 37 C -0.211845 1.540798 -0.068964 0
M  V30 38 C 2.574547 1.466986 1.420146 0
M  V30 39 H 6.110995 -1.856488 6.518222 0
M  V30 40 H 7.007218 -2.307178 4.962745 0
M  V30 41 H 5.383025 -3.024564 5.380881 0
M  V30 42 H 4.748839 0.798140 5.586830 0
M  V30 43 H 4.723181 -0.491098 6.799904 0
M  V30 44 H 3.399980 -0.445641 5.603885 0
M  V30 45 H 3.894027 -2.468337 4.027353 0
M  V30 46 H 5.285322 -2.076459 3.020432 0
M  V30 47 H 2.910398 -0.254005 3.633367 0
M  V30 48 H 3.168910 -1.234082 2.171730 0
M  V30 49 H 5.524475 0.429860 2.508871 0
M  V30 50 H 5.798601 2.484374 1.200459 0
M  V30 51 H 2.344993 4.279841 -0.457459 0
M  V30 52 H 0.529273 4.719354 0.923523 0
M  V30 53 H -1.923567 4.966012 0.396906 0
M  V30 54 H -3.191697 3.066349 -0.394511 0
M  V30 55 H -2.990923 0.410639 -1.028710 0
M  V30 56 H 0.483161 -4.614678 -1.488361 0
M  V30 57 H -1.859047 -5.942685 -2.393428 0
M  V30 58 H -5.872839 -5.409204 -3.220033 0
M  V30 59 H -9.392652 -3.168308 -3.488213 0
M  V30 60 H -8.701262 -0.048854 -3.181457 0
M  V30 61 H -8.459477 -0.825737 -1.598969 0
M  V30 62 H -5.785180 -1.300143 -2.141089 0
M  V30 63 H -3.810640 -1.572248 -1.736609 0
M  V30 64 H 1.049150 -0.181404 -0.212462 0
M  V30 65 H 1.903169 0.735519 1.811011 0
M  V30 END ATOM
M  V30 BEGIN BOND
M  V30 1 1 1 2
M  V30 2 1 2 3
M  V30 3 1 2 4
M  V30 4 1 4 5
M  V30 5 1 5 6
M  V30 6 1 6 7
M  V30 7 2 7 8
M  V30 8 1 8 9
M  V30 9 1 9 10
M  V30 10 2 9 11
M  V30 11 1 11 12
M  V30 12 1 12 13
M  V30 13 2 13 14
M  V30 14 1 14 15
M  V30 15 2 15 16
M  V30 16 1 16 17
M  V30 17 1 17 18
M  V30 18 1 18 19
M  V30 19 1 19 20
M  V30 20 2 20 21
M  V30 21 1 21 22
M  V30 22 1 22 23
M  V30 23 2 23 24
M  V30 24 1 24 25
M  V30 25 2 25 26
M  V30 26 1 26 27
M  V30 27 2 27 28
M  V30 28 1 28 29
M  V30 29 2 29 30
M  V30 30 1 30 31
M  V30 31 1 31 32
M  V30 32 2 31 33
M  V30 33 1 26 34
M  V30 34 2 34 35
M  V30 35 2 19 36
M  V30 36 1 36 37
M  V30 37 2 12 38
M  V30 38 1 38 7
M  V30 39 1 37 13
M  V30 40 2 37 17
M  V30 41 1 35 20
M  V30 42 1 35 23
M  V30 43 1 33 27
M  V30 44 1 1 39
M  V30 45 1 1 40
M  V30 46 1 1 41
M  V30 47 1 3 42
M  V30 48 1 3 43
M  V30 49 1 3 44
M  V30 50 1 4 45
M  V30 51 1 4 46
M  V30 52 1 5 47
M  V30 53 1 5 48
M  V30 54 1 6 49
M  V30 55 1 8 50
M  V30 56 1 11 51
M  V30 57 1 14 52
M  V30 58 1 15 53
M  V30 59 1 16 54
M  V30 60 1 18 55
M  V30 61 1 22 56
M  V30 62 1 24 57
M  V30 63 1 28 58
M  V30 64 1 30 59
M  V30 65 1 32 60
M  V30 66 1 32 61
M  V30 67 1 33 62
M  V30 68 1 34 63
M  V30 69 1 36 64
M  V30 70 1 38 65
M  V30 END BOND
M  V30 END CTAB
M  END
>  <Dataset>  (572) 
ChEMBL_Kinases

>  <Ligand_Instance>  (572) 
nan

>  <PDB_ID>  (572) 
nan

>  <Standardized_SMILES>  (572) 
CN(C)CCNc1cc(F)cc(-c2cccc3[nH]c(-c4n[nH]c5cnc(-c6cncc(N)c6)cc45)cc23)c1

>  <Name>  (572) 
nan

>  <Pocket>  (572) 
nan

>  <ATP_Site>  (572) 
nan

>  <Peripheral>  (572) 
nan

>  <Num_H_Atoms_ProtBoundConf>  (572) 
nan

>  <Num_Resolved_Atoms>  (572) 
nan

>  <Num_Not_Resolved_Atoms>  (572) 
nan

$$$$
CHEMBL4759630
     RDKit          3D

  0  0  0  0  0  0  0  0  0  0999 V3000
M  V30 BEGIN CTAB
M  V30 COUNTS 73 78 0 0 0
M  V30 BEGIN ATOM
M  V30 1 C 6.271931 -8.555765 -5.005187 0
M  V30 2 C 5.639719 -8.323510 -3.660340 0
M  V30 3 C 5.244651 -6.909815 -3.447046 0
M  V30 4 C 6.355651 -5.916608 -3.505890 0
M  V30 5 C 5.804903 -4.555390 -3.271913 0
M  V30 6 O 4.606097 -4.996784 -3.212632 0
M  V30 7 N 6.250919 -3.223628 -3.140937 0
M  V30 8 C 5.004174 -2.515876 -2.934441 0
M  V30 9 C 4.459745 -2.083508 -4.128364 0
M  V30 10 N 3.276470 -1.420157 -4.043126 0
M  V30 11 C 2.733613 -1.238590 -2.816023 0
M  V30 12 C 3.263547 -1.663251 -1.618851 0
M  V30 13 C 2.596588 -1.441668 -0.342848 0
M  V30 14 C 1.386485 -0.815412 -0.181209 0
M  V30 15 C 0.715884 -0.599796 0.999026 0
M  V30 16 C -0.487863 0.003385 1.292500 0
M  V30 17 C -1.465470 0.617393 0.419648 0
M  V30 18 C -2.650223 1.160301 0.938834 0
M  V30 19 C -3.412503 1.680453 -0.081277 0
M  V30 20 C -4.635683 2.309328 -0.043427 0
M  V30 21 C -5.417122 2.551826 1.151430 0
M  V30 22 C -6.754839 2.232957 1.017420 0
M  V30 23 C -7.708323 2.378017 2.006697 0
M  V30 24 F -9.014535 2.055708 1.844931 0
M  V30 25 C -7.253394 2.886289 3.210936 0
M  V30 26 C -5.920858 3.219554 3.388089 0
M  V30 27 C -5.560833 3.751063 4.709572 0
M  V30 28 N -5.204229 2.729796 5.645085 0
M  V30 29 S -4.782175 3.297805 7.202236 0
M  V30 30 C -3.363424 4.358369 7.156844 0
M  V30 31 O -5.923528 4.120743 7.782565 0
M  V30 32 O -4.465105 2.130727 8.087708 0
M  V30 33 C -5.008184 3.053491 2.366859 0
M  V30 34 N -5.156218 2.727158 -1.210289 0
M  V30 35 C -4.495771 2.531893 -2.358726 0
M  V30 36 C -3.269649 1.906650 -2.425586 0
M  V30 37 C -2.717500 1.470411 -1.242666 0
M  V30 38 N -1.593405 0.845866 -0.872955 0
M  V30 39 N -0.547407 -0.128208 2.625344 0
M  V30 40 N 0.506172 -0.746098 3.110886 0
M  V30 41 C 1.351264 -1.076003 2.139865 0
M  V30 42 C 2.580766 -1.713982 2.000899 0
M  V30 43 N 3.185058 -1.891758 0.801248 0
M  V30 44 C 4.450000 -2.328701 -1.691304 0
M  V30 45 H 7.308466 -8.932182 -4.830062 0
M  V30 46 H 5.737510 -9.342209 -5.592906 0
M  V30 47 H 6.390615 -7.628124 -5.602108 0
M  V30 48 H 4.673621 -8.918714 -3.656571 0
M  V30 49 H 6.266796 -8.704188 -2.826397 0
M  V30 50 H 4.508263 -6.610722 -4.237528 0
M  V30 51 H 4.704770 -6.750622 -2.492422 0
M  V30 52 H 7.236374 -6.157069 -2.910660 0
M  V30 53 H 6.691277 -5.892141 -4.586293 0
M  V30 54 H 7.282061 -3.291166 -3.248075 0
M  V30 55 H 4.903496 -2.236146 -5.100375 0
M  V30 56 H 1.801099 -0.701218 -2.876931 0
M  V30 57 H 0.966880 -0.482494 -1.103425 0
M  V30 58 H -2.958540 1.185282 1.993673 0
M  V30 59 H -7.182170 1.823448 0.088725 0
M  V30 60 H -7.994018 3.012093 4.010994 0
M  V30 61 H -4.676906 4.412537 4.590061 0
M  V30 62 H -6.387550 4.368445 5.106380 0
M  V30 63 H -5.933869 1.989503 5.678034 0
M  V30 64 H -2.647153 3.962087 6.386006 0
M  V30 65 H -2.810602 4.321457 8.130405 0
M  V30 66 H -3.601547 5.395235 6.869985 0
M  V30 67 H -3.963468 3.301672 2.458818 0
M  V30 68 H -4.947436 2.881444 -3.266029 0
M  V30 69 H -2.713313 1.732659 -3.322251 0
M  V30 70 H -0.913817 0.586716 -1.597329 0
M  V30 71 H 0.661659 -0.949877 4.125965 0
M  V30 72 H 3.024418 -2.062415 2.931741 0
M  V30 73 H 4.938422 -2.693591 -0.821883 0
M  V30 END ATOM
M  V30 BEGIN BOND
M  V30 1 1 1 2
M  V30 2 1 2 3
M  V30 3 1 3 4
M  V30 4 1 4 5
M  V30 5 2 5 6
M  V30 6 1 5 7
M  V30 7 1 7 8
M  V30 8 2 8 9
M  V30 9 1 9 10
M  V30 10 2 10 11
M  V30 11 1 11 12
M  V30 12 1 12 13
M  V30 13 2 13 14
M  V30 14 1 14 15
M  V30 15 1 15 16
M  V30 16 1 16 17
M  V30 17 2 17 18
M  V30 18 1 18 19
M  V30 19 2 19 20
M  V30 20 1 20 21
M  V30 21 2 21 22
M  V30 22 1 22 23
M  V30 23 1 23 24
M  V30 24 2 23 25
M  V30 25 1 25 26
M  V30 26 1 26 27
M  V30 27 1 27 28
M  V30 28 1 28 29
M  V30 29 1 29 30
M  V30 30 2 29 31
M  V30 31 2 29 32
M  V30 32 2 26 33
M  V30 33 1 20 34
M  V30 34 2 34 35
M  V30 35 1 35 36
M  V30 36 2 36 37
M  V30 37 1 37 38
M  V30 38 2 16 39
M  V30 39 1 39 40
M  V30 40 1 40 41
M  V30 41 1 41 42
M  V30 42 2 42 43
M  V30 43 2 12 44
M  V30 44 1 44 8
M  V30 45 1 43 13
M  V30 46 2 41 15
M  V30 47 1 38 17
M  V30 48 1 37 19
M  V30 49 1 33 21
M  V30 50 1 1 45
M  V30 51 1 1 46
M  V30 52 1 1 47
M  V30 53 1 2 48
M  V30 54 1 2 49
M  V30 55 1 3 50
M  V30 56 1 3 51
M  V30 57 1 4 52
M  V30 58 1 4 53
M  V30 59 1 7 54
M  V30 60 1 9 55
M  V30 61 1 11 56
M  V30 62 1 14 57
M  V30 63 1 18 58
M  V30 64 1 22 59
M  V30 65 1 25 60
M  V30 66 1 27 61
M  V30 67 1 27 62
M  V30 68 1 28 63
M  V30 69 1 30 64
M  V30 70 1 30 65
M  V30 71 1 30 66
M  V30 72 1 33 67
M  V30 73 1 35 68
M  V30 74 1 36 69
M  V30 75 1 38 70
M  V30 76 1 40 71
M  V30 77 1 42 72
M  V30 78 1 44 73
M  V30 END BOND
M  V30 END CTAB
M  END
>  <Dataset>  (573) 
ChEMBL_Kinases

>  <Ligand_Instance>  (573) 
nan

>  <PDB_ID>  (573) 
nan

>  <Standardized_SMILES>  (573) 
CCCCC(=O)Nc1cncc(-c2cc3c(-c4cc5c(-c6cc(F)cc(CNS(C)(=O)=O)c6)nccc5[nH]4)n[nH]c3cn2)c1

>  <Name>  (573) 
nan

>  <Pocket>  (573) 
nan

>  <ATP_Site>  (573) 
nan

>  <Peripheral>  (573) 
nan

>  <Num_H_Atoms_ProtBoundConf>  (573) 
nan

>  <Num_Resolved_Atoms>  (573) 
nan

>  <Num_Not_Resolved_Atoms>  (573) 
nan

$$$$
CHEMBL186680
     RDKit          3D

  0  0  0  0  0  0  0  0  0  0999 V3000
M  V30 BEGIN CTAB
M  V30 COUNTS 44 47 0 0 0
M  V30 BEGIN ATOM
M  V30 1 C -3.209009 -2.137717 -0.648004 0
M  V30 2 O -1.898353 -1.609832 -0.665340 0
M  V30 3 C -0.856536 -2.432937 -0.273559 0
M  V30 4 C 0.434431 -1.937392 -0.274159 0
M  V30 5 C 1.541973 -2.682810 0.100153 0
M  V30 6 N 2.854100 -2.087633 0.076599 0
M  V30 7 C 3.002180 -0.743652 -0.348722 0
M  V30 8 N 3.862871 -0.525292 -1.350044 0
M  V30 9 C 4.085888 0.704676 -1.845439 0
M  V30 10 C 3.388870 1.773621 -1.285093 0
M  V30 11 C 2.512521 1.580614 -0.271017 0
M  V30 12 C 1.731939 2.637226 0.363510 0
M  V30 13 C 1.771947 3.987161 0.084698 0
M  V30 14 N 0.874004 4.585383 0.897840 0
M  V30 15 N 0.283180 3.678967 1.662135 0
M  V30 16 N -0.654392 3.824222 2.591465 0
M  V30 17 C -1.133427 2.738500 3.268204 0
M  V30 18 C -2.194821 2.896652 4.306258 0
M  V30 19 C -0.646422 1.457167 2.996127 0
M  V30 20 C 0.325828 1.351066 2.024250 0
M  V30 21 C 0.790889 2.473353 1.355249 0
M  V30 22 N 2.356333 0.317713 0.156959 0
M  V30 23 C 1.354765 -4.005266 0.499439 0
M  V30 24 C 0.059272 -4.480309 0.492137 0
M  V30 25 C -0.150327 -5.892036 0.912463 0
M  V30 26 F -1.312222 -6.353232 0.342437 0
M  V30 27 F 0.916196 -6.625843 0.385055 0
M  V30 28 F -0.218791 -6.004972 2.286493 0
M  V30 29 C -1.057588 -3.741779 0.119989 0
M  V30 30 H -3.332547 -3.073016 -1.214228 0
M  V30 31 H -3.944648 -1.372340 -1.009894 0
M  V30 32 H -3.502614 -2.379024 0.419450 0
M  V30 33 H 0.531145 -0.923272 -0.591607 0
M  V30 34 H 3.648257 -2.705163 0.388461 0
M  V30 35 H 4.780077 0.923398 -2.664663 0
M  V30 36 H 3.514981 2.806741 -1.634525 0
M  V30 37 H 2.440421 4.384410 -0.666810 0
M  V30 38 H -2.386707 3.972382 4.501942 0
M  V30 39 H -1.901081 2.367403 5.218451 0
M  V30 40 H -3.089895 2.395190 3.883073 0
M  V30 41 H -1.018888 0.577001 3.530094 0
M  V30 42 H 0.681002 0.360647 1.834912 0
M  V30 43 H 2.216958 -4.584524 0.791533 0
M  V30 44 H -2.053876 -4.166272 0.131313 0
M  V30 END ATOM
M  V30 BEGIN BOND
M  V30 1 1 1 2
M  V30 2 1 2 3
M  V30 3 2 3 4
M  V30 4 1 4 5
M  V30 5 1 5 6
M  V30 6 1 6 7
M  V30 7 2 7 8
M  V30 8 1 8 9
M  V30 9 2 9 10
M  V30 10 1 10 11
M  V30 11 1 11 12
M  V30 12 1 12 13
M  V30 13 2 13 14
M  V30 14 1 14 15
M  V30 15 1 15 16
M  V30 16 2 16 17
M  V30 17 1 17 18
M  V30 18 1 17 19
M  V30 19 2 19 20
M  V30 20 1 20 21
M  V30 21 2 11 22
M  V30 22 2 5 23
M  V30 23 1 23 24
M  V30 24 1 24 25
M  V30 25 1 25 26
M  V30 26 1 25 27
M  V30 27 1 25 28
M  V30 28 2 24 29
M  V30 29 1 29 3
M  V30 30 1 22 7
M  V30 31 2 21 12
M  V30 32 1 21 15
M  V30 33 1 1 30
M  V30 34 1 1 31
M  V30 35 1 1 32
M  V30 36 1 4 33
M  V30 37 1 6 34
M  V30 38 1 9 35
M  V30 39 1 10 36
M  V30 40 1 13 37
M  V30 41 1 18 38
M  V30 42 1 18 39
M  V30 43 1 18 40
M  V30 44 1 19 41
M  V30 45 1 20 42
M  V30 46 1 23 43
M  V30 47 1 29 44
M  V30 END BOND
M  V30 END CTAB
M  END
>  <Dataset>  (574) 
ChEMBL_Kinases

>  <Ligand_Instance>  (574) 
nan

>  <PDB_ID>  (574) 
nan

>  <Standardized_SMILES>  (574) 
COc1cc(Nc2nccc(-c3cnn4nc(C)ccc34)n2)cc(C(F)(F)F)c1

>  <Name>  (574) 
nan

>  <Pocket>  (574) 
nan

>  <ATP_Site>  (574) 
nan

>  <Peripheral>  (574) 
nan

>  <Num_H_Atoms_ProtBoundConf>  (574) 
nan

>  <Num_Resolved_Atoms>  (574) 
nan

>  <Num_Not_Resolved_Atoms>  (574) 
nan

$$$$
CHEMBL4759538
     RDKit          3D

  0  0  0  0  0  0  0  0  0  0999 V3000
M  V30 BEGIN CTAB
M  V30 COUNTS 54 57 0 0 0
M  V30 BEGIN ATOM
M  V30 1 C -0.101990 -1.647882 3.836747 0
M  V30 2 N 0.829668 -2.625312 4.318347 0
M  V30 3 C 1.748310 -2.085433 5.295502 0
M  V30 4 C 2.814881 -1.193052 4.681331 0
M  V30 5 C 3.477466 -1.924067 3.618463 0
M  V30 6 N 3.439596 -1.458754 2.273002 0
M  V30 7 C 4.478992 -1.177635 1.379702 0
M  V30 8 O 5.655053 -1.323857 1.714597 0
M  V30 9 C 4.159002 -0.711429 0.052785 0
M  V30 10 C 2.997150 -0.471429 -0.555369 0
M  V30 11 C 2.973343 -0.022589 -1.854493 0
M  V30 12 N 1.799007 0.269357 -2.612993 0
M  V30 13 C 0.717003 0.958359 -2.170872 0
M  V30 14 C -0.225379 1.041129 -3.190749 0
M  V30 15 N -1.485453 1.727716 -2.989793 0
M  V30 16 C -2.534661 0.918505 -2.506251 0
M  V30 17 O -2.180041 -0.247859 -2.339957 0
M  V30 18 N -3.847437 1.230161 -2.204432 0
M  V30 19 C -5.004465 0.598582 -1.716255 0
M  V30 20 C -6.153664 1.352150 -1.769375 0
M  V30 21 C -7.340744 0.839240 -1.311731 0
M  V30 22 C -7.432785 -0.426332 -0.789446 0
M  V30 23 C -6.300130 -1.190962 -0.727738 0
M  V30 24 C -5.131878 -0.660175 -1.188262 0
M  V30 25 Cl -3.793388 -1.727723 -1.021925 0
M  V30 26 C 0.336626 0.373081 -4.262780 0
M  V30 27 N 1.545985 -0.066856 -3.860280 0
M  V30 28 C 4.210903 0.162125 -2.482995 0
M  V30 29 S 5.427055 -0.334151 -1.136147 0
M  V30 30 C 2.971899 -3.358139 3.587096 0
M  V30 31 C 1.496914 -3.376452 3.293295 0
M  V30 32 H -0.088597 -1.545893 2.728026 0
M  V30 33 H -1.124725 -2.012020 4.140600 0
M  V30 34 H 0.089364 -0.660506 4.278801 0
M  V30 35 H 2.188493 -2.866223 5.942483 0
M  V30 36 H 1.152531 -1.442063 5.979253 0
M  V30 37 H 2.298669 -0.254958 4.446594 0
M  V30 38 H 3.490377 -0.959211 5.533646 0
M  V30 39 H 4.557182 -2.038897 3.868690 0
M  V30 40 H 2.447956 -1.325579 1.962484 0
M  V30 41 H 2.084628 -0.639392 0.000149 0
M  V30 42 H 0.655619 1.359720 -1.161912 0
M  V30 43 H -1.732564 2.749553 -3.153361 0
M  V30 44 H -3.916008 2.270915 -2.428067 0
M  V30 45 H -6.202972 2.377477 -2.166443 0
M  V30 46 H -8.222093 1.457700 -1.369889 0
M  V30 47 H -8.397316 -0.739844 -0.459042 0
M  V30 48 H -6.433912 -2.175808 -0.307934 0
M  V30 49 H -0.201299 0.293273 -5.190109 0
M  V30 50 H 4.453668 0.487219 -3.443419 0
M  V30 51 H 3.517859 -3.938696 2.787660 0
M  V30 52 H 3.207509 -3.917195 4.522390 0
M  V30 53 H 1.193744 -4.442903 3.269355 0
M  V30 54 H 1.326008 -3.000441 2.269721 0
M  V30 END ATOM
M  V30 BEGIN BOND
M  V30 1 1 1 2
M  V30 2 1 2 3
M  V30 3 1 3 4
M  V30 4 1 4 5
M  V30 5 1 5 6
M  V30 6 1 6 7
M  V30 7 2 7 8
M  V30 8 1 7 9
M  V30 9 2 9 10
M  V30 10 1 10 11
M  V30 11 1 11 12
M  V30 12 1 12 13
M  V30 13 2 13 14
M  V30 14 1 14 15
M  V30 15 1 15 16
M  V30 16 2 16 17
M  V30 17 1 16 18
M  V30 18 1 18 19
M  V30 19 2 19 20
M  V30 20 1 20 21
M  V30 21 2 21 22
M  V30 22 1 22 23
M  V30 23 2 23 24
M  V30 24 1 24 25
M  V30 25 1 14 26
M  V30 26 2 26 27
M  V30 27 2 11 28
M  V30 28 1 28 29
M  V30 29 1 5 30
M  V30 30 1 30 31
M  V30 31 1 31 2
M  V30 32 1 29 9
M  V30 33 1 27 12
M  V30 34 1 24 19
M  V30 35 1 1 32
M  V30 36 1 1 33
M  V30 37 1 1 34
M  V30 38 1 3 35
M  V30 39 1 3 36
M  V30 40 1 4 37
M  V30 41 1 4 38
M  V30 42 1 5 39
M  V30 43 1 6 40
M  V30 44 1 10 41
M  V30 45 1 13 42
M  V30 46 1 15 43
M  V30 47 1 18 44
M  V30 48 1 20 45
M  V30 49 1 21 46
M  V30 50 1 22 47
M  V30 51 1 23 48
M  V30 52 1 26 49
M  V30 53 1 28 50
M  V30 54 1 30 51
M  V30 55 1 30 52
M  V30 56 1 31 53
M  V30 57 1 31 54
M  V30 END BOND
M  V30 END CTAB
M  END
>  <Dataset>  (575) 
ChEMBL_Kinases

>  <Ligand_Instance>  (575) 
nan

>  <PDB_ID>  (575) 
nan

>  <Standardized_SMILES>  (575) 
CN1CCC(NC(=O)c2cc(-n3cc(NC(=O)Nc4ccccc4Cl)cn3)cs2)CC1

>  <Name>  (575) 
nan

>  <Pocket>  (575) 
nan

>  <ATP_Site>  (575) 
nan

>  <Peripheral>  (575) 
nan

>  <Num_H_Atoms_ProtBoundConf>  (575) 
nan

>  <Num_Resolved_Atoms>  (575) 
nan

>  <Num_Not_Resolved_Atoms>  (575) 
nan

$$$$
CHEMBL4759401
     RDKit          3D

  0  0  0  0  0  0  0  0  0  0999 V3000
M  V30 BEGIN CTAB
M  V30 COUNTS 45 50 0 0 0
M  V30 BEGIN ATOM
M  V30 1 C -1.941314 -2.966108 3.746409 0
M  V30 2 C -2.479390 -4.220591 3.930831 0
M  V30 3 N -2.445969 -5.146385 2.974180 0
M  V30 4 C -1.873937 -4.869313 1.783149 0
M  V30 5 C -1.310414 -3.643223 1.507397 0
M  V30 6 C -0.713487 -3.424640 0.198077 0
M  V30 7 C -0.126049 -2.234421 -0.172133 0
M  V30 8 C 0.416665 -2.115096 -1.437312 0
M  V30 9 C 1.051849 -1.054088 -2.050391 0
M  V30 10 C 1.309560 0.253010 -1.473572 0
M  V30 11 N 0.965502 0.647590 -0.228660 0
M  V30 12 C 1.374404 1.910833 -0.076896 0
M  V30 13 C 1.258907 2.755272 1.011518 0
M  V30 14 C 0.603939 2.277782 2.224332 0
M  V30 15 C 1.025090 0.994446 2.585988 0
M  V30 16 C 0.498587 0.379214 3.727015 0
M  V30 17 C -0.438392 1.081689 4.467536 0
M  V30 18 N -0.825566 2.322019 4.091611 0
M  V30 19 C -0.332022 2.927252 3.001547 0
M  V30 20 C 1.745511 4.053390 0.998897 0
M  V30 21 C 2.360935 4.461105 -0.179243 0
M  V30 22 C 2.485539 3.633693 -1.274740 0
M  V30 23 C 1.997231 2.342917 -1.250879 0
M  V30 24 N 1.930869 1.276441 -2.086797 0
M  V30 25 N 1.372465 -1.486027 -3.270972 0
M  V30 26 N 0.990860 -2.734311 -3.477908 0
M  V30 27 C 0.389168 -3.153891 -2.345786 0
M  V30 28 C -0.216872 -4.336863 -1.921535 0
M  V30 29 N -0.750297 -4.448087 -0.672303 0
M  V30 30 C -1.367320 -2.718524 2.522625 0
M  V30 31 H -1.932579 -2.155271 4.487809 0
M  V30 32 H -2.928499 -4.377625 4.922896 0
M  V30 33 H -1.899992 -5.688350 1.077989 0
M  V30 34 H -0.091523 -1.405461 0.520891 0
M  V30 35 H 1.757468 0.400436 2.039410 0
M  V30 36 H 0.815517 -0.614698 4.019379 0
M  V30 37 H -0.850314 0.608994 5.354052 0
M  V30 38 H -0.595876 3.912686 2.644754 0
M  V30 39 H 1.629791 4.666499 1.870023 0
M  V30 40 H 2.750545 5.471532 -0.216601 0
M  V30 41 H 2.968777 3.956643 -2.197182 0
M  V30 42 H 2.331968 1.336790 -3.048057 0
M  V30 43 H 1.105460 -3.334452 -4.333975 0
M  V30 44 H -0.252369 -5.169827 -2.615860 0
M  V30 45 H -0.935588 -1.745983 2.342630 0
M  V30 END ATOM
M  V30 BEGIN BOND
M  V30 1 2 1 2
M  V30 2 1 2 3
M  V30 3 2 3 4
M  V30 4 1 4 5
M  V30 5 1 5 6
M  V30 6 2 6 7
M  V30 7 1 7 8
M  V30 8 1 8 9
M  V30 9 1 9 10
M  V30 10 2 10 11
M  V30 11 1 11 12
M  V30 12 2 12 13
M  V30 13 1 13 14
M  V30 14 2 14 15
M  V30 15 1 15 16
M  V30 16 2 16 17
M  V30 17 1 17 18
M  V30 18 2 18 19
M  V30 19 1 13 20
M  V30 20 2 20 21
M  V30 21 1 21 22
M  V30 22 2 22 23
M  V30 23 1 23 24
M  V30 24 2 9 25
M  V30 25 1 25 26
M  V30 26 1 26 27
M  V30 27 1 27 28
M  V30 28 2 28 29
M  V30 29 2 5 30
M  V30 30 1 30 1
M  V30 31 1 29 6
M  V30 32 2 27 8
M  V30 33 1 24 10
M  V30 34 1 23 12
M  V30 35 1 19 14
M  V30 36 1 1 31
M  V30 37 1 2 32
M  V30 38 1 4 33
M  V30 39 1 7 34
M  V30 40 1 15 35
M  V30 41 1 16 36
M  V30 42 1 17 37
M  V30 43 1 19 38
M  V30 44 1 20 39
M  V30 45 1 21 40
M  V30 46 1 22 41
M  V30 47 1 24 42
M  V30 48 1 26 43
M  V30 49 1 28 44
M  V30 50 1 30 45
M  V30 END BOND
M  V30 END CTAB
M  END
>  <Dataset>  (576) 
ChEMBL_Kinases

>  <Ligand_Instance>  (576) 
nan

>  <PDB_ID>  (576) 
nan

>  <Standardized_SMILES>  (576) 
c1cncc(-c2cc3c(-c4nc5c(-c6cccnc6)cccc5[nH]4)n[nH]c3cn2)c1

>  <Name>  (576) 
nan

>  <Pocket>  (576) 
nan

>  <ATP_Site>  (576) 
nan

>  <Peripheral>  (576) 
nan

>  <Num_H_Atoms_ProtBoundConf>  (576) 
nan

>  <Num_Resolved_Atoms>  (576) 
nan

>  <Num_Not_Resolved_Atoms>  (576) 
nan

$$$$
CHEMBL186890
     RDKit          3D

  0  0  0  0  0  0  0  0  0  0999 V3000
M  V30 BEGIN CTAB
M  V30 COUNTS 34 37 0 0 0
M  V30 BEGIN ATOM
M  V30 1 Cl -0.578550 -4.979518 4.692479 0
M  V30 2 C 0.031418 -4.199102 3.250952 0
M  V30 3 C 0.038721 -4.896354 2.068762 0
M  V30 4 C 0.520238 -4.257126 0.969025 0
M  V30 5 C 0.986807 -2.977882 0.991006 0
M  V30 6 N 1.470165 -2.336769 -0.188523 0
M  V30 7 C 1.982389 -1.012278 -0.248695 0
M  V30 8 N 3.243993 -0.504888 -0.273904 0
M  V30 9 C 3.404944 0.841645 -0.318827 0
M  V30 10 C 2.385492 1.763995 -0.343309 0
M  V30 11 C 1.105457 1.210935 -0.317146 0
M  V30 12 C -0.065479 2.109028 -0.340648 0
M  V30 13 C -0.153131 3.481445 -0.379063 0
M  V30 14 N -1.484394 3.804872 -0.390072 0
M  V30 15 N -2.199951 2.684175 -0.360315 0
M  V30 16 N -3.522066 2.566021 -0.359714 0
M  V30 17 C -4.105732 1.353640 -0.327760 0
M  V30 18 C -3.330705 0.185150 -0.294765 0
M  V30 19 C -1.944325 0.364674 -0.296785 0
M  V30 20 C -1.371326 1.622510 -0.329769 0
M  V30 21 N 1.010081 -0.119779 -0.272721 0
M  V30 22 C 0.988259 -2.259675 2.170291 0
M  V30 23 C 0.498879 -2.903256 3.296978 0
M  V30 24 Cl 0.465702 -2.058053 4.832972 0
M  V30 25 H -0.319922 -5.898627 2.026683 0
M  V30 26 H 0.517263 -4.832366 0.037625 0
M  V30 27 H 1.479663 -2.816361 -1.110081 0
M  V30 28 H 4.456620 1.145602 -0.337792 0
M  V30 29 H 2.570325 2.825658 -0.379796 0
M  V30 30 H 0.756971 4.035775 -0.392974 0
M  V30 31 H -5.166562 1.098346 -0.323964 0
M  V30 32 H -3.701032 -0.827187 -0.267303 0
M  V30 33 H -1.320702 -0.515818 -0.271490 0
M  V30 34 H 1.348884 -1.241914 2.246885 0
M  V30 END ATOM
M  V30 BEGIN BOND
M  V30 1 1 1 2
M  V30 2 2 2 3
M  V30 3 1 3 4
M  V30 4 2 4 5
M  V30 5 1 5 6
M  V30 6 1 6 7
M  V30 7 2 7 8
M  V30 8 1 8 9
M  V30 9 2 9 10
M  V30 10 1 10 11
M  V30 11 1 11 12
M  V30 12 1 12 13
M  V30 13 2 13 14
M  V30 14 1 14 15
M  V30 15 1 15 16
M  V30 16 2 16 17
M  V30 17 1 17 18
M  V30 18 2 18 19
M  V30 19 1 19 20
M  V30 20 2 11 21
M  V30 21 1 5 22
M  V30 22 2 22 23
M  V30 23 1 23 24
M  V30 24 1 23 2
M  V30 25 1 21 7
M  V30 26 2 20 12
M  V30 27 1 20 15
M  V30 28 1 3 25
M  V30 29 1 4 26
M  V30 30 1 6 27
M  V30 31 1 9 28
M  V30 32 1 10 29
M  V30 33 1 13 30
M  V30 34 1 17 31
M  V30 35 1 18 32
M  V30 36 1 19 33
M  V30 37 1 22 34
M  V30 END BOND
M  V30 END CTAB
M  END
>  <Dataset>  (577) 
ChEMBL_Kinases

>  <Ligand_Instance>  (577) 
nan

>  <PDB_ID>  (577) 
nan

>  <Standardized_SMILES>  (577) 
Clc1ccc(Nc2nccc(-c3cnn4ncccc34)n2)cc1Cl

>  <Name>  (577) 
nan

>  <Pocket>  (577) 
nan

>  <ATP_Site>  (577) 
nan

>  <Peripheral>  (577) 
nan

>  <Num_H_Atoms_ProtBoundConf>  (577) 
nan

>  <Num_Resolved_Atoms>  (577) 
nan

>  <Num_Not_Resolved_Atoms>  (577) 
nan

$$$$
CHEMBL4759361
     RDKit          3D

  0  0  0  0  0  0  0  0  0  0999 V3000
M  V30 BEGIN CTAB
M  V30 COUNTS 37 41 0 0 0
M  V30 BEGIN ATOM
M  V30 1 C 0.247762 -4.522054 2.868367 0
M  V30 2 C 1.228885 -5.451065 3.146229 0
M  V30 3 N 2.312926 -5.522486 2.354307 0
M  V30 4 C 2.464755 -4.707921 1.294414 0
M  V30 5 C 1.524752 -3.767016 0.969809 0
M  V30 6 C 1.540537 -2.823237 -0.141189 0
M  V30 7 C 2.146271 -3.184924 -1.341529 0
M  V30 8 C 2.130564 -2.241920 -2.361198 0
M  V30 9 C 1.547418 -1.007101 -2.201539 0
M  V30 10 N 1.377665 0.079459 -2.978371 0
M  V30 11 N 0.730599 1.031212 -2.335100 0
M  V30 12 C 0.421768 0.643398 -1.074399 0
M  V30 13 C -0.282625 1.431071 -0.085869 0
M  V30 14 C -0.721239 2.723862 -0.381797 0
M  V30 15 C -1.357690 3.294434 0.669509 0
M  V30 16 C -1.975271 4.512223 0.940835 0
M  V30 17 N -2.516464 4.735728 2.135004 0
M  V30 18 C -2.497285 3.827809 3.114781 0
M  V30 19 C -1.898482 2.590040 2.916879 0
M  V30 20 C -1.339053 2.360948 1.680449 0
M  V30 21 N -0.695513 1.291543 1.174900 0
M  V30 22 C 0.937977 -0.626351 -1.013256 0
M  V30 23 C 0.969657 -1.575983 -0.029017 0
M  V30 24 C 0.402527 -3.686087 1.781895 0
M  V30 25 H -0.609686 -4.512278 3.546577 0
M  V30 26 H 1.131707 -6.126067 4.001770 0
M  V30 27 H 3.324630 -4.731467 0.631305 0
M  V30 28 H 2.606972 -4.140947 -1.488980 0
M  V30 29 H 2.597482 -2.487276 -3.325600 0
M  V30 30 H 1.697663 0.197332 -3.964039 0
M  V30 31 H -0.618634 3.293332 -1.299643 0
M  V30 32 H -1.983849 5.235922 0.141802 0
M  V30 33 H -2.939331 3.994599 4.109387 0
M  V30 34 H -1.863645 1.837946 3.677870 0
M  V30 35 H -0.541978 0.448848 1.723972 0
M  V30 36 H 0.526021 -1.369211 0.918477 0
M  V30 37 H -0.430145 -3.002738 1.665957 0
M  V30 END ATOM
M  V30 BEGIN BOND
M  V30 1 2 1 2
M  V30 2 1 2 3
M  V30 3 2 3 4
M  V30 4 1 4 5
M  V30 5 1 5 6
M  V30 6 2 6 7
M  V30 7 1 7 8
M  V30 8 2 8 9
M  V30 9 1 9 10
M  V30 10 1 10 11
M  V30 11 2 11 12
M  V30 12 1 12 13
M  V30 13 2 13 14
M  V30 14 1 14 15
M  V30 15 2 15 16
M  V30 16 1 16 17
M  V30 17 2 17 18
M  V30 18 1 18 19
M  V30 19 2 19 20
M  V30 20 1 20 21
M  V30 21 1 12 22
M  V30 22 2 22 23
M  V30 23 2 5 24
M  V30 24 1 24 1
M  V30 25 1 23 6
M  V30 26 1 22 9
M  V30 27 1 21 13
M  V30 28 1 20 15
M  V30 29 1 1 25
M  V30 30 1 2 26
M  V30 31 1 4 27
M  V30 32 1 7 28
M  V30 33 1 8 29
M  V30 34 1 10 30
M  V30 35 1 14 31
M  V30 36 1 16 32
M  V30 37 1 18 33
M  V30 38 1 19 34
M  V30 39 1 21 35
M  V30 40 1 23 36
M  V30 41 1 24 37
M  V30 END BOND
M  V30 END CTAB
M  END
>  <Dataset>  (578) 
ChEMBL_Kinases

>  <Ligand_Instance>  (578) 
nan

>  <PDB_ID>  (578) 
nan

>  <Standardized_SMILES>  (578) 
c1cncc(-c2ccc3[nH]nc(-c4cc5cnccc5[nH]4)c3c2)c1

>  <Name>  (578) 
nan

>  <Pocket>  (578) 
nan

>  <ATP_Site>  (578) 
nan

>  <Peripheral>  (578) 
nan

>  <Num_H_Atoms_ProtBoundConf>  (578) 
nan

>  <Num_Resolved_Atoms>  (578) 
nan

>  <Num_Not_Resolved_Atoms>  (578) 
nan

$$$$
CHEMBL4283503
     RDKit          3D

  0  0  0  0  0  0  0  0  0  0999 V3000
M  V30 BEGIN CTAB
M  V30 COUNTS 38 41 0 0 0
M  V30 BEGIN ATOM
M  V30 1 O -0.909368 -2.031813 3.653174 0
M  V30 2 C 0.252007 -2.441366 3.981664 0
M  V30 3 N 0.999623 -3.052730 2.937217 0
M  V30 4 C 0.217154 -3.045521 1.746332 0
M  V30 5 C -0.569065 -4.170063 1.595834 0
M  V30 6 N -1.355645 -4.249436 0.480939 0
M  V30 7 C -1.359731 -3.253988 -0.443648 0
M  V30 8 C -0.560248 -2.146548 -0.257585 0
M  V30 9 C -0.588495 -1.077257 -1.283801 0
M  V30 10 C 0.079811 0.071336 -1.340191 0
M  V30 11 C -0.132576 0.895909 -2.417141 0
M  V30 12 C 0.541359 2.193380 -2.605152 0
M  V30 13 C 1.825860 2.406123 -2.144537 0
M  V30 14 C 2.457651 3.631222 -2.321049 0
M  V30 15 C 1.794103 4.669240 -2.972174 0
M  V30 16 N 0.535200 4.433359 -3.413932 0
M  V30 17 C -0.081596 3.246027 -3.244682 0
M  V30 18 C -1.052086 0.464517 -3.397332 0
M  V30 19 S -1.594984 -1.192155 -2.685865 0
M  V30 20 C 0.255813 -2.004572 0.844395 0
M  V30 21 C 0.633112 -2.213111 5.398421 0
M  V30 22 C 0.065255 -0.937735 6.035480 0
M  V30 23 C -0.500179 -2.258865 6.408606 0
M  V30 24 H 1.960082 -3.378024 3.257938 0
M  V30 25 H -0.603088 -4.982964 2.295361 0
M  V30 26 H -2.001768 -3.388304 -1.289913 0
M  V30 27 H 0.763676 0.317098 -0.541643 0
M  V30 28 H 2.355440 1.599550 -1.633012 0
M  V30 29 H 3.462397 3.838453 -1.974170 0
M  V30 30 H 2.191684 5.647419 -3.157525 0
M  V30 31 H -1.091265 3.138399 -3.628555 0
M  V30 32 H -1.340740 0.954887 -4.280159 0
M  V30 33 H 0.890308 -1.145601 1.010656 0
M  V30 34 H 1.625095 -2.540680 5.769112 0
M  V30 35 H 0.699404 -0.408653 6.772731 0
M  V30 36 H -0.557391 -0.285165 5.417736 0
M  V30 37 H -1.529301 -2.541603 6.059319 0
M  V30 38 H -0.302788 -2.581899 7.449331 0
M  V30 END ATOM
M  V30 BEGIN BOND
M  V30 1 2 1 2
M  V30 2 1 2 3
M  V30 3 1 3 4
M  V30 4 2 4 5
M  V30 5 1 5 6
M  V30 6 2 6 7
M  V30 7 1 7 8
M  V30 8 1 8 9
M  V30 9 2 9 10
M  V30 10 1 10 11
M  V30 11 1 11 12
M  V30 12 2 12 13
M  V30 13 1 13 14
M  V30 14 2 14 15
M  V30 15 1 15 16
M  V30 16 2 16 17
M  V30 17 2 11 18
M  V30 18 1 18 19
M  V30 19 2 8 20
M  V30 20 1 2 21
M  V30 21 1 21 22
M  V30 22 1 22 23
M  V30 23 1 20 4
M  V30 24 1 23 21
M  V30 25 1 19 9
M  V30 26 1 17 12
M  V30 27 1 3 24
M  V30 28 1 5 25
M  V30 29 1 7 26
M  V30 30 1 10 27
M  V30 31 1 13 28
M  V30 32 1 14 29
M  V30 33 1 15 30
M  V30 34 1 17 31
M  V30 35 1 18 32
M  V30 36 1 20 33
M  V30 37 1 21 34
M  V30 38 1 22 35
M  V30 39 1 22 36
M  V30 40 1 23 37
M  V30 41 1 23 38
M  V30 END BOND
M  V30 END CTAB
M  END
>  <Dataset>  (579) 
ChEMBL_Kinases

>  <Ligand_Instance>  (579) 
nan

>  <PDB_ID>  (579) 
nan

>  <Standardized_SMILES>  (579) 
O=C(Nc1cncc(-c2cc(-c3cccnc3)cs2)c1)C1CC1

>  <Name>  (579) 
nan

>  <Pocket>  (579) 
nan

>  <ATP_Site>  (579) 
nan

>  <Peripheral>  (579) 
nan

>  <Num_H_Atoms_ProtBoundConf>  (579) 
nan

>  <Num_Resolved_Atoms>  (579) 
nan

>  <Num_Not_Resolved_Atoms>  (579) 
nan

$$$$
CHEMBL187235
     RDKit          3D

  0  0  0  0  0  0  0  0  0  0999 V3000
M  V30 BEGIN CTAB
M  V30 COUNTS 60 64 0 0 0
M  V30 BEGIN ATOM
M  V30 1 O -1.807987 -4.659859 4.199501 0
M  V30 2 C -1.291849 -3.609553 3.725565 0
M  V30 3 N -0.880411 -2.454185 4.452000 0
M  V30 4 C -0.345970 -1.495700 3.514006 0
M  V30 5 O 0.091203 -0.380442 3.897405 0
M  V30 6 C -0.446448 -2.111037 2.176789 0
M  V30 7 C -0.019218 -1.411533 0.993490 0
M  V30 8 C 1.174212 -0.732790 0.875477 0
M  V30 9 N 1.373192 -0.132052 -0.324754 0
M  V30 10 C 2.425584 0.646968 -0.859339 0
M  V30 11 C 2.441301 2.108967 -0.594813 0
M  V30 12 C 1.220570 2.849994 -1.046359 0
M  V30 13 N 0.081171 2.360459 -0.285034 0
M  V30 14 C 0.263135 2.787953 1.092617 0
M  V30 15 C -0.988316 2.942377 1.878268 0
M  V30 16 C -2.065722 2.068114 1.276251 0
M  V30 17 C -2.356183 2.645208 -0.090615 0
M  V30 18 C -1.114438 2.935440 -0.869262 0
M  V30 19 C 0.224246 -0.464017 -0.988605 0
M  V30 20 C -0.234162 -0.179997 -2.280552 0
M  V30 21 C -1.430299 -0.598671 -2.809938 0
M  V30 22 C -2.242068 -1.361908 -1.994730 0
M  V30 23 C -1.830885 -1.666639 -0.714543 0
M  V30 24 C -0.626604 -1.220604 -0.243959 0
M  V30 25 C -0.985169 -3.306530 2.332501 0
M  V30 26 N -1.246257 -4.260668 1.296461 0
M  V30 27 C -0.114510 -5.048568 0.877453 0
M  V30 28 C -0.155703 -6.033231 -0.092425 0
M  V30 29 C 0.930448 -6.766226 -0.473512 0
M  V30 30 C 2.161542 -6.527930 0.133992 0
M  V30 31 C 2.287813 -5.573350 1.100761 0
M  V30 32 C 1.149408 -4.874204 1.432868 0
M  V30 33 H -0.967112 -2.357861 5.477490 0
M  V30 34 H 1.932133 -0.656141 1.660086 0
M  V30 35 H 2.393586 0.539511 -1.990251 0
M  V30 36 H 3.390576 0.155093 -0.556410 0
M  V30 37 H 2.628348 2.277188 0.510729 0
M  V30 38 H 3.366134 2.529700 -1.092879 0
M  V30 39 H 1.397625 3.934437 -0.856663 0
M  V30 40 H 1.107679 2.712624 -2.136062 0
M  V30 41 H 0.848424 3.742257 1.143021 0
M  V30 42 H 0.911986 2.038233 1.586363 0
M  V30 43 H -0.844602 2.572352 2.933822 0
M  V30 44 H -1.320770 3.999475 1.953687 0
M  V30 45 H -2.984215 2.084708 1.891445 0
M  V30 46 H -1.639468 1.054056 1.212935 0
M  V30 47 H -2.851168 3.639649 0.108415 0
M  V30 48 H -3.099188 2.021302 -0.602594 0
M  V30 49 H -1.248257 2.471184 -1.866317 0
M  V30 50 H -0.970107 4.024920 -1.085680 0
M  V30 51 H 0.418814 0.424184 -2.910959 0
M  V30 52 H -1.672122 -0.312879 -3.824821 0
M  V30 53 H -3.179858 -1.680440 -2.431673 0
M  V30 54 H -2.489173 -2.253372 -0.114115 0
M  V30 55 H -2.129280 -4.496656 0.773974 0
M  V30 56 H -1.125045 -6.219527 -0.568675 0
M  V30 57 H 0.890803 -7.522562 -1.221087 0
M  V30 58 H 3.075918 -7.067392 -0.111480 0
M  V30 59 H 3.223147 -5.369466 1.584209 0
M  V30 60 H 1.250241 -4.105324 2.211397 0
M  V30 END ATOM
M  V30 BEGIN BOND
M  V30 1 2 1 2
M  V30 2 1 2 3
M  V30 3 1 3 4
M  V30 4 2 4 5
M  V30 5 1 4 6
M  V30 6 1 6 7
M  V30 7 2 7 8
M  V30 8 1 8 9
M  V30 9 1 9 10
M  V30 10 1 10 11
M  V30 11 1 11 12
M  V30 12 1 12 13
M  V30 13 1 13 14
M  V30 14 1 14 15
M  V30 15 1 15 16
M  V30 16 1 16 17
M  V30 17 1 17 18
M  V30 18 1 9 19
M  V30 19 2 19 20
M  V30 20 1 20 21
M  V30 21 2 21 22
M  V30 22 1 22 23
M  V30 23 2 23 24
M  V30 24 2 6 25
M  V30 25 1 25 26
M  V30 26 1 26 27
M  V30 27 2 27 28
M  V30 28 1 28 29
M  V30 29 2 29 30
M  V30 30 1 30 31
M  V30 31 2 31 32
M  V30 32 1 25 2
M  V30 33 1 32 27
M  V30 34 1 24 7
M  V30 35 1 18 13
M  V30 36 1 24 19
M  V30 37 1 3 33
M  V30 38 1 8 34
M  V30 39 1 10 35
M  V30 40 1 10 36
M  V30 41 1 11 37
M  V30 42 1 11 38
M  V30 43 1 12 39
M  V30 44 1 12 40
M  V30 45 1 14 41
M  V30 46 1 14 42
M  V30 47 1 15 43
M  V30 48 1 15 44
M  V30 49 1 16 45
M  V30 50 1 16 46
M  V30 51 1 17 47
M  V30 52 1 17 48
M  V30 53 1 18 49
M  V30 54 1 18 50
M  V30 55 1 20 51
M  V30 56 1 21 52
M  V30 57 1 22 53
M  V30 58 1 23 54
M  V30 59 1 26 55
M  V30 60 1 28 56
M  V30 61 1 29 57
M  V30 62 1 30 58
M  V30 63 1 31 59
M  V30 64 1 32 60
M  V30 END BOND
M  V30 END CTAB
M  END
>  <Dataset>  (580) 
ChEMBL_Kinases

>  <Ligand_Instance>  (580) 
nan

>  <PDB_ID>  (580) 
nan

>  <Standardized_SMILES>  (580) 
O=C1NC(=O)C(c2cn(CCCN3CCCCC3)c3ccccc23)=C1Nc1ccccc1

>  <Name>  (580) 
nan

>  <Pocket>  (580) 
nan

>  <ATP_Site>  (580) 
nan

>  <Peripheral>  (580) 
nan

>  <Num_H_Atoms_ProtBoundConf>  (580) 
nan

>  <Num_Resolved_Atoms>  (580) 
nan

>  <Num_Not_Resolved_Atoms>  (580) 
nan

$$$$
CHEMBL4283638
     RDKit          3D

  0  0  0  0  0  0  0  0  0  0999 V3000
M  V30 BEGIN CTAB
M  V30 COUNTS 63 68 0 0 0
M  V30 BEGIN ATOM
M  V30 1 C 4.794471 -1.060616 5.084479 0
M  V30 2 C 4.013210 0.132529 4.654911 0
M  V30 3 C 3.278029 -0.163805 3.427194 0
M  V30 4 C 1.946853 -0.523519 3.498109 0
M  V30 5 C 1.168876 -0.819920 2.396278 0
M  V30 6 C 1.745207 -0.757654 1.125661 0
M  V30 7 C 0.862990 -1.082142 0.004183 0
M  V30 8 C -0.488796 -0.749095 0.164628 0
M  V30 9 N -1.386567 -1.010322 -0.824450 0
M  V30 10 C -0.938566 -1.600172 -1.966658 0
M  V30 11 C -1.696183 -1.947052 -3.091338 0
M  V30 12 C -3.126564 -1.744325 -3.262464 0
M  V30 13 C -3.434018 -0.504576 -3.828744 0
M  V30 14 C -4.762219 -0.141037 -4.063802 0
M  V30 15 C -5.783926 -1.013500 -3.734298 0
M  V30 16 S -7.454376 -0.629022 -3.997478 0
M  V30 17 N -8.244951 -1.733083 -5.050724 0
M  V30 18 O -7.509449 0.740846 -4.658753 0
M  V30 19 O -8.217481 -0.435069 -2.695425 0
M  V30 20 C -5.468913 -2.246135 -3.170826 0
M  V30 21 C -6.405728 -3.188963 -2.805913 0
M  V30 22 C -6.114976 -4.400116 -2.253728 0
M  V30 23 C -4.768054 -4.694113 -2.048389 0
M  V30 24 C -3.747329 -3.800340 -2.386870 0
M  V30 25 C -4.156154 -2.603773 -2.939208 0
M  V30 26 C -0.753603 -2.511138 -3.958294 0
M  V30 27 N 0.465360 -2.483525 -3.356261 0
M  V30 28 N 0.370249 -1.939098 -2.159323 0
M  V30 29 C 1.257100 -1.678947 -1.177411 0
M  V30 30 C 3.079903 -0.399408 1.023963 0
M  V30 31 C 3.811022 -0.112684 2.167532 0
M  V30 32 N 4.840834 1.320260 4.590139 0
M  V30 33 C 4.072748 2.474938 4.162269 0
M  V30 34 C 4.965309 3.609302 4.622608 0
M  V30 35 C 5.744281 3.051167 5.804553 0
M  V30 36 C 5.156996 1.682983 5.959321 0
M  V30 37 H 4.353045 -1.998214 4.660315 0
M  V30 38 H 4.725298 -1.231479 6.198986 0
M  V30 39 H 5.872582 -1.023076 4.834905 0
M  V30 40 H 3.279944 0.344748 5.488410 0
M  V30 41 H 1.489402 -0.574726 4.482989 0
M  V30 42 H 0.118307 -1.095355 2.566084 0
M  V30 43 H -0.941367 -0.281554 1.026476 0
M  V30 44 H -2.687782 0.239948 -4.116856 0
M  V30 45 H -5.002376 0.816985 -4.501593 0
M  V30 46 H -9.201287 -1.979638 -4.672972 0
M  V30 47 H -8.439916 -1.300864 -6.001835 0
M  V30 48 H -7.467613 -2.956340 -2.968094 0
M  V30 49 H -6.884080 -5.121902 -1.977409 0
M  V30 50 H -4.545574 -5.654833 -1.610931 0
M  V30 51 H -2.707331 -4.046344 -2.219937 0
M  V30 52 H -1.014880 -2.890399 -4.937241 0
M  V30 53 H 2.302265 -1.926353 -1.278310 0
M  V30 54 H 3.458831 -0.370922 0.024431 0
M  V30 55 H 4.853027 0.164043 2.047850 0
M  V30 56 H 4.029845 2.559650 3.058489 0
M  V30 57 H 3.101098 2.553954 4.666534 0
M  V30 58 H 4.362763 4.511364 4.919030 0
M  V30 59 H 5.698985 3.877575 3.823473 0
M  V30 60 H 5.608040 3.687961 6.702959 0
M  V30 61 H 6.831790 2.989950 5.618789 0
M  V30 62 H 4.187207 1.773619 6.496443 0
M  V30 63 H 5.848730 0.960759 6.433839 0
M  V30 END ATOM
M  V30 BEGIN BOND
M  V30 1 1 1 2
M  V30 2 1 2 3
M  V30 3 2 3 4
M  V30 4 1 4 5
M  V30 5 2 5 6
M  V30 6 1 6 7
M  V30 7 1 7 8
M  V30 8 2 8 9
M  V30 9 1 9 10
M  V30 10 2 10 11
M  V30 11 1 11 12
M  V30 12 2 12 13
M  V30 13 1 13 14
M  V30 14 2 14 15
M  V30 15 1 15 16
M  V30 16 1 16 17
M  V30 17 2 16 18
M  V30 18 2 16 19
M  V30 19 1 15 20
M  V30 20 2 20 21
M  V30 21 1 21 22
M  V30 22 2 22 23
M  V30 23 1 23 24
M  V30 24 2 24 25
M  V30 25 1 11 26
M  V30 26 2 26 27
M  V30 27 1 27 28
M  V30 28 1 28 29
M  V30 29 1 6 30
M  V30 30 2 30 31
M  V30 31 1 2 32
M  V30 32 1 32 33
M  V30 33 1 33 34
M  V30 34 1 34 35
M  V30 35 1 35 36
M  V30 36 1 31 3
M  V30 37 1 36 32
M  V30 38 2 29 7
M  V30 39 1 28 10
M  V30 40 1 25 12
M  V30 41 1 25 20
M  V30 42 1 1 37
M  V30 43 1 1 38
M  V30 44 1 1 39
M  V30 45 1 2 40
M  V30 46 1 4 41
M  V30 47 1 5 42
M  V30 48 1 8 43
M  V30 49 1 13 44
M  V30 50 1 14 45
M  V30 51 1 17 46
M  V30 52 1 17 47
M  V30 53 1 21 48
M  V30 54 1 22 49
M  V30 55 1 23 50
M  V30 56 1 24 51
M  V30 57 1 26 52
M  V30 58 1 29 53
M  V30 59 1 30 54
M  V30 60 1 31 55
M  V30 61 1 33 56
M  V30 62 1 33 57
M  V30 63 1 34 58
M  V30 64 1 34 59
M  V30 65 1 35 60
M  V30 66 1 35 61
M  V30 67 1 36 62
M  V30 68 1 36 63
M  V30 END BOND
M  V30 END CTAB
M  END
>  <Dataset>  (581) 
ChEMBL_Kinases

>  <Ligand_Instance>  (581) 
nan

>  <PDB_ID>  (581) 
nan

>  <Standardized_SMILES>  (581) 
CC(c1ccc(-c2cnc3c(-c4ccc(S(N)(=O)=O)c5ccccc45)cnn3c2)cc1)N1CCCC1

>  <Name>  (581) 
nan

>  <Pocket>  (581) 
nan

>  <ATP_Site>  (581) 
nan

>  <Peripheral>  (581) 
nan

>  <Num_H_Atoms_ProtBoundConf>  (581) 
nan

>  <Num_Resolved_Atoms>  (581) 
nan

>  <Num_Not_Resolved_Atoms>  (581) 
nan

$$$$
CHEMBL4759225
     RDKit          3D

  0  0  0  0  0  0  0  0  0  0999 V3000
M  V30 BEGIN CTAB
M  V30 COUNTS 56 61 0 0 0
M  V30 BEGIN ATOM
M  V30 1 C 6.353283 -2.539490 1.593858 0
M  V30 2 N 5.691393 -1.264801 1.811354 0
M  V30 3 C 4.384502 -1.458331 2.365178 0
M  V30 4 C 5.549498 -0.653026 0.503928 0
M  V30 5 C 4.883239 0.665505 0.648282 0
M  V30 6 C 5.741959 1.742312 0.846560 0
M  V30 7 N 5.190744 2.956955 0.981721 0
M  V30 8 C 3.840314 3.151267 0.929913 0
M  V30 9 C 2.980290 2.101263 0.735280 0
M  V30 10 C 1.553246 2.387294 0.691364 0
M  V30 11 C 0.563324 1.451164 0.504864 0
M  V30 12 C -0.771311 1.751955 0.468349 0
M  V30 13 C -1.876710 0.957063 0.294592 0
M  V30 14 C -2.033468 -0.464306 0.090173 0
M  V30 15 C -3.284247 -1.046672 -0.061905 0
M  V30 16 C -3.199972 -2.405213 -0.243214 0
M  V30 17 C -4.113032 -3.419219 -0.436677 0
M  V30 18 C -5.541142 -3.128948 -0.471427 0
M  V30 19 C -6.330046 -2.369302 0.365568 0
M  V30 20 C -7.676995 -2.241757 0.113610 0
M  V30 21 N -8.291623 -2.828944 -0.928707 0
M  V30 22 C -7.527026 -3.571781 -1.749067 0
M  V30 23 C -6.152045 -3.753159 -1.565586 0
M  V30 24 C -3.620668 -4.699206 -0.585997 0
M  V30 25 N -2.306986 -4.982178 -0.549256 0
M  V30 26 C -1.427078 -3.987032 -0.360089 0
M  V30 27 C -1.855837 -2.696158 -0.205708 0
M  V30 28 N -1.233272 -1.525290 -0.009173 0
M  V30 29 N -2.883258 1.864249 0.360653 0
M  V30 30 N -2.427955 3.081718 0.554621 0
M  V30 31 C -1.087612 3.081230 0.632701 0
M  V30 32 C -0.133832 4.059132 0.822855 0
M  V30 33 N 1.177567 3.678053 0.846971 0
M  V30 34 C 3.519009 0.842623 0.593290 0
M  V30 35 H 7.336046 -2.581192 2.122156 0
M  V30 36 H 6.570910 -2.741170 0.518675 0
M  V30 37 H 5.682442 -3.341721 1.957837 0
M  V30 38 H 4.387776 -2.060407 3.297035 0
M  V30 39 H 3.758978 -1.912674 1.585224 0
M  V30 40 H 3.941505 -0.480547 2.626451 0
M  V30 41 H 6.558682 -0.562918 0.073914 0
M  V30 42 H 4.905985 -1.363612 -0.078981 0
M  V30 43 H 6.835384 1.632666 0.895121 0
M  V30 44 H 3.537272 4.177430 1.053553 0
M  V30 45 H 0.904258 0.447457 0.386715 0
M  V30 46 H -4.260886 -0.565985 -0.054689 0
M  V30 47 H -5.768391 -1.938931 1.171593 0
M  V30 48 H -8.151053 -1.604296 0.876429 0
M  V30 49 H -8.072107 -4.027227 -2.579366 0
M  V30 50 H -5.685092 -4.382150 -2.318383 0
M  V30 51 H -4.298862 -5.543636 -0.742560 0
M  V30 52 H -0.365853 -4.190377 -0.326813 0
M  V30 53 H -0.202210 -1.485340 0.055779 0
M  V30 54 H -3.071909 3.897761 0.629267 0
M  V30 55 H -0.456668 5.079722 0.944387 0
M  V30 56 H 2.883044 0.004309 0.440620 0
M  V30 END ATOM
M  V30 BEGIN BOND
M  V30 1 1 1 2
M  V30 2 1 2 3
M  V30 3 1 2 4
M  V30 4 1 4 5
M  V30 5 2 5 6
M  V30 6 1 6 7
M  V30 7 2 7 8
M  V30 8 1 8 9
M  V30 9 1 9 10
M  V30 10 2 10 11
M  V30 11 1 11 12
M  V30 12 1 12 13
M  V30 13 1 13 14
M  V30 14 2 14 15
M  V30 15 1 15 16
M  V30 16 2 16 17
M  V30 17 1 17 18
M  V30 18 2 18 19
M  V30 19 1 19 20
M  V30 20 2 20 21
M  V30 21 1 21 22
M  V30 22 2 22 23
M  V30 23 1 17 24
M  V30 24 2 24 25
M  V30 25 1 25 26
M  V30 26 2 26 27
M  V30 27 1 27 28
M  V30 28 2 13 29
M  V30 29 1 29 30
M  V30 30 1 30 31
M  V30 31 1 31 32
M  V30 32 2 32 33
M  V30 33 2 9 34
M  V30 34 1 34 5
M  V30 35 1 33 10
M  V30 36 2 31 12
M  V30 37 1 28 14
M  V30 38 1 27 16
M  V30 39 1 23 18
M  V30 40 1 1 35
M  V30 41 1 1 36
M  V30 42 1 1 37
M  V30 43 1 3 38
M  V30 44 1 3 39
M  V30 45 1 3 40
M  V30 46 1 4 41
M  V30 47 1 4 42
M  V30 48 1 6 43
M  V30 49 1 8 44
M  V30 50 1 11 45
M  V30 51 1 15 46
M  V30 52 1 19 47
M  V30 53 1 20 48
M  V30 54 1 22 49
M  V30 55 1 23 50
M  V30 56 1 24 51
M  V30 57 1 26 52
M  V30 58 1 28 53
M  V30 59 1 30 54
M  V30 60 1 32 55
M  V30 61 1 34 56
M  V30 END BOND
M  V30 END CTAB
M  END
>  <Dataset>  (582) 
ChEMBL_Kinases

>  <Ligand_Instance>  (582) 
nan

>  <PDB_ID>  (582) 
nan

>  <Standardized_SMILES>  (582) 
CN(C)Cc1cncc(-c2cc3c(-c4cc5c(-c6ccncc6)cncc5[nH]4)n[nH]c3cn2)c1

>  <Name>  (582) 
nan

>  <Pocket>  (582) 
nan

>  <ATP_Site>  (582) 
nan

>  <Peripheral>  (582) 
nan

>  <Num_H_Atoms_ProtBoundConf>  (582) 
nan

>  <Num_Resolved_Atoms>  (582) 
nan

>  <Num_Not_Resolved_Atoms>  (582) 
nan

$$$$
CHEMBL4760089
     RDKit          3D

  0  0  0  0  0  0  0  0  0  0999 V3000
M  V30 BEGIN CTAB
M  V30 COUNTS 46 50 0 0 0
M  V30 BEGIN ATOM
M  V30 1 O -0.665877 0.343878 1.969456 0
M  V30 2 C -0.557387 -0.894101 1.826640 0
M  V30 3 N 0.760834 -1.391633 1.655851 0
M  V30 4 C 1.693657 -0.309217 1.689305 0
M  V30 5 C 2.053885 0.360556 0.512481 0
M  V30 6 C 2.972698 1.409614 0.625962 0
M  V30 7 C 3.291721 2.033849 -0.562854 0
M  V30 8 C 4.190467 3.056148 -0.433456 0
M  V30 9 C 4.615818 3.810254 -1.648472 0
M  V30 10 C 4.151905 3.544107 -2.950278 0
M  V30 11 N 4.632231 4.309968 -3.917346 0
M  V30 12 C 5.408762 5.188817 -3.784345 0
M  V30 13 S 5.731770 5.164906 -1.890114 0
M  V30 14 C 4.779286 3.497227 0.731671 0
M  V30 15 C 4.410771 2.823708 1.880214 0
M  V30 16 C 3.508135 1.777398 1.842805 0
M  V30 17 C 3.123857 1.089567 2.972233 0
M  V30 18 N 2.233042 0.071665 2.866080 0
M  V30 19 C -1.763195 -1.718754 1.845198 0
M  V30 20 C -2.957206 -1.052209 2.022775 0
M  V30 21 C -4.150634 -1.768426 2.051842 0
M  V30 22 C -4.095039 -3.136614 1.900007 0
M  V30 23 C -2.896451 -3.801263 1.722233 0
M  V30 24 C -1.707736 -3.088497 1.693214 0
M  V30 25 C -2.938965 -5.281876 1.567033 0
M  V30 26 N -3.886338 -5.560298 0.505411 0
M  V30 27 C -5.185288 -4.997529 0.701918 0
M  V30 28 C -5.263693 -4.083061 1.902074 0
M  V30 29 H 0.888641 -2.411993 1.534772 0
M  V30 30 H 1.627244 0.065601 -0.448135 0
M  V30 31 H 2.885093 1.763400 -1.528708 0
M  V30 32 H 3.429870 2.759290 -3.226784 0
M  V30 33 H 5.862364 5.872064 -4.508676 0
M  V30 34 H 5.484620 4.315221 0.758970 0
M  V30 35 H 4.837347 3.117347 2.846546 0
M  V30 36 H 3.532429 1.364600 3.927478 0
M  V30 37 H -3.051564 0.031540 2.147519 0
M  V30 38 H -5.141145 -1.354335 2.184261 0
M  V30 39 H -0.766134 -3.602572 1.554406 0
M  V30 40 H -3.376591 -5.748374 2.491588 0
M  V30 41 H -1.977267 -5.707933 1.282859 0
M  V30 42 H -3.997226 -6.565965 0.308026 0
M  V30 43 H -5.448049 -4.354048 -0.180372 0
M  V30 44 H -5.987661 -5.745077 0.795038 0
M  V30 45 H -6.218196 -3.535601 1.845853 0
M  V30 46 H -5.186510 -4.707818 2.805719 0
M  V30 END ATOM
M  V30 BEGIN BOND
M  V30 1 2 1 2
M  V30 2 1 2 3
M  V30 3 1 3 4
M  V30 4 2 4 5
M  V30 5 1 5 6
M  V30 6 2 6 7
M  V30 7 1 7 8
M  V30 8 1 8 9
M  V30 9 2 9 10
M  V30 10 1 10 11
M  V30 11 2 11 12
M  V30 12 1 12 13
M  V30 13 2 8 14
M  V30 14 1 14 15
M  V30 15 2 15 16
M  V30 16 1 16 17
M  V30 17 2 17 18
M  V30 18 1 2 19
M  V30 19 2 19 20
M  V30 20 1 20 21
M  V30 21 2 21 22
M  V30 22 1 22 23
M  V30 23 2 23 24
M  V30 24 1 23 25
M  V30 25 1 25 26
M  V30 26 1 26 27
M  V30 27 1 27 28
M  V30 28 1 18 4
M  V30 29 1 24 19
M  V30 30 1 16 6
M  V30 31 1 28 22
M  V30 32 1 13 9
M  V30 33 1 3 29
M  V30 34 1 5 30
M  V30 35 1 7 31
M  V30 36 1 10 32
M  V30 37 1 12 33
M  V30 38 1 14 34
M  V30 39 1 15 35
M  V30 40 1 17 36
M  V30 41 1 20 37
M  V30 42 1 21 38
M  V30 43 1 24 39
M  V30 44 1 25 40
M  V30 45 1 25 41
M  V30 46 1 26 42
M  V30 47 1 27 43
M  V30 48 1 27 44
M  V30 49 1 28 45
M  V30 50 1 28 46
M  V30 END BOND
M  V30 END CTAB
M  END
>  <Dataset>  (583) 
ChEMBL_Kinases

>  <Ligand_Instance>  (583) 
nan

>  <PDB_ID>  (583) 
nan

>  <Standardized_SMILES>  (583) 
O=C(Nc1cc2cc(-c3cncs3)ccc2cn1)c1ccc2c(c1)CNCC2

>  <Name>  (583) 
nan

>  <Pocket>  (583) 
nan

>  <ATP_Site>  (583) 
nan

>  <Peripheral>  (583) 
nan

>  <Num_H_Atoms_ProtBoundConf>  (583) 
nan

>  <Num_Resolved_Atoms>  (583) 
nan

>  <Num_Not_Resolved_Atoms>  (583) 
nan

$$$$
CHEMBL4761965
     RDKit          3D

  0  0  0  0  0  0  0  0  0  0999 V3000
M  V30 BEGIN CTAB
M  V30 COUNTS 77 82 0 0 0
M  V30 BEGIN ATOM
M  V30 1 C 3.113631 -7.130424 0.991710 0
M  V30 2 C 2.270291 -6.401489 -0.038189 0
M  V30 3 C 2.775929 -4.982679 -0.086071 0
M  V30 4 C 2.016458 -4.160858 -1.073583 0
M  V30 5 C 2.533335 -2.747481 -1.107641 0
M  V30 6 O 3.398524 -2.937117 -0.237704 0
M  V30 7 N 2.063878 -1.691710 -1.925421 0
M  V30 8 C 2.877200 -0.550169 -1.584236 0
M  V30 9 C 4.039310 -0.359701 -2.303475 0
M  V30 10 N 4.781452 0.719813 -1.951713 0
M  V30 11 C 4.370899 1.520580 -0.962406 0
M  V30 12 C 3.239432 1.382339 -0.222060 0
M  V30 13 C 2.868995 2.299799 0.848163 0
M  V30 14 C 3.632456 3.364429 1.200767 0
M  V30 15 C 3.323588 4.266156 2.224422 0
M  V30 16 C 2.143983 4.050709 2.930666 0
M  V30 17 N 1.585248 4.726813 3.949775 0
M  V30 18 N 0.472994 4.086544 4.234361 0
M  V30 19 C 0.310735 3.025849 3.426396 0
M  V30 20 C -0.832185 2.123040 3.502494 0
M  V30 21 N -1.147092 1.039584 2.772899 0
M  V30 22 C -2.327133 0.522304 3.209497 0
M  V30 23 C -3.127903 -0.545184 2.862200 0
M  V30 24 C -2.732126 -1.407602 1.776042 0
M  V30 25 C -2.837949 -2.771110 1.947270 0
M  V30 26 C -2.466790 -3.594986 0.911030 0
M  V30 27 F -2.550742 -4.942682 1.026603 0
M  V30 28 C -2.000783 -3.084631 -0.270404 0
M  V30 29 C -1.870561 -1.720541 -0.505499 0
M  V30 30 N -1.379714 -1.205257 -1.718711 0
M  V30 31 C -1.196974 0.149741 -2.164588 0
M  V30 32 C -2.472573 0.911199 -2.390792 0
M  V30 33 N -3.240122 0.215740 -3.407416 0
M  V30 34 C -4.460877 0.994002 -3.589532 0
M  V30 35 C -2.477529 0.215799 -4.650446 0
M  V30 36 C -2.260697 -0.948486 0.577553 0
M  V30 37 C -4.314664 -0.840936 3.501377 0
M  V30 38 C -4.682404 -0.002075 4.533824 0
M  V30 39 N -3.926777 1.047299 4.898640 0
M  V30 40 C -2.766353 1.316070 4.255241 0
M  V30 41 N -1.837040 2.277214 4.406840 0
M  V30 42 C 1.380873 2.964227 2.558147 0
M  V30 43 N 1.719982 2.121624 1.563305 0
M  V30 44 C 2.464932 0.300191 -0.551938 0
M  V30 45 H 2.932794 -8.232667 0.913905 0
M  V30 46 H 4.184821 -6.885614 0.855619 0
M  V30 47 H 2.727075 -6.836354 1.991876 0
M  V30 48 H 1.211523 -6.362446 0.292074 0
M  V30 49 H 2.399689 -6.903574 -1.011881 0
M  V30 50 H 3.837378 -5.028750 -0.434023 0
M  V30 51 H 2.753571 -4.512164 0.900607 0
M  V30 52 H 1.907573 -4.604854 -2.060504 0
M  V30 53 H 0.974128 -4.049053 -0.655698 0
M  V30 54 H 1.285704 -2.057534 -2.515802 0
M  V30 55 H 4.363702 -1.003637 -3.094805 0
M  V30 56 H 5.056024 2.338363 -0.789365 0
M  V30 57 H 4.546691 3.599189 0.711843 0
M  V30 58 H 3.959292 5.110281 2.481950 0
M  V30 59 H 1.982943 5.582553 4.398601 0
M  V30 60 H -3.195122 -3.236538 2.847209 0
M  V30 61 H -1.713635 -3.776032 -1.076960 0
M  V30 62 H -1.101548 -1.951094 -2.420017 0
M  V30 63 H -0.603731 0.649979 -1.343257 0
M  V30 64 H -0.541713 0.172612 -3.063461 0
M  V30 65 H -2.177813 1.899534 -2.805181 0
M  V30 66 H -3.049971 0.976367 -1.474893 0
M  V30 67 H -4.281804 1.747179 -4.384241 0
M  V30 68 H -5.304742 0.356655 -3.860945 0
M  V30 69 H -4.708669 1.516529 -2.637831 0
M  V30 70 H -1.677743 -0.549454 -4.599423 0
M  V30 71 H -3.154085 -0.069241 -5.469526 0
M  V30 72 H -2.093616 1.234247 -4.875158 0
M  V30 73 H -2.197970 0.123411 0.525328 0
M  V30 74 H -4.919387 -1.693792 3.196923 0
M  V30 75 H -5.602462 -0.176135 5.079749 0
M  V30 76 H -1.950544 3.009306 5.149117 0
M  V30 77 H 1.538249 0.083796 -0.033550 0
M  V30 END ATOM
M  V30 BEGIN BOND
M  V30 1 1 1 2
M  V30 2 1 2 3
M  V30 3 1 3 4
M  V30 4 1 4 5
M  V30 5 2 5 6
M  V30 6 1 5 7
M  V30 7 1 7 8
M  V30 8 2 8 9
M  V30 9 1 9 10
M  V30 10 2 10 11
M  V30 11 1 11 12
M  V30 12 1 12 13
M  V30 13 2 13 14
M  V30 14 1 14 15
M  V30 15 2 15 16
M  V30 16 1 16 17
M  V30 17 1 17 18
M  V30 18 2 18 19
M  V30 19 1 19 20
M  V30 20 2 20 21
M  V30 21 1 21 22
M  V30 22 2 22 23
M  V30 23 1 23 24
M  V30 24 2 24 25
M  V30 25 1 25 26
M  V30 26 1 26 27
M  V30 27 2 26 28
M  V30 28 1 28 29
M  V30 29 1 29 30
M  V30 30 1 30 31
M  V30 31 1 31 32
M  V30 32 1 32 33
M  V30 33 1 33 34
M  V30 34 1 33 35
M  V30 35 2 29 36
M  V30 36 1 23 37
M  V30 37 2 37 38
M  V30 38 1 38 39
M  V30 39 2 39 40
M  V30 40 1 40 41
M  V30 41 1 19 42
M  V30 42 2 42 43
M  V30 43 2 12 44
M  V30 44 1 44 8
M  V30 45 1 43 13
M  V30 46 1 42 16
M  V30 47 1 41 20
M  V30 48 1 40 22
M  V30 49 1 36 24
M  V30 50 1 1 45
M  V30 51 1 1 46
M  V30 52 1 1 47
M  V30 53 1 2 48
M  V30 54 1 2 49
M  V30 55 1 3 50
M  V30 56 1 3 51
M  V30 57 1 4 52
M  V30 58 1 4 53
M  V30 59 1 7 54
M  V30 60 1 9 55
M  V30 61 1 11 56
M  V30 62 1 14 57
M  V30 63 1 15 58
M  V30 64 1 17 59
M  V30 65 1 25 60
M  V30 66 1 28 61
M  V30 67 1 30 62
M  V30 68 1 31 63
M  V30 69 1 31 64
M  V30 70 1 32 65
M  V30 71 1 32 66
M  V30 72 1 34 67
M  V30 73 1 34 68
M  V30 74 1 34 69
M  V30 75 1 35 70
M  V30 76 1 35 71
M  V30 77 1 35 72
M  V30 78 1 36 73
M  V30 79 1 37 74
M  V30 80 1 38 75
M  V30 81 1 41 76
M  V30 82 1 44 77
M  V30 END BOND
M  V30 END CTAB
M  END
>  <Dataset>  (584) 
ChEMBL_Kinases

>  <Ligand_Instance>  (584) 
nan

>  <PDB_ID>  (584) 
nan

>  <Standardized_SMILES>  (584) 
CCCCC(=O)Nc1cncc(-c2ccc3[nH]nc(-c4nc5c(-c6cc(F)cc(NCCN(C)C)c6)ccnc5[nH]4)c3n2)c1

>  <Name>  (584) 
nan

>  <Pocket>  (584) 
nan

>  <ATP_Site>  (584) 
nan

>  <Peripheral>  (584) 
nan

>  <Num_H_Atoms_ProtBoundConf>  (584) 
nan

>  <Num_Resolved_Atoms>  (584) 
nan

>  <Num_Not_Resolved_Atoms>  (584) 
nan

$$$$
CHEMBL3104852
     RDKit          3D

  0  0  0  0  0  0  0  0  0  0999 V3000
M  V30 BEGIN CTAB
M  V30 COUNTS 26 27 0 0 0
M  V30 BEGIN ATOM
M  V30 1 C -0.658475 -3.256502 2.736845 0
M  V30 2 O 0.144170 -2.167747 2.524508 0
M  V30 3 C 0.654700 -2.043882 1.241377 0
M  V30 4 O 2.052949 -2.209552 1.369194 0
M  V30 5 C 2.642182 -1.054084 0.879422 0
M  V30 6 O 3.901759 -0.970802 0.891580 0
M  V30 7 C 1.670020 -0.076031 0.407508 0
M  V30 8 C 1.796517 1.178693 -0.144422 0
M  V30 9 O 3.048767 1.720248 -0.335923 0
M  V30 10 C 0.604385 1.818566 -0.474908 0
M  V30 11 O 0.702167 3.077312 -1.029744 0
M  V30 12 C -0.613141 1.200198 -0.247957 0
M  V30 13 O -1.747231 1.900528 -0.603015 0
M  V30 14 C -0.710700 -0.070970 0.312402 0
M  V30 15 C -2.017367 -0.718801 0.548825 0
M  V30 16 C 0.479916 -0.720427 0.647082 0
M  V30 17 H -1.035769 -3.290840 3.800697 0
M  V30 18 H -1.533132 -3.304162 2.074981 0
M  V30 19 H -0.032976 -4.178919 2.571810 0
M  V30 20 H 0.310472 -2.880654 0.585275 0
M  V30 21 H 3.352419 2.450943 0.311226 0
M  V30 22 H 0.099056 3.824206 -0.717396 0
M  V30 23 H -2.220778 1.710022 -1.480149 0
M  V30 24 H -2.807507 -0.208156 -0.028760 0
M  V30 25 H -1.987172 -1.803430 0.258384 0
M  V30 26 H -2.319274 -0.662688 1.619304 0
M  V30 END ATOM
M  V30 BEGIN BOND
M  V30 1 1 1 2
M  V30 2 1 2 3
M  V30 3 1 3 4
M  V30 4 1 4 5
M  V30 5 2 5 6
M  V30 6 1 5 7
M  V30 7 2 7 8
M  V30 8 1 8 9
M  V30 9 1 8 10
M  V30 10 1 10 11
M  V30 11 2 10 12
M  V30 12 1 12 13
M  V30 13 1 12 14
M  V30 14 1 14 15
M  V30 15 2 14 16
M  V30 16 1 16 3
M  V30 17 1 16 7
M  V30 18 1 1 17
M  V30 19 1 1 18
M  V30 20 1 1 19
M  V30 21 1 3 20
M  V30 22 1 9 21
M  V30 23 1 11 22
M  V30 24 1 13 23
M  V30 25 1 15 24
M  V30 26 1 15 25
M  V30 27 1 15 26
M  V30 END BOND
M  V30 END CTAB
M  END
>  <Dataset>  (585) 
ChEMBL_Kinases

>  <Ligand_Instance>  (585) 
nan

>  <PDB_ID>  (585) 
nan

>  <Standardized_SMILES>  (585) 
COC1OC(=O)c2c(O)c(O)c(O)c(C)c21

>  <Name>  (585) 
nan

>  <Pocket>  (585) 
nan

>  <ATP_Site>  (585) 
nan

>  <Peripheral>  (585) 
nan

>  <Num_H_Atoms_ProtBoundConf>  (585) 
nan

>  <Num_Resolved_Atoms>  (585) 
nan

>  <Num_Not_Resolved_Atoms>  (585) 
nan

$$$$
CHEMBL4761923
     RDKit          3D

  0  0  0  0  0  0  0  0  0  0999 V3000
M  V30 BEGIN CTAB
M  V30 COUNTS 60 66 0 0 0
M  V30 BEGIN ATOM
M  V30 1 O 2.644312 2.137781 3.818064 0
M  V30 2 C 1.850027 2.988120 4.337685 0
M  V30 3 C 2.873440 3.021778 5.415738 0
M  V30 4 C 3.979975 2.087495 5.075580 0
M  V30 5 C 5.101421 2.445059 4.355091 0
M  V30 6 C 6.062814 1.465362 4.107040 0
M  V30 7 C 5.932080 0.156118 4.555267 0
M  V30 8 C 4.796183 -0.198988 5.283035 0
M  V30 9 C 3.835991 0.790306 5.527668 0
M  V30 10 N 0.629667 3.632463 4.110941 0
M  V30 11 C 0.138848 3.134480 2.846587 0
M  V30 12 C 0.488377 3.795475 1.688957 0
M  V30 13 N 0.029233 3.327437 0.493370 0
M  V30 14 C -0.754350 2.222940 0.527678 0
M  V30 15 C -1.129075 1.530751 1.657421 0
M  V30 16 C -1.991095 0.335992 1.518130 0
M  V30 17 C -2.881398 0.010534 2.520060 0
M  V30 18 C -3.659920 -1.112557 2.345719 0
M  V30 19 C -3.545368 -1.878001 1.205441 0
M  V30 20 N -4.142567 -2.992629 0.756530 0
M  V30 21 N -3.670675 -3.336285 -0.420055 0
M  V30 22 C -2.719381 -2.474764 -0.848157 0
M  V30 23 C -1.991086 -2.554864 -2.098188 0
M  V30 24 N -2.229567 -3.561673 -2.972931 0
M  V30 25 C -1.469471 -3.475408 -4.064236 0
M  V30 26 C -1.339931 -4.234854 -5.211849 0
M  V30 27 C -2.168492 -5.422292 -5.378449 0
M  V30 28 C -2.310673 -6.293106 -4.313025 0
M  V30 29 C -3.148567 -7.310344 -4.784741 0
M  V30 30 O -3.467674 -7.050513 -6.026073 0
M  V30 31 C -2.910799 -5.936297 -6.431560 0
M  V30 32 C -0.423401 -3.835110 -6.160383 0
M  V30 33 N 0.340376 -2.719476 -5.978692 0
M  V30 34 C 0.224703 -1.971196 -4.866730 0
M  V30 35 C -0.685562 -2.354894 -3.908234 0
M  V30 36 N -1.051347 -1.859466 -2.715980 0
M  V30 37 C -2.663596 -1.574457 0.189452 0
M  V30 38 C -1.898097 -0.447822 0.388736 0
M  V30 39 C -0.660368 2.008446 2.879659 0
M  V30 40 H 2.474175 2.762752 6.417045 0
M  V30 41 H 3.235518 4.067984 5.481700 0
M  V30 42 H 5.193538 3.463087 4.011893 0
M  V30 43 H 6.951800 1.717504 3.545070 0
M  V30 44 H 6.722574 -0.559769 4.325298 0
M  V30 45 H 4.681313 -1.216017 5.638430 0
M  V30 46 H 2.964210 0.470057 6.100299 0
M  V30 47 H 0.463165 4.267848 4.928709 0
M  V30 48 H 1.117770 4.677745 1.693790 0
M  V30 49 H -1.091315 1.894726 -0.455109 0
M  V30 50 H -2.989239 0.590450 3.417019 0
M  V30 51 H -4.383616 -1.467964 3.046282 0
M  V30 52 H -4.885573 -3.552134 1.232982 0
M  V30 53 H -1.904114 -6.270481 -3.311350 0
M  V30 54 H -3.463774 -8.161008 -4.194438 0
M  V30 55 H -2.913193 -5.374133 -7.359772 0
M  V30 56 H -0.290487 -4.404013 -7.076616 0
M  V30 57 H 0.816670 -1.073176 -4.684251 0
M  V30 58 H -0.615089 -1.009059 -2.347349 0
M  V30 59 H -1.195125 -0.139560 -0.338344 0
M  V30 60 H -0.947524 1.474656 3.769017 0
M  V30 END ATOM
M  V30 BEGIN BOND
M  V30 1 2 1 2
M  V30 2 1 2 3
M  V30 3 1 3 4
M  V30 4 2 4 5
M  V30 5 1 5 6
M  V30 6 2 6 7
M  V30 7 1 7 8
M  V30 8 2 8 9
M  V30 9 1 2 10
M  V30 10 1 10 11
M  V30 11 2 11 12
M  V30 12 1 12 13
M  V30 13 2 13 14
M  V30 14 1 14 15
M  V30 15 1 15 16
M  V30 16 2 16 17
M  V30 17 1 17 18
M  V30 18 2 18 19
M  V30 19 1 19 20
M  V30 20 1 20 21
M  V30 21 2 21 22
M  V30 22 1 22 23
M  V30 23 2 23 24
M  V30 24 1 24 25
M  V30 25 2 25 26
M  V30 26 1 26 27
M  V30 27 1 27 28
M  V30 28 2 28 29
M  V30 29 1 29 30
M  V30 30 1 30 31
M  V30 31 1 26 32
M  V30 32 2 32 33
M  V30 33 1 33 34
M  V30 34 2 34 35
M  V30 35 1 35 36
M  V30 36 1 22 37
M  V30 37 2 37 38
M  V30 38 2 15 39
M  V30 39 1 9 4
M  V30 40 1 39 11
M  V30 41 1 38 16
M  V30 42 1 37 19
M  V30 43 1 36 23
M  V30 44 1 35 25
M  V30 45 2 31 27
M  V30 46 1 3 40
M  V30 47 1 3 41
M  V30 48 1 5 42
M  V30 49 1 6 43
M  V30 50 1 7 44
M  V30 51 1 8 45
M  V30 52 1 9 46
M  V30 53 1 10 47
M  V30 54 1 12 48
M  V30 55 1 14 49
M  V30 56 1 17 50
M  V30 57 1 18 51
M  V30 58 1 20 52
M  V30 59 1 28 53
M  V30 60 1 29 54
M  V30 61 1 31 55
M  V30 62 1 32 56
M  V30 63 1 34 57
M  V30 64 1 36 58
M  V30 65 1 38 59
M  V30 66 1 39 60
M  V30 END BOND
M  V30 END CTAB
M  END
>  <Dataset>  (586) 
ChEMBL_Kinases

>  <Ligand_Instance>  (586) 
nan

>  <PDB_ID>  (586) 
nan

>  <Standardized_SMILES>  (586) 
O=C(Cc1ccccc1)Nc1cncc(-c2ccc3[nH]nc(-c4nc5c(-c6ccoc6)cncc5[nH]4)c3c2)c1

>  <Name>  (586) 
nan

>  <Pocket>  (586) 
nan

>  <ATP_Site>  (586) 
nan

>  <Peripheral>  (586) 
nan

>  <Num_H_Atoms_ProtBoundConf>  (586) 
nan

>  <Num_Resolved_Atoms>  (586) 
nan

>  <Num_Not_Resolved_Atoms>  (586) 
nan

$$$$
CHEMBL4761890
     RDKit          3D

  0  0  0  0  0  0  0  0  0  0999 V3000
M  V30 BEGIN CTAB
M  V30 COUNTS 61 67 0 0 0
M  V30 BEGIN ATOM
M  V30 1 F 1.654142 2.797505 7.573207 0
M  V30 2 C 2.855047 2.361122 7.119503 0
M  V30 3 C 3.923837 2.186025 8.000626 0
M  V30 4 C 5.150835 1.740534 7.540077 0
M  V30 5 C 5.313437 1.468318 6.195317 0
M  V30 6 C 4.285298 1.624827 5.275841 0
M  V30 7 C 4.352526 1.370455 3.862577 0
M  V30 8 C 5.410079 1.784725 3.044798 0
M  V30 9 N 5.447779 1.533062 1.720332 0
M  V30 10 C 4.460495 0.861094 1.096802 0
M  V30 11 C 3.409967 0.445046 1.887018 0
M  V30 12 N 2.285642 -0.232061 1.604664 0
M  V30 13 C 1.493576 -0.452636 2.653337 0
M  V30 14 C 0.222660 -1.099462 2.915963 0
M  V30 15 N -0.389967 -1.189331 4.117419 0
M  V30 16 N -1.531676 -1.837509 4.031660 0
M  V30 17 C -1.760304 -2.223580 2.774798 0
M  V30 18 C -2.780108 -2.916452 2.146927 0
M  V30 19 C -2.723933 -3.166561 0.786763 0
M  V30 20 C -1.622020 -2.706803 0.067244 0
M  V30 21 C -1.526090 -2.952906 -1.379771 0
M  V30 22 C -0.233847 -3.091991 -1.854107 0
M  V30 23 N -0.081755 -3.318189 -3.170172 0
M  V30 24 C -1.145061 -3.402743 -3.975610 0
M  V30 25 C -2.462385 -3.275406 -3.580190 0
M  V30 26 C -3.636268 -3.368311 -4.452985 0
M  V30 27 N -4.074628 -2.143336 -5.040574 0
M  V30 28 C -4.427874 -1.148763 -4.083586 0
M  V30 29 C -4.396671 0.185173 -4.808797 0
M  V30 30 C -3.497488 -0.063573 -5.999552 0
M  V30 31 F -4.172891 0.345657 -7.128467 0
M  V30 32 F -2.317528 0.662685 -5.914492 0
M  V30 33 C -3.208851 -1.552840 -6.004153 0
M  V30 34 C -2.593622 -3.042175 -2.214436 0
M  V30 35 C -0.636847 -2.022729 0.745263 0
M  V30 36 C -0.664795 -1.759032 2.095610 0
M  V30 37 N 2.194334 0.137826 3.648166 0
M  V30 38 C 3.331520 0.680229 3.240875 0
M  V30 39 C 3.067726 2.075163 5.782959 0
M  V30 40 H 3.744347 2.413332 9.043862 0
M  V30 41 H 5.978546 1.603353 8.214072 0
M  V30 42 H 6.245173 1.115144 5.755482 0
M  V30 43 H 6.211334 2.327917 3.540313 0
M  V30 44 H 4.451205 0.637860 0.035505 0
M  V30 45 H 2.062233 -0.551953 0.646432 0
M  V30 46 H -2.130154 -1.994206 4.872172 0
M  V30 47 H -3.592894 -3.232550 2.788695 0
M  V30 48 H -3.513114 -3.699985 0.315348 0
M  V30 49 H 0.702343 -3.042521 -1.294059 0
M  V30 50 H -0.949133 -3.590850 -5.028060 0
M  V30 51 H -4.479726 -3.898517 -3.920155 0
M  V30 52 H -3.366053 -4.069271 -5.300587 0
M  V30 53 H -3.734877 -1.071671 -3.212044 0
M  V30 54 H -5.444447 -1.362280 -3.701971 0
M  V30 55 H -5.433761 0.482248 -5.102186 0
M  V30 56 H -3.948562 0.990708 -4.200210 0
M  V30 57 H -2.133392 -1.696628 -5.851617 0
M  V30 58 H -3.513929 -1.919374 -7.020621 0
M  V30 59 H -3.539634 -2.922181 -1.732789 0
M  V30 60 H 0.177373 -1.697164 0.143992 0
M  V30 61 H 2.205015 2.224918 5.123002 0
M  V30 END ATOM
M  V30 BEGIN BOND
M  V30 1 1 1 2
M  V30 2 2 2 3
M  V30 3 1 3 4
M  V30 4 2 4 5
M  V30 5 1 5 6
M  V30 6 1 6 7
M  V30 7 2 7 8
M  V30 8 1 8 9
M  V30 9 2 9 10
M  V30 10 1 10 11
M  V30 11 1 11 12
M  V30 12 1 12 13
M  V30 13 1 13 14
M  V30 14 2 14 15
M  V30 15 1 15 16
M  V30 16 1 16 17
M  V30 17 2 17 18
M  V30 18 1 18 19
M  V30 19 2 19 20
M  V30 20 1 20 21
M  V30 21 2 21 22
M  V30 22 1 22 23
M  V30 23 2 23 24
M  V30 24 1 24 25
M  V30 25 1 25 26
M  V30 26 1 26 27
M  V30 27 1 27 28
M  V30 28 1 28 29
M  V30 29 1 29 30
M  V30 30 1 30 31
M  V30 31 1 30 32
M  V30 32 1 30 33
M  V30 33 2 25 34
M  V30 34 1 20 35
M  V30 35 2 35 36
M  V30 36 2 13 37
M  V30 37 1 37 38
M  V30 38 2 6 39
M  V30 39 1 39 2
M  V30 40 1 38 7
M  V30 41 2 38 11
M  V30 42 1 36 14
M  V30 43 1 36 17
M  V30 44 1 34 21
M  V30 45 1 33 27
M  V30 46 1 3 40
M  V30 47 1 4 41
M  V30 48 1 5 42
M  V30 49 1 8 43
M  V30 50 1 10 44
M  V30 51 1 12 45
M  V30 52 1 16 46
M  V30 53 1 18 47
M  V30 54 1 19 48
M  V30 55 1 22 49
M  V30 56 1 24 50
M  V30 57 1 26 51
M  V30 58 1 26 52
M  V30 59 1 28 53
M  V30 60 1 28 54
M  V30 61 1 29 55
M  V30 62 1 29 56
M  V30 63 1 33 57
M  V30 64 1 33 58
M  V30 65 1 34 59
M  V30 66 1 35 60
M  V30 67 1 39 61
M  V30 END BOND
M  V30 END CTAB
M  END
>  <Dataset>  (587) 
ChEMBL_Kinases

>  <Ligand_Instance>  (587) 
nan

>  <PDB_ID>  (587) 
nan

>  <Standardized_SMILES>  (587) 
Fc1cccc(-c2cncc3[nH]c(-c4n[nH]c5ccc(-c6cncc(CN7CCC(F)(F)C7)c6)cc45)nc23)c1

>  <Name>  (587) 
nan

>  <Pocket>  (587) 
nan

>  <ATP_Site>  (587) 
nan

>  <Peripheral>  (587) 
nan

>  <Num_H_Atoms_ProtBoundConf>  (587) 
nan

>  <Num_Resolved_Atoms>  (587) 
nan

>  <Num_Not_Resolved_Atoms>  (587) 
nan

$$$$
CHEMBL3103883
     RDKit          3D

  0  0  0  0  0  0  0  0  0  0999 V3000
M  V30 BEGIN CTAB
M  V30 COUNTS 41 43 0 0 0
M  V30 BEGIN ATOM
M  V30 1 N 3.834778 -3.267251 -1.231914 0
M  V30 2 C 2.658500 -3.724942 -0.545865 0
M  V30 3 N 2.512099 -5.064230 -0.371899 0
M  V30 4 C 1.450371 -5.604112 0.256099 0
M  V30 5 C 0.504122 -4.704118 0.720389 0
M  V30 6 N 0.636034 -3.378023 0.555398 0
M  V30 7 C 1.715426 -2.861034 -0.080849 0
M  V30 8 C 1.890508 -1.432063 -0.276968 0
M  V30 9 O 2.930926 -1.078440 -0.880157 0
M  V30 10 N 0.981183 -0.438189 0.160207 0
M  V30 11 C 1.049005 0.966489 0.025448 0
M  V30 12 C 2.047599 1.691138 -0.577545 0
M  V30 13 C 2.073478 3.064126 -0.686273 0
M  V30 14 C 1.020759 3.778657 -0.152235 0
M  V30 15 C 0.004715 3.083362 0.458378 0
M  V30 16 C 0.021706 1.711554 0.543248 0
M  V30 17 N -1.105577 1.146085 1.204861 0
M  V30 18 C -2.141247 0.208532 0.760298 0
M  V30 19 C -2.490997 -0.807378 1.786193 0
M  V30 20 C -1.575739 -0.924340 2.957527 0
M  V30 21 C -0.955511 0.331755 3.427013 0
M  V30 22 C -1.311702 1.547853 2.597472 0
M  V30 23 H 4.226836 -3.247398 -2.196893 0
M  V30 24 H 4.410414 -2.847606 -0.481922 0
M  V30 25 H 1.339395 -6.671739 0.391585 0
M  V30 26 H -0.377320 -5.072765 1.236252 0
M  V30 27 H 0.169849 -0.875824 0.642359 0
M  V30 28 H 2.884464 1.182389 -1.006125 0
M  V30 29 H 2.889234 3.576788 -1.173411 0
M  V30 30 H 1.013810 4.853269 -0.222241 0
M  V30 31 H -0.783915 3.679211 0.854277 0
M  V30 32 H -3.052269 0.868675 0.645090 0
M  V30 33 H -1.938393 -0.159476 -0.245606 0
M  V30 34 H -3.562340 -0.747839 2.131728 0
M  V30 35 H -2.459821 -1.799457 1.258158 0
M  V30 36 H -0.773890 -1.695430 2.765754 0
M  V30 37 H -2.158253 -1.354239 3.802817 0
M  V30 38 H -1.160994 0.554151 4.491464 0
M  V30 39 H 0.169145 0.266780 3.357022 0
M  V30 40 H -2.379201 1.773948 2.761209 0
M  V30 41 H -0.654352 2.375080 2.894737 0
M  V30 END ATOM
M  V30 BEGIN BOND
M  V30 1 1 1 2
M  V30 2 2 2 3
M  V30 3 1 3 4
M  V30 4 2 4 5
M  V30 5 1 5 6
M  V30 6 2 6 7
M  V30 7 1 7 8
M  V30 8 2 8 9
M  V30 9 1 8 10
M  V30 10 1 10 11
M  V30 11 2 11 12
M  V30 12 1 12 13
M  V30 13 2 13 14
M  V30 14 1 14 15
M  V30 15 2 15 16
M  V30 16 1 16 17
M  V30 17 1 17 18
M  V30 18 1 18 19
M  V30 19 1 19 20
M  V30 20 1 20 21
M  V30 21 1 21 22
M  V30 22 1 7 2
M  V30 23 1 16 11
M  V30 24 1 22 17
M  V30 25 1 1 23
M  V30 26 1 1 24
M  V30 27 1 4 25
M  V30 28 1 5 26
M  V30 29 1 10 27
M  V30 30 1 12 28
M  V30 31 1 13 29
M  V30 32 1 14 30
M  V30 33 1 15 31
M  V30 34 1 18 32
M  V30 35 1 18 33
M  V30 36 1 19 34
M  V30 37 1 19 35
M  V30 38 1 20 36
M  V30 39 1 20 37
M  V30 40 1 21 38
M  V30 41 1 21 39
M  V30 42 1 22 40
M  V30 43 1 22 41
M  V30 END BOND
M  V30 END CTAB
M  END
>  <Dataset>  (588) 
ChEMBL_Kinases

>  <Ligand_Instance>  (588) 
nan

>  <PDB_ID>  (588) 
nan

>  <Standardized_SMILES>  (588) 
Nc1nccnc1C(=O)Nc1ccccc1N1CCCCC1

>  <Name>  (588) 
nan

>  <Pocket>  (588) 
nan

>  <ATP_Site>  (588) 
nan

>  <Peripheral>  (588) 
nan

>  <Num_H_Atoms_ProtBoundConf>  (588) 
nan

>  <Num_Resolved_Atoms>  (588) 
nan

>  <Num_Not_Resolved_Atoms>  (588) 
nan

$$$$
CHEMBL3103880
     RDKit          3D

  0  0  0  0  0  0  0  0  0  0999 V3000
M  V30 BEGIN CTAB
M  V30 COUNTS 45 47 0 0 0
M  V30 BEGIN ATOM
M  V30 1 N 0.875259 -4.934391 1.005838 0
M  V30 2 C 1.915624 -4.151162 0.330916 0
M  V30 3 C 1.332323 -2.764915 0.154499 0
M  V30 4 C 0.097045 -2.903731 -0.677341 0
M  V30 5 C -0.301880 -1.698180 -1.430763 0
M  V30 6 C 0.699376 -0.624719 -1.598511 0
M  V30 7 N 1.743329 -0.541170 -0.634284 0
M  V30 8 C 2.264387 0.567279 0.132571 0
M  V30 9 C 3.596574 0.836901 -0.102643 0
M  V30 10 C 4.278390 1.860983 0.533081 0
M  V30 11 N 3.571801 2.596853 1.407788 0
M  V30 12 C 2.284595 2.321054 1.622070 0
M  V30 13 C 1.547793 1.324896 1.029430 0
M  V30 14 N 0.191112 1.008202 1.234195 0
M  V30 15 C -0.753240 1.624821 2.087474 0
M  V30 16 O -0.397683 2.601225 2.792392 0
M  V30 17 C -2.144451 1.214246 2.224590 0
M  V30 18 N -2.631753 0.180724 1.516987 0
M  V30 19 C -3.919754 -0.171385 1.667673 0
M  V30 20 C -4.772509 0.489676 2.526856 0
M  V30 21 N -4.266582 1.530397 3.234075 0
M  V30 22 C -2.962949 1.887078 3.081812 0
M  V30 23 N -2.529969 2.993103 3.869977 0
M  V30 24 C 2.342072 -1.825019 -0.442237 0
M  V30 25 H 1.221927 -5.407887 1.858906 0
M  V30 26 H 0.380661 -5.556428 0.343352 0
M  V30 27 H 2.042804 -4.607408 -0.681171 0
M  V30 28 H 2.861514 -4.171380 0.889987 0
M  V30 29 H 1.073818 -2.372330 1.153242 0
M  V30 30 H 0.250724 -3.757710 -1.379969 0
M  V30 31 H -0.705424 -3.273060 0.021457 0
M  V30 32 H -0.719578 -1.937090 -2.451596 0
M  V30 33 H -1.199043 -1.263951 -0.897617 0
M  V30 34 H 0.184935 0.355917 -1.633235 0
M  V30 35 H 1.192134 -0.712992 -2.605663 0
M  V30 36 H 4.187857 0.262956 -0.798907 0
M  V30 37 H 5.324798 2.070484 0.346383 0
M  V30 38 H 1.799621 2.962497 2.338841 0
M  V30 39 H -0.241913 0.226054 0.722292 0
M  V30 40 H -4.265766 -1.012563 1.074077 0
M  V30 41 H -5.813126 0.178937 2.626299 0
M  V30 42 H -1.896904 3.195673 4.673787 0
M  V30 43 H -2.844817 3.981362 3.738571 0
M  V30 44 H 2.726553 -2.183293 -1.420366 0
M  V30 45 H 3.209147 -1.773557 0.235031 0
M  V30 END ATOM
M  V30 BEGIN BOND
M  V30 1 1 1 2
M  V30 2 1 2 3
M  V30 3 1 3 4
M  V30 4 1 4 5
M  V30 5 1 5 6
M  V30 6 1 6 7
M  V30 7 1 7 8
M  V30 8 2 8 9
M  V30 9 1 9 10
M  V30 10 2 10 11
M  V30 11 1 11 12
M  V30 12 2 12 13
M  V30 13 1 13 14
M  V30 14 1 14 15
M  V30 15 2 15 16
M  V30 16 1 15 17
M  V30 17 2 17 18
M  V30 18 1 18 19
M  V30 19 2 19 20
M  V30 20 1 20 21
M  V30 21 2 21 22
M  V30 22 1 22 23
M  V30 23 1 7 24
M  V30 24 1 24 3
M  V30 25 1 13 8
M  V30 26 1 22 17
M  V30 27 1 1 25
M  V30 28 1 1 26
M  V30 29 1 2 27
M  V30 30 1 2 28
M  V30 31 1 3 29
M  V30 32 1 4 30
M  V30 33 1 4 31
M  V30 34 1 5 32
M  V30 35 1 5 33
M  V30 36 1 6 34
M  V30 37 1 6 35
M  V30 38 1 9 36
M  V30 39 1 10 37
M  V30 40 1 12 38
M  V30 41 1 14 39
M  V30 42 1 19 40
M  V30 43 1 20 41
M  V30 44 1 23 42
M  V30 45 1 23 43
M  V30 46 1 24 44
M  V30 47 1 24 45
M  V30 END BOND
M  V30 END CTAB
M  END
>  <Dataset>  (589) 
ChEMBL_Kinases

>  <Ligand_Instance>  (589) 
nan

>  <PDB_ID>  (589) 
nan

>  <Standardized_SMILES>  (589) 
NCC1CCCN(c2ccncc2NC(=O)c2nccnc2N)C1

>  <Name>  (589) 
nan

>  <Pocket>  (589) 
nan

>  <ATP_Site>  (589) 
nan

>  <Peripheral>  (589) 
nan

>  <Num_H_Atoms_ProtBoundConf>  (589) 
nan

>  <Num_Resolved_Atoms>  (589) 
nan

>  <Num_Not_Resolved_Atoms>  (589) 
nan

$$$$
CHEMBL4761786
     RDKit          3D

  0  0  0  0  0  0  0  0  0  0999 V3000
M  V30 BEGIN CTAB
M  V30 COUNTS 36 40 0 0 0
M  V30 BEGIN ATOM
M  V30 1 C 1.043410 -4.497918 3.074301 0
M  V30 2 C 1.922737 -5.560447 2.860427 0
M  V30 3 N 3.012269 -5.383536 2.068381 0
M  V30 4 C 3.278722 -4.198672 1.471822 0
M  V30 5 C 2.454564 -3.105007 1.637737 0
M  V30 6 C 2.691827 -1.799318 1.017983 0
M  V30 7 C 3.976549 -1.312071 0.766125 0
M  V30 8 N 4.183496 -0.111111 0.196608 0
M  V30 9 C 3.119476 0.637525 -0.137758 0
M  V30 10 N 3.003390 1.848048 -0.706381 0
M  V30 11 N 1.735345 2.169868 -0.836059 0
M  V30 12 C 0.915167 1.200812 -0.365040 0
M  V30 13 C -0.530745 1.234643 -0.356156 0
M  V30 14 C -1.234197 2.324394 -0.859142 0
M  V30 15 C -2.594146 2.159705 -0.758342 0
M  V30 16 C -3.683343 2.928500 -1.103175 0
M  V30 17 C -4.920474 2.414715 -0.839582 0
M  V30 18 C -5.086969 1.182272 -0.254390 0
M  V30 19 N -3.982907 0.453765 0.071191 0
M  V30 20 C -2.748606 0.926297 -0.172932 0
M  V30 21 N -1.522346 0.440000 0.036096 0
M  V30 22 C 1.811690 0.253403 0.065995 0
M  V30 23 C 1.650645 -0.974641 0.647510 0
M  V30 24 C 1.351905 -3.306023 2.447077 0
M  V30 25 H 0.163718 -4.604011 3.701112 0
M  V30 26 H 1.744229 -6.522654 3.319638 0
M  V30 27 H 4.145382 -4.080647 0.850022 0
M  V30 28 H 4.819435 -1.922982 1.039059 0
M  V30 29 H 3.754550 2.490122 -1.022051 0
M  V30 30 H -0.830213 3.247400 -1.302402 0
M  V30 31 H -3.518530 3.890336 -1.560177 0
M  V30 32 H -5.782415 3.006895 -1.104768 0
M  V30 33 H -6.054305 0.758255 -0.037641 0
M  V30 34 H -1.386187 -0.481832 0.469599 0
M  V30 35 H 0.664209 -1.349245 0.841198 0
M  V30 36 H 0.646333 -2.483709 2.629100 0
M  V30 END ATOM
M  V30 BEGIN BOND
M  V30 1 2 1 2
M  V30 2 1 2 3
M  V30 3 2 3 4
M  V30 4 1 4 5
M  V30 5 1 5 6
M  V30 6 2 6 7
M  V30 7 1 7 8
M  V30 8 2 8 9
M  V30 9 1 9 10
M  V30 10 1 10 11
M  V30 11 2 11 12
M  V30 12 1 12 13
M  V30 13 2 13 14
M  V30 14 1 14 15
M  V30 15 2 15 16
M  V30 16 1 16 17
M  V30 17 2 17 18
M  V30 18 1 18 19
M  V30 19 2 19 20
M  V30 20 1 20 21
M  V30 21 1 12 22
M  V30 22 2 22 23
M  V30 23 2 5 24
M  V30 24 1 24 1
M  V30 25 1 23 6
M  V30 26 1 22 9
M  V30 27 1 21 13
M  V30 28 1 20 15
M  V30 29 1 1 25
M  V30 30 1 2 26
M  V30 31 1 4 27
M  V30 32 1 7 28
M  V30 33 1 10 29
M  V30 34 1 14 30
M  V30 35 1 16 31
M  V30 36 1 17 32
M  V30 37 1 18 33
M  V30 38 1 21 34
M  V30 39 1 23 35
M  V30 40 1 24 36
M  V30 END BOND
M  V30 END CTAB
M  END
>  <Dataset>  (590) 
ChEMBL_Kinases

>  <Ligand_Instance>  (590) 
nan

>  <PDB_ID>  (590) 
nan

>  <Standardized_SMILES>  (590) 
c1cncc(-c2cnc3[nH]nc(-c4cc5cccnc5[nH]4)c3c2)c1

>  <Name>  (590) 
nan

>  <Pocket>  (590) 
nan

>  <ATP_Site>  (590) 
nan

>  <Peripheral>  (590) 
nan

>  <Num_H_Atoms_ProtBoundConf>  (590) 
nan

>  <Num_Resolved_Atoms>  (590) 
nan

>  <Num_Not_Resolved_Atoms>  (590) 
nan

$$$$
CHEMBL3103879
     RDKit          3D

  0  0  0  0  0  0  0  0  0  0999 V3000
M  V30 BEGIN CTAB
M  V30 COUNTS 49 51 0 0 0
M  V30 BEGIN ATOM
M  V30 1 N 2.223002 -1.628224 4.610976 0
M  V30 2 C 1.291976 -2.709486 4.361953 0
M  V30 3 C 0.800581 -2.531111 2.942163 0
M  V30 4 C 1.946819 -2.596162 2.013395 0
M  V30 5 O 3.180902 -2.765678 2.181663 0
M  V30 6 N 1.666672 -2.443659 0.635790 0
M  V30 7 C 2.689786 -2.484029 -0.413108 0
M  V30 8 C 2.807163 -1.142769 -1.132016 0
M  V30 9 N 1.470135 -0.534197 -1.076204 0
M  V30 10 C 1.492547 0.848728 -0.902743 0
M  V30 11 C 2.577327 1.639457 -1.209457 0
M  V30 12 C 2.624485 3.006921 -1.067806 0
M  V30 13 N 1.522711 3.656504 -0.587503 0
M  V30 14 C 0.411273 2.934704 -0.263061 0
M  V30 15 C 0.410114 1.542393 -0.424464 0
M  V30 16 N -0.836685 1.027621 -0.000805 0
M  V30 17 C -2.167848 0.754906 -0.414488 0
M  V30 18 O -2.542170 1.015189 -1.584980 0
M  V30 19 C -3.075876 0.167877 0.558023 0
M  V30 20 N -2.715590 -0.125581 1.816651 0
M  V30 21 C -3.595927 -0.676230 2.701741 0
M  V30 22 C -4.858774 -0.903894 2.214835 0
M  V30 23 N -5.225966 -0.612959 0.957540 0
M  V30 24 C -4.342175 -0.063736 0.080320 0
M  V30 25 N -4.755597 0.232586 -1.237514 0
M  V30 26 C 0.426847 -1.479783 -1.231838 0
M  V30 27 C 0.322394 -2.228135 0.108976 0
M  V30 28 H 2.611069 -1.726065 5.572643 0
M  V30 29 H 1.737362 -0.715515 4.529750 0
M  V30 30 H 0.452114 -2.677687 5.075743 0
M  V30 31 H 1.864974 -3.661412 4.387899 0
M  V30 32 H 0.306598 -1.554072 2.802049 0
M  V30 33 H 0.073658 -3.317467 2.627568 0
M  V30 34 H 3.655857 -2.635100 0.117781 0
M  V30 35 H 2.499764 -3.318230 -1.103352 0
M  V30 36 H 3.587410 -0.517172 -0.674631 0
M  V30 37 H 2.966088 -1.374022 -2.203166 0
M  V30 38 H 3.499139 1.239083 -1.601497 0
M  V30 39 H 3.485095 3.612593 -1.313799 0
M  V30 40 H -0.386745 3.561976 0.103123 0
M  V30 41 H -0.570214 0.785841 1.001567 0
M  V30 42 H -3.282067 -0.903666 3.710137 0
M  V30 43 H -5.583869 -1.342485 2.897109 0
M  V30 44 H -5.164814 1.181315 -1.372903 0
M  V30 45 H -4.714011 -0.356795 -2.103254 0
M  V30 46 H 0.777151 -2.268976 -1.974298 0
M  V30 47 H -0.523316 -1.149015 -1.622994 0
M  V30 48 H -0.137716 -3.227431 -0.028572 0
M  V30 49 H -0.308755 -1.644403 0.780660 0
M  V30 END ATOM
M  V30 BEGIN BOND
M  V30 1 1 1 2
M  V30 2 1 2 3
M  V30 3 1 3 4
M  V30 4 2 4 5
M  V30 5 1 4 6
M  V30 6 1 6 7
M  V30 7 1 7 8
M  V30 8 1 8 9
M  V30 9 1 9 10
M  V30 10 2 10 11
M  V30 11 1 11 12
M  V30 12 2 12 13
M  V30 13 1 13 14
M  V30 14 2 14 15
M  V30 15 1 15 16
M  V30 16 1 16 17
M  V30 17 2 17 18
M  V30 18 1 17 19
M  V30 19 2 19 20
M  V30 20 1 20 21
M  V30 21 2 21 22
M  V30 22 1 22 23
M  V30 23 2 23 24
M  V30 24 1 24 25
M  V30 25 1 9 26
M  V30 26 1 26 27
M  V30 27 1 27 6
M  V30 28 1 15 10
M  V30 29 1 24 19
M  V30 30 1 1 28
M  V30 31 1 1 29
M  V30 32 1 2 30
M  V30 33 1 2 31
M  V30 34 1 3 32
M  V30 35 1 3 33
M  V30 36 1 7 34
M  V30 37 1 7 35
M  V30 38 1 8 36
M  V30 39 1 8 37
M  V30 40 1 11 38
M  V30 41 1 12 39
M  V30 42 1 14 40
M  V30 43 1 16 41
M  V30 44 1 21 42
M  V30 45 1 22 43
M  V30 46 1 25 44
M  V30 47 1 25 45
M  V30 48 1 26 46
M  V30 49 1 26 47
M  V30 50 1 27 48
M  V30 51 1 27 49
M  V30 END BOND
M  V30 END CTAB
M  END
>  <Dataset>  (591) 
ChEMBL_Kinases

>  <Ligand_Instance>  (591) 
nan

>  <PDB_ID>  (591) 
nan

>  <Standardized_SMILES>  (591) 
NCCC(=O)N1CCN(c2ccncc2NC(=O)c2nccnc2N)CC1

>  <Name>  (591) 
nan

>  <Pocket>  (591) 
nan

>  <ATP_Site>  (591) 
nan

>  <Peripheral>  (591) 
nan

>  <Num_H_Atoms_ProtBoundConf>  (591) 
nan

>  <Num_Resolved_Atoms>  (591) 
nan

>  <Num_Not_Resolved_Atoms>  (591) 
nan

$$$$
CHEMBL3103878
     RDKit          3D

  0  0  0  0  0  0  0  0  0  0999 V3000
M  V30 BEGIN CTAB
M  V30 COUNTS 46 48 0 0 0
M  V30 BEGIN ATOM
M  V30 1 N -3.172490 -5.533186 0.622255 0
M  V30 2 C -2.328891 -4.807391 -0.288470 0
M  V30 3 C -2.307890 -3.386407 0.073972 0
M  V30 4 O -3.099087 -3.628438 1.048227 0
M  V30 5 N -1.767324 -2.140584 -0.295152 0
M  V30 6 C -0.871273 -1.800011 -1.380131 0
M  V30 7 C -0.986029 -0.296140 -1.683910 0
M  V30 8 N -0.547964 0.456699 -0.533526 0
M  V30 9 C 0.184284 1.650980 -0.712568 0
M  V30 10 C 0.326735 2.194254 -1.959046 0
M  V30 11 C 1.018282 3.363486 -2.189238 0
M  V30 12 N 1.598990 4.037104 -1.159741 0
M  V30 13 C 1.494987 3.549179 0.111960 0
M  V30 14 C 0.791708 2.375777 0.282557 0
M  V30 15 N 0.750929 1.942702 1.635727 0
M  V30 16 C 1.885446 1.081932 1.821827 0
M  V30 17 O 2.637720 0.900700 0.803604 0
M  V30 18 C 2.253445 0.400728 3.060496 0
M  V30 19 N 1.516801 0.538113 4.174542 0
M  V30 20 C 1.861124 -0.098420 5.330971 0
M  V30 21 C 2.992787 -0.879144 5.288903 0
M  V30 22 N 3.748918 -1.027630 4.167217 0
M  V30 23 C 3.385282 -0.381009 3.021005 0
M  V30 24 N 4.229680 -0.590821 1.897320 0
M  V30 25 C -0.956155 -0.144188 0.719368 0
M  V30 26 C -2.188369 -1.046713 0.556259 0
M  V30 27 H -3.406496 -6.460441 0.231244 0
M  V30 28 H -2.759864 -5.571430 1.578320 0
M  V30 29 H -1.297611 -5.213160 -0.178498 0
M  V30 30 H -2.706925 -4.998424 -1.314349 0
M  V30 31 H -1.086928 -2.378564 -2.293321 0
M  V30 32 H 0.202909 -1.958369 -1.111791 0
M  V30 33 H -2.060720 -0.103044 -1.827955 0
M  V30 34 H -0.369184 -0.162645 -2.590746 0
M  V30 35 H -0.066492 1.796472 -2.865114 0
M  V30 36 H 1.159066 3.832667 -3.152351 0
M  V30 37 H 1.963076 4.099091 0.914778 0
M  V30 38 H 0.229891 2.001474 2.560636 0
M  V30 39 H 1.250183 0.030350 6.211496 0
M  V30 40 H 3.240187 -1.374549 6.231215 0
M  V30 41 H 3.905337 -1.136550 1.072213 0
M  V30 42 H 5.194182 -0.221487 1.835778 0
M  V30 43 H -0.196940 -0.809829 1.168471 0
M  V30 44 H -1.301890 0.674519 1.390200 0
M  V30 45 H -2.996818 -0.479184 0.039861 0
M  V30 46 H -2.458313 -1.344938 1.573385 0
M  V30 END ATOM
M  V30 BEGIN BOND
M  V30 1 1 1 2
M  V30 2 1 2 3
M  V30 3 2 3 4
M  V30 4 1 3 5
M  V30 5 1 5 6
M  V30 6 1 6 7
M  V30 7 1 7 8
M  V30 8 1 8 9
M  V30 9 2 9 10
M  V30 10 1 10 11
M  V30 11 2 11 12
M  V30 12 1 12 13
M  V30 13 2 13 14
M  V30 14 1 14 15
M  V30 15 1 15 16
M  V30 16 2 16 17
M  V30 17 1 16 18
M  V30 18 2 18 19
M  V30 19 1 19 20
M  V30 20 2 20 21
M  V30 21 1 21 22
M  V30 22 2 22 23
M  V30 23 1 23 24
M  V30 24 1 8 25
M  V30 25 1 25 26
M  V30 26 1 26 5
M  V30 27 1 14 9
M  V30 28 1 23 18
M  V30 29 1 1 27
M  V30 30 1 1 28
M  V30 31 1 2 29
M  V30 32 1 2 30
M  V30 33 1 6 31
M  V30 34 1 6 32
M  V30 35 1 7 33
M  V30 36 1 7 34
M  V30 37 1 10 35
M  V30 38 1 11 36
M  V30 39 1 13 37
M  V30 40 1 15 38
M  V30 41 1 20 39
M  V30 42 1 21 40
M  V30 43 1 24 41
M  V30 44 1 24 42
M  V30 45 1 25 43
M  V30 46 1 25 44
M  V30 47 1 26 45
M  V30 48 1 26 46
M  V30 END BOND
M  V30 END CTAB
M  END
>  <Dataset>  (592) 
ChEMBL_Kinases

>  <Ligand_Instance>  (592) 
nan

>  <PDB_ID>  (592) 
nan

>  <Standardized_SMILES>  (592) 
NCC(=O)N1CCN(c2ccncc2NC(=O)c2nccnc2N)CC1

>  <Name>  (592) 
nan

>  <Pocket>  (592) 
nan

>  <ATP_Site>  (592) 
nan

>  <Peripheral>  (592) 
nan

>  <Num_H_Atoms_ProtBoundConf>  (592) 
nan

>  <Num_Resolved_Atoms>  (592) 
nan

>  <Num_Not_Resolved_Atoms>  (592) 
nan

$$$$
CHEMBL3103876
     RDKit          3D

  0  0  0  0  0  0  0  0  0  0999 V3000
M  V30 BEGIN CTAB
M  V30 COUNTS 40 42 0 0 0
M  V30 BEGIN ATOM
M  V30 1 N 2.587481 -2.997757 3.609135 0
M  V30 2 C 2.126730 -3.590536 2.400481 0
M  V30 3 N 1.989132 -4.938689 2.371807 0
M  V30 4 C 1.558854 -5.523767 1.252042 0
M  V30 5 C 1.233892 -4.841110 0.087296 0
M  V30 6 N 1.376284 -3.488121 0.128913 0
M  V30 7 C 1.808552 -2.895553 1.252504 0
M  V30 8 C 1.970565 -1.448675 1.325931 0
M  V30 9 O 2.377539 -0.915741 2.390479 0
M  V30 10 N 1.660249 -0.662412 0.175798 0
M  V30 11 C 1.692773 0.711138 -0.116881 0
M  V30 12 C 2.876813 1.139988 -0.680913 0
M  V30 13 N 3.023495 2.441494 -1.000315 0
M  V30 14 C 1.978392 3.278509 -0.745557 0
M  V30 15 C 0.819167 2.819961 -0.185532 0
M  V30 16 C 0.604833 1.505031 0.164276 0
M  V30 17 N -0.604963 1.103258 0.735951 0
M  V30 18 C -1.657101 2.041568 1.069192 0
M  V30 19 C -2.684671 1.895664 -0.063939 0
M  V30 20 C -3.019231 0.416577 -0.179093 0
M  V30 21 C -2.547766 -0.304539 1.060082 0
M  V30 22 C -1.033816 -0.219478 1.085722 0
M  V30 23 H 1.734927 -2.709993 4.102750 0
M  V30 24 H 3.636180 -3.098795 3.500662 0
M  V30 25 H 1.443817 -6.599837 1.213588 0
M  V30 26 H 0.887754 -5.329608 -0.808434 0
M  V30 27 H 1.329025 -1.063448 -0.752475 0
M  V30 28 H 3.709633 0.475527 -0.884534 0
M  V30 29 H 2.197447 4.296551 -1.037754 0
M  V30 30 H 0.126777 3.625141 -0.070949 0
M  V30 31 H -2.140349 1.820108 2.063808 0
M  V30 32 H -1.328357 3.076774 1.131204 0
M  V30 33 H -3.587161 2.481917 0.112454 0
M  V30 34 H -2.184740 2.265142 -0.978920 0
M  V30 35 H -2.438449 -0.014767 -1.024699 0
M  V30 36 H -4.087608 0.295520 -0.373960 0
M  V30 37 H -3.034763 0.020051 1.990243 0
M  V30 38 H -2.816192 -1.376515 0.941518 0
M  V30 39 H -0.664346 -0.536899 2.086212 0
M  V30 40 H -0.717320 -1.002123 0.357734 0
M  V30 END ATOM
M  V30 BEGIN BOND
M  V30 1 1 1 2
M  V30 2 2 2 3
M  V30 3 1 3 4
M  V30 4 2 4 5
M  V30 5 1 5 6
M  V30 6 2 6 7
M  V30 7 1 7 8
M  V30 8 2 8 9
M  V30 9 1 8 10
M  V30 10 1 10 11
M  V30 11 2 11 12
M  V30 12 1 12 13
M  V30 13 2 13 14
M  V30 14 1 14 15
M  V30 15 2 15 16
M  V30 16 1 16 17
M  V30 17 1 17 18
M  V30 18 1 18 19
M  V30 19 1 19 20
M  V30 20 1 20 21
M  V30 21 1 21 22
M  V30 22 1 7 2
M  V30 23 1 16 11
M  V30 24 1 22 17
M  V30 25 1 1 23
M  V30 26 1 1 24
M  V30 27 1 4 25
M  V30 28 1 5 26
M  V30 29 1 10 27
M  V30 30 1 12 28
M  V30 31 1 14 29
M  V30 32 1 15 30
M  V30 33 1 18 31
M  V30 34 1 18 32
M  V30 35 1 19 33
M  V30 36 1 19 34
M  V30 37 1 20 35
M  V30 38 1 20 36
M  V30 39 1 21 37
M  V30 40 1 21 38
M  V30 41 1 22 39
M  V30 42 1 22 40
M  V30 END BOND
M  V30 END CTAB
M  END
>  <Dataset>  (593) 
ChEMBL_Kinases

>  <Ligand_Instance>  (593) 
nan

>  <PDB_ID>  (593) 
nan

>  <Standardized_SMILES>  (593) 
Nc1nccnc1C(=O)Nc1cnccc1N1CCCCC1

>  <Name>  (593) 
nan

>  <Pocket>  (593) 
nan

>  <ATP_Site>  (593) 
nan

>  <Peripheral>  (593) 
nan

>  <Num_H_Atoms_ProtBoundConf>  (593) 
nan

>  <Num_Resolved_Atoms>  (593) 
nan

>  <Num_Not_Resolved_Atoms>  (593) 
nan

$$$$
CHEMBL4761714
     RDKit          3D

  0  0  0  0  0  0  0  0  0  0999 V3000
M  V30 BEGIN CTAB
M  V30 COUNTS 42 45 0 0 0
M  V30 BEGIN ATOM
M  V30 1 C 1.430212 -5.497549 -3.166420 0
M  V30 2 C 1.593598 -5.188546 -1.717342 0
M  V30 3 N 2.064268 -6.073684 -0.811106 0
M  V30 4 N 2.077232 -5.470207 0.370363 0
M  V30 5 C 1.634240 -4.226240 0.274264 0
M  V30 6 C 1.443942 -3.178385 1.179109 0
M  V30 7 C 0.944125 -1.963270 0.723945 0
M  V30 8 C 0.629037 -1.761810 -0.603204 0
M  V30 9 C 0.109319 -0.448873 -0.985198 0
M  V30 10 C -0.249981 -0.093706 -2.267458 0
M  V30 11 N -0.725494 1.138045 -2.560805 0
M  V30 12 C -0.845147 2.030733 -1.560665 0
M  V30 13 C -0.498777 1.723092 -0.260501 0
M  V30 14 O -0.635862 2.671623 0.748556 0
M  V30 15 C -0.272657 2.310106 2.040565 0 CFG=1
M  V30 16 C 0.851690 3.128340 2.618012 0
M  V30 17 C 1.058231 2.657243 4.043639 0
M  V30 18 N 0.420909 1.371862 4.305531 0
M  V30 19 C -1.039942 1.502606 4.206961 0
M  V30 20 C -1.415405 2.380498 3.031443 0 CFG=2
M  V30 21 F -2.609444 2.042209 2.456279 0
M  V30 22 N -0.028847 0.478726 -0.020507 0
M  V30 23 C 0.817180 -2.796279 -1.495040 0
M  V30 24 C 1.312661 -4.005399 -1.052114 0
M  V30 25 H 0.467013 -6.024199 -3.335001 0
M  V30 26 H 1.406247 -4.590924 -3.791380 0
M  V30 27 H 2.235980 -6.181002 -3.483260 0
M  V30 28 H 2.384411 -5.872221 1.285219 0
M  V30 29 H 1.698545 -3.359369 2.217920 0
M  V30 30 H 0.827370 -1.198351 1.503736 0
M  V30 31 H -0.145022 -0.827509 -3.053910 0
M  V30 32 H -1.224695 3.000546 -1.819273 0
M  V30 33 H 0.100839 1.244282 2.089144 0
M  V30 34 H 1.781577 3.054098 2.019202 0
M  V30 35 H 0.486874 4.176932 2.662733 0
M  V30 36 H 2.150182 2.475102 4.167370 0
M  V30 37 H 0.744838 3.415967 4.783518 0
M  V30 38 H 0.659671 1.096503 5.258209 0
M  V30 39 H -1.486125 1.815095 5.156527 0
M  V30 40 H -1.412157 0.481554 3.948343 0
M  V30 41 H -1.452789 3.425749 3.455126 0
M  V30 42 H 0.577047 -2.655931 -2.530819 0
M  V30 END ATOM
M  V30 BEGIN BOND
M  V30 1 1 1 2
M  V30 2 2 2 3
M  V30 3 1 3 4
M  V30 4 1 4 5
M  V30 5 2 5 6
M  V30 6 1 6 7
M  V30 7 2 7 8
M  V30 8 1 8 9
M  V30 9 2 9 10
M  V30 10 1 10 11
M  V30 11 2 11 12
M  V30 12 1 12 13
M  V30 13 1 13 14
M  V30 14 1 14 15
M  V30 15 1 15 16
M  V30 16 1 16 17
M  V30 17 1 17 18
M  V30 18 1 18 19
M  V30 19 1 19 20
M  V30 20 1 20 21
M  V30 21 2 13 22
M  V30 22 1 8 23
M  V30 23 2 23 24
M  V30 24 1 24 2
M  V30 25 1 24 5
M  V30 26 1 22 9
M  V30 27 1 20 15
M  V30 28 1 1 25
M  V30 29 1 1 26
M  V30 30 1 1 27
M  V30 31 1 4 28
M  V30 32 1 6 29
M  V30 33 1 7 30
M  V30 34 1 10 31
M  V30 35 1 12 32
M  V30 36 1 15 33 CFG=3
M  V30 37 1 16 34
M  V30 38 1 16 35
M  V30 39 1 17 36
M  V30 40 1 17 37
M  V30 41 1 18 38
M  V30 42 1 19 39
M  V30 43 1 19 40
M  V30 44 1 20 41 CFG=1
M  V30 45 1 23 42
M  V30 END BOND
M  V30 END CTAB
M  END
>  <Dataset>  (594) 
ChEMBL_Kinases

>  <Ligand_Instance>  (594) 
nan

>  <PDB_ID>  (594) 
nan

>  <Standardized_SMILES>  (594) 
Cc1n[nH]c2ccc(-c3cncc(O[C@H]4CCNC[C@@H]4F)n3)cc12

>  <Name>  (594) 
nan

>  <Pocket>  (594) 
nan

>  <ATP_Site>  (594) 
nan

>  <Peripheral>  (594) 
nan

>  <Num_H_Atoms_ProtBoundConf>  (594) 
nan

>  <Num_Resolved_Atoms>  (594) 
nan

>  <Num_Not_Resolved_Atoms>  (594) 
nan

$$$$
CHEMBL4761662
     RDKit          3D

  0  0  0  0  0  0  0  0  0  0999 V3000
M  V30 BEGIN CTAB
M  V30 COUNTS 56 60 0 0 0
M  V30 BEGIN ATOM
M  V30 1 C 0.843480 0.252475 7.989694 0
M  V30 2 N 0.551669 -0.259841 6.691468 0
M  V30 3 C 1.450345 -1.238925 6.177883 0
M  V30 4 C 2.779906 -0.718169 5.781383 0
M  V30 5 C 2.813895 0.600194 5.087677 0
M  V30 6 N 3.030352 0.403067 3.658596 0
M  V30 7 C 2.183380 -0.283881 2.866898 0
M  V30 8 C 2.684264 -0.279378 1.582780 0
M  V30 9 C 2.029813 -0.929952 0.451491 0
M  V30 10 O 0.942492 -1.530530 0.642105 0
M  V30 11 N 2.529870 -0.941940 -0.878278 0
M  V30 12 C 1.588458 -1.687521 -1.685754 0
M  V30 13 C 0.568578 -0.961204 -2.269824 0
M  V30 14 C -0.368487 -1.601686 -3.051860 0
M  V30 15 C -1.406682 -0.922572 -3.656662 0
M  V30 16 C -2.328726 -1.563442 -4.427170 0
M  V30 17 C -3.397572 -0.777449 -5.033484 0
M  V30 18 C -3.373020 0.526813 -5.471446 0
M  V30 19 N -4.597083 0.816398 -5.955292 0
M  V30 20 N -5.395563 -0.255907 -5.839972 0
M  V30 21 C -6.801216 -0.384408 -6.236746 0
M  V30 22 C -4.672838 -1.245100 -5.274745 0
M  V30 23 C -2.241640 -2.927038 -4.621538 0
M  V30 24 C -1.184437 -3.604413 -4.003121 0
M  V30 25 C -0.240119 -2.977810 -3.219511 0
M  V30 26 C 0.788177 -3.694636 -2.627950 0
M  V30 27 N 1.690593 -3.022310 -1.864291 0
M  V30 28 C 3.865869 0.435729 1.625738 0
M  V30 29 N 4.039513 0.831474 2.899455 0
M  V30 30 C 1.626467 1.475214 5.327583 0
M  V30 31 C 0.375482 0.761452 5.715150 0
M  V30 32 H 0.395155 1.284365 8.044091 0
M  V30 33 H 0.298526 -0.338769 8.766503 0
M  V30 34 H 1.906791 0.364724 8.221430 0
M  V30 35 H 0.925148 -1.748471 5.335226 0
M  V30 36 H 1.625634 -2.061342 6.931476 0
M  V30 37 H 3.290532 -1.503822 5.170896 0
M  V30 38 H 3.400406 -0.684719 6.725749 0
M  V30 39 H 3.705510 1.151037 5.453765 0
M  V30 40 H 1.283080 -0.746815 3.189102 0
M  V30 41 H 3.441053 -0.445136 -1.064796 0
M  V30 42 H 0.448304 0.120481 -2.150714 0
M  V30 43 H -1.478696 0.150072 -3.506521 0
M  V30 44 H -2.476311 1.102098 -5.386418 0
M  V30 45 H -6.831824 -1.162337 -7.027817 0
M  V30 46 H -7.417080 -0.691989 -5.342151 0
M  V30 47 H -7.198067 0.577461 -6.578382 0
M  V30 48 H -5.068743 -2.227065 -5.064205 0
M  V30 49 H -2.964217 -3.462413 -5.231083 0
M  V30 50 H -1.145169 -4.689688 -4.178154 0
M  V30 51 H 0.866360 -4.764162 -2.773482 0
M  V30 52 H 4.477595 0.598985 0.747669 0
M  V30 53 H 1.836206 2.238918 6.105569 0
M  V30 54 H 1.417152 2.039364 4.394555 0
M  V30 55 H -0.360810 1.485766 6.127640 0
M  V30 56 H -0.128254 0.312890 4.832640 0
M  V30 END ATOM
M  V30 BEGIN BOND
M  V30 1 1 1 2
M  V30 2 1 2 3
M  V30 3 1 3 4
M  V30 4 1 4 5
M  V30 5 1 5 6
M  V30 6 1 6 7
M  V30 7 2 7 8
M  V30 8 1 8 9
M  V30 9 2 9 10
M  V30 10 1 9 11
M  V30 11 1 11 12
M  V30 12 2 12 13
M  V30 13 1 13 14
M  V30 14 2 14 15
M  V30 15 1 15 16
M  V30 16 1 16 17
M  V30 17 1 17 18
M  V30 18 2 18 19
M  V30 19 1 19 20
M  V30 20 1 20 21
M  V30 21 1 20 22
M  V30 22 2 16 23
M  V30 23 1 23 24
M  V30 24 2 24 25
M  V30 25 1 25 26
M  V30 26 2 26 27
M  V30 27 1 8 28
M  V30 28 2 28 29
M  V30 29 1 5 30
M  V30 30 1 30 31
M  V30 31 1 31 2
M  V30 32 1 29 6
M  V30 33 1 27 12
M  V30 34 1 25 14
M  V30 35 2 22 17
M  V30 36 1 1 32
M  V30 37 1 1 33
M  V30 38 1 1 34
M  V30 39 1 3 35
M  V30 40 1 3 36
M  V30 41 1 4 37
M  V30 42 1 4 38
M  V30 43 1 5 39
M  V30 44 1 7 40
M  V30 45 1 11 41
M  V30 46 1 13 42
M  V30 47 1 15 43
M  V30 48 1 18 44
M  V30 49 1 21 45
M  V30 50 1 21 46
M  V30 51 1 21 47
M  V30 52 1 22 48
M  V30 53 1 23 49
M  V30 54 1 24 50
M  V30 55 1 26 51
M  V30 56 1 28 52
M  V30 57 1 30 53
M  V30 58 1 30 54
M  V30 59 1 31 55
M  V30 60 1 31 56
M  V30 END BOND
M  V30 END CTAB
M  END
>  <Dataset>  (595) 
ChEMBL_Kinases

>  <Ligand_Instance>  (595) 
nan

>  <PDB_ID>  (595) 
nan

>  <Standardized_SMILES>  (595) 
CN1CCC(n2cc(C(=O)Nc3cc4cc(-c5cnn(C)c5)ccc4cn3)cn2)CC1

>  <Name>  (595) 
nan

>  <Pocket>  (595) 
nan

>  <ATP_Site>  (595) 
nan

>  <Peripheral>  (595) 
nan

>  <Num_H_Atoms_ProtBoundConf>  (595) 
nan

>  <Num_Resolved_Atoms>  (595) 
nan

>  <Num_Not_Resolved_Atoms>  (595) 
nan

$$$$
CHEMBL3103871
     RDKit          3D

  0  0  0  0  0  0  0  0  0  0999 V3000
M  V30 BEGIN CTAB
M  V30 COUNTS 43 45 0 0 0
M  V30 BEGIN ATOM
M  V30 1 C -0.378960 -6.511223 -0.140138 0
M  V30 2 C 0.301134 -5.171604 -0.040783 0
M  V30 3 O -0.295503 -4.136468 -0.424753 0
M  V30 4 N 1.600336 -5.159312 0.491007 0
M  V30 5 C 2.202647 -3.848769 0.562338 0
M  V30 6 N 1.786013 -2.749028 0.243618 0
M  V30 7 C 2.453222 -1.631247 0.367485 0
M  V30 8 C 1.925316 -0.332879 -0.023598 0
M  V30 9 O 2.544298 0.749269 0.085425 0
M  V30 10 N 0.641186 -0.164296 -0.573695 0
M  V30 11 C 0.360824 1.205409 -0.872689 0
M  V30 12 C 0.730254 1.593766 -2.163109 0
M  V30 13 C 0.502800 2.913264 -2.565588 0
M  V30 14 N -0.064544 3.793424 -1.717851 0
M  V30 15 C -0.424203 3.411213 -0.458393 0
M  V30 16 C -0.218889 2.120395 -0.018462 0
M  V30 17 N -0.567508 1.650966 1.278303 0
M  V30 18 C -1.485051 0.579851 1.628899 0
M  V30 19 C -0.800498 -0.264598 2.683607 0
M  V30 20 C -0.800175 0.534239 3.962786 0
M  V30 21 C -0.559713 1.991290 3.725229 0
M  V30 22 C 0.060334 2.311025 2.395800 0
M  V30 23 C 3.795577 -1.764113 0.936473 0
M  V30 24 S 3.857900 -3.621013 1.211379 0
M  V30 25 H -0.819629 -6.836850 0.802763 0
M  V30 26 H -1.134656 -6.482513 -0.978245 0
M  V30 27 H 0.398721 -7.222506 -0.470792 0
M  V30 28 H 2.105002 -5.988525 0.809572 0
M  V30 29 H 0.039475 -1.024244 -0.705458 0
M  V30 30 H 1.189692 0.916012 -2.876491 0
M  V30 31 H 0.772397 3.268250 -3.562263 0
M  V30 32 H -0.886858 4.109204 0.248097 0
M  V30 33 H -1.619818 -0.041996 0.723576 0
M  V30 34 H -2.457012 0.977726 1.986278 0
M  V30 35 H 0.234054 -0.459518 2.328804 0
M  V30 36 H -1.340997 -1.220715 2.862477 0
M  V30 37 H -0.104458 0.069756 4.704985 0
M  V30 38 H -1.845854 0.432166 4.372960 0
M  V30 39 H 0.167395 2.338649 4.505541 0
M  V30 40 H -1.489466 2.605976 3.841089 0
M  V30 41 H 1.140123 2.062540 2.424782 0
M  V30 42 H -0.018396 3.390600 2.214043 0
M  V30 43 H 4.478453 -0.772955 1.083784 0
M  V30 END ATOM
M  V30 BEGIN BOND
M  V30 1 1 1 2
M  V30 2 2 2 3
M  V30 3 1 2 4
M  V30 4 1 4 5
M  V30 5 2 5 6
M  V30 6 1 6 7
M  V30 7 1 7 8
M  V30 8 2 8 9
M  V30 9 1 8 10
M  V30 10 1 10 11
M  V30 11 2 11 12
M  V30 12 1 12 13
M  V30 13 2 13 14
M  V30 14 1 14 15
M  V30 15 2 15 16
M  V30 16 1 16 17
M  V30 17 1 17 18
M  V30 18 1 18 19
M  V30 19 1 19 20
M  V30 20 1 20 21
M  V30 21 1 21 22
M  V30 22 2 7 23
M  V30 23 1 23 24
M  V30 24 1 24 5
M  V30 25 1 16 11
M  V30 26 1 22 17
M  V30 27 1 1 25
M  V30 28 1 1 26
M  V30 29 1 1 27
M  V30 30 1 4 28
M  V30 31 1 10 29
M  V30 32 1 12 30
M  V30 33 1 13 31
M  V30 34 1 15 32
M  V30 35 1 18 33
M  V30 36 1 18 34
M  V30 37 1 19 35
M  V30 38 1 19 36
M  V30 39 1 20 37
M  V30 40 1 20 38
M  V30 41 1 21 39
M  V30 42 1 21 40
M  V30 43 1 22 41
M  V30 44 1 22 42
M  V30 45 1 23 43
M  V30 END BOND
M  V30 END CTAB
M  END
>  <Dataset>  (596) 
ChEMBL_Kinases

>  <Ligand_Instance>  (596) 
nan

>  <PDB_ID>  (596) 
nan

>  <Standardized_SMILES>  (596) 
CC(=O)Nc1nc(C(=O)Nc2ccncc2N2CCCCC2)cs1

>  <Name>  (596) 
nan

>  <Pocket>  (596) 
nan

>  <ATP_Site>  (596) 
nan

>  <Peripheral>  (596) 
nan

>  <Num_H_Atoms_ProtBoundConf>  (596) 
nan

>  <Num_Resolved_Atoms>  (596) 
nan

>  <Num_Not_Resolved_Atoms>  (596) 
nan

$$$$
CHEMBL4761655
     RDKit          3D

  0  0  0  0  0  0  0  0  0  0999 V3000
M  V30 BEGIN CTAB
M  V30 COUNTS 73 78 0 0 0
M  V30 BEGIN ATOM
M  V30 1 C 1.211378 -3.600747 5.073078 0
M  V30 2 C 1.492654 -2.152082 4.663192 0
M  V30 3 C 2.442523 -2.120240 3.483744 0
M  V30 4 C 0.186163 -1.435571 4.368934 0
M  V30 5 C -0.504790 -2.136198 3.258899 0
M  V30 6 O -0.335251 -3.109720 2.484807 0
M  V30 7 N -1.741624 -1.541891 2.961593 0
M  V30 8 C -2.718516 -1.881439 1.982087 0
M  V30 9 C -3.638474 -2.825697 2.405402 0
M  V30 10 N -4.595584 -3.172745 1.514687 0
M  V30 11 C -4.620218 -2.601007 0.275756 0
M  V30 12 C -3.713521 -1.662632 -0.156181 0
M  V30 13 C -3.892949 -1.126983 -1.500765 0
M  V30 14 C -3.090617 -0.168914 -2.064240 0
M  V30 15 C -3.318410 0.327474 -3.327230 0
M  V30 16 C -2.672448 1.281820 -4.069013 0
M  V30 17 C -1.524797 2.118247 -3.795938 0
M  V30 18 C -0.607642 2.277504 -2.795875 0
M  V30 19 C 0.313580 3.243100 -3.072439 0
M  V30 20 C 1.399097 3.781983 -2.424100 0
M  V30 21 C 1.751249 3.177041 -1.121403 0
M  V30 22 C 1.934916 3.717044 0.132296 0
M  V30 23 C 2.305081 2.891255 1.167083 0
M  V30 24 F 2.456496 3.528679 2.353842 0
M  V30 25 C 2.500911 1.538311 0.998192 0
M  V30 26 C 2.328408 0.935115 -0.255260 0
M  V30 27 C 2.546675 -0.487837 -0.456212 0
M  V30 28 N 1.458767 -1.370928 -0.316062 0
M  V30 29 S 1.841943 -3.019368 -0.578443 0
M  V30 30 C 2.434450 -3.320998 -2.222711 0
M  V30 31 O 0.658292 -3.903507 -0.314228 0
M  V30 32 O 2.928995 -3.414945 0.378998 0
M  V30 33 C 1.955682 1.792605 -1.272240 0
M  V30 34 C 2.182799 4.795324 -2.934626 0
M  V30 35 N 1.797277 5.227089 -4.146143 0
M  V30 36 C 0.748026 4.737204 -4.825810 0
M  V30 37 C -0.040679 3.724130 -4.320581 0
M  V30 38 N -1.126091 3.033623 -4.708436 0
M  V30 39 N -3.402886 1.309406 -5.192421 0
M  V30 40 N -4.402753 0.466408 -5.170271 0
M  V30 41 C -4.401239 -0.192854 -3.999393 0
M  V30 42 C -5.230722 -1.158177 -3.467961 0
M  V30 43 N -4.930202 -1.583240 -2.225577 0
M  V30 44 C -2.736408 -1.294088 0.721736 0
M  V30 45 H 0.754663 -4.179288 4.244258 0
M  V30 46 H 0.548502 -3.566061 5.959004 0
M  V30 47 H 2.179466 -4.023708 5.389741 0
M  V30 48 H 2.004324 -1.674696 5.514578 0
M  V30 49 H 2.087107 -1.508731 2.652953 0
M  V30 50 H 2.621475 -3.183228 3.153011 0
M  V30 51 H 3.453755 -1.747263 3.771221 0
M  V30 52 H -0.398153 -1.429360 5.299693 0
M  V30 53 H 0.433911 -0.389763 4.118443 0
M  V30 54 H -2.201279 -0.699425 3.422169 0
M  V30 55 H -3.620637 -3.276985 3.381695 0
M  V30 56 H -5.431014 -2.964333 -0.334731 0
M  V30 57 H -2.260528 0.202281 -1.497271 0
M  V30 58 H -0.610581 1.709146 -1.899325 0
M  V30 59 H 1.745298 4.779375 0.105997 0
M  V30 60 H 2.792327 0.944123 1.853472 0
M  V30 61 H 3.332359 -0.803882 0.285934 0
M  V30 62 H 3.024794 -0.648704 -1.451810 0
M  V30 63 H 0.746286 -1.175260 0.385043 0
M  V30 64 H 3.513531 -3.181074 -2.336233 0
M  V30 65 H 2.248902 -4.397629 -2.500753 0
M  V30 66 H 1.810215 -2.748532 -2.939530 0
M  V30 67 H 1.836558 1.267301 -2.216294 0
M  V30 68 H 3.023607 5.188980 -2.394101 0
M  V30 69 H 0.491617 5.127028 -5.795185 0
M  V30 70 H -1.513745 3.287560 -5.645845 0
M  V30 71 H -5.058593 0.371840 -5.969395 0
M  V30 72 H -6.069525 -1.534224 -4.037093 0
M  V30 73 H -2.017670 -0.572047 0.425027 0
M  V30 END ATOM
M  V30 BEGIN BOND
M  V30 1 1 1 2
M  V30 2 1 2 3
M  V30 3 1 2 4
M  V30 4 1 4 5
M  V30 5 2 5 6
M  V30 6 1 5 7
M  V30 7 1 7 8
M  V30 8 2 8 9
M  V30 9 1 9 10
M  V30 10 2 10 11
M  V30 11 1 11 12
M  V30 12 1 12 13
M  V30 13 2 13 14
M  V30 14 1 14 15
M  V30 15 1 15 16
M  V30 16 1 16 17
M  V30 17 2 17 18
M  V30 18 1 18 19
M  V30 19 2 19 20
M  V30 20 1 20 21
M  V30 21 2 21 22
M  V30 22 1 22 23
M  V30 23 1 23 24
M  V30 24 2 23 25
M  V30 25 1 25 26
M  V30 26 1 26 27
M  V30 27 1 27 28
M  V30 28 1 28 29
M  V30 29 1 29 30
M  V30 30 2 29 31
M  V30 31 2 29 32
M  V30 32 2 26 33
M  V30 33 1 20 34
M  V30 34 2 34 35
M  V30 35 1 35 36
M  V30 36 2 36 37
M  V30 37 1 37 38
M  V30 38 2 16 39
M  V30 39 1 39 40
M  V30 40 1 40 41
M  V30 41 1 41 42
M  V30 42 2 42 43
M  V30 43 2 12 44
M  V30 44 1 44 8
M  V30 45 1 43 13
M  V30 46 2 41 15
M  V30 47 1 38 17
M  V30 48 1 37 19
M  V30 49 1 33 21
M  V30 50 1 1 45
M  V30 51 1 1 46
M  V30 52 1 1 47
M  V30 53 1 2 48
M  V30 54 1 3 49
M  V30 55 1 3 50
M  V30 56 1 3 51
M  V30 57 1 4 52
M  V30 58 1 4 53
M  V30 59 1 7 54
M  V30 60 1 9 55
M  V30 61 1 11 56
M  V30 62 1 14 57
M  V30 63 1 18 58
M  V30 64 1 22 59
M  V30 65 1 25 60
M  V30 66 1 27 61
M  V30 67 1 27 62
M  V30 68 1 28 63
M  V30 69 1 30 64
M  V30 70 1 30 65
M  V30 71 1 30 66
M  V30 72 1 33 67
M  V30 73 1 34 68
M  V30 74 1 36 69
M  V30 75 1 38 70
M  V30 76 1 40 71
M  V30 77 1 42 72
M  V30 78 1 44 73
M  V30 END BOND
M  V30 END CTAB
M  END
>  <Dataset>  (597) 
ChEMBL_Kinases

>  <Ligand_Instance>  (597) 
nan

>  <PDB_ID>  (597) 
nan

>  <Standardized_SMILES>  (597) 
CC(C)CC(=O)Nc1cncc(-c2cc3c(-c4cc5c(-c6cc(F)cc(CNS(C)(=O)=O)c6)cncc5[nH]4)n[nH]c3cn2)c1

>  <Name>  (597) 
nan

>  <Pocket>  (597) 
nan

>  <ATP_Site>  (597) 
nan

>  <Peripheral>  (597) 
nan

>  <Num_H_Atoms_ProtBoundConf>  (597) 
nan

>  <Num_Resolved_Atoms>  (597) 
nan

>  <Num_Not_Resolved_Atoms>  (597) 
nan

$$$$
CHEMBL4761637
     RDKit          3D

  0  0  0  0  0  0  0  0  0  0999 V3000
M  V30 BEGIN CTAB
M  V30 COUNTS 66 69 0 0 0
M  V30 BEGIN ATOM
M  V30 1 C 9.630839 1.473729 7.255475 0
M  V30 2 C 8.915586 0.348511 7.179980 0
M  V30 3 C 7.974503 1.009691 6.287783 0
M  V30 4 O 8.286856 2.195986 6.064066 0
M  V30 5 N 6.880184 0.230358 5.822765 0
M  V30 6 C 5.754253 0.458704 4.963181 0
M  V30 7 C 5.785373 0.256987 3.594877 0
M  V30 8 C 4.648823 0.501482 2.847243 0
M  V30 9 C 3.478655 0.944292 3.438438 0
M  V30 10 C 2.309456 1.188481 2.598997 0
M  V30 11 O 2.453651 1.000635 1.365633 0
M  V30 12 N 1.068573 1.613030 3.111720 0
M  V30 13 C 0.011685 1.815475 2.191822 0
M  V30 14 C -0.212159 3.045694 1.589551 0
M  V30 15 C -1.268031 3.202983 0.682999 0
M  V30 16 C -2.073802 2.118923 0.403620 0
M  V30 17 C -1.902314 0.871285 0.969572 0
M  V30 18 C -2.777246 -0.218167 0.632689 0
M  V30 19 O -3.701783 0.026543 -0.199544 0
M  V30 20 N -2.612545 -1.505054 1.204694 0
M  V30 21 C -3.468198 -2.644576 0.898552 0
M  V30 22 N -4.364954 -3.346256 1.026790 0
M  V30 23 C -4.693308 -4.415305 0.331343 0
M  V30 24 C -3.892727 -4.808128 -0.714688 0
M  V30 25 S -4.135921 -6.225313 -1.801560 0
M  V30 26 C -5.143065 -5.735224 -3.246658 0
M  V30 27 C -4.429386 -4.756598 -4.106950 0
M  V30 28 N -3.594478 -4.932451 -5.162085 0
M  V30 29 C -3.202649 -3.732430 -5.609739 0
M  V30 30 C -3.813907 -2.792850 -4.807336 0
M  V30 31 C -3.801802 -1.311114 -4.767833 0
M  V30 32 C -4.925759 -0.773934 -5.662205 0
M  V30 33 C -2.488368 -0.801604 -5.318657 0
M  V30 34 C -3.965965 -0.772779 -3.371959 0
M  V30 35 O -4.521935 -3.438755 -3.941865 0
M  V30 36 S -2.565019 -3.427748 -0.592302 0
M  V30 37 C -0.845195 0.789570 1.851365 0
M  V30 38 C 3.501316 1.129273 4.805091 0
M  V30 39 C 4.603750 0.902805 5.605935 0
M  V30 40 H 10.543226 1.714978 7.793721 0
M  V30 41 H 10.166401 2.433887 7.269150 0
M  V30 42 H 9.380442 -0.423807 7.785713 0
M  V30 43 H 6.777840 -0.764708 6.120306 0
M  V30 44 H 6.743449 -0.089185 3.228198 0
M  V30 45 H 4.760956 0.318694 1.791689 0
M  V30 46 H 0.947803 1.768782 4.139272 0
M  V30 47 H 0.421599 3.891145 1.811580 0
M  V30 48 H -1.419087 4.180934 0.226218 0
M  V30 49 H -2.884170 2.301103 -0.313731 0
M  V30 50 H -1.870525 -1.725935 1.882016 0
M  V30 51 H -5.603830 -4.963361 0.611912 0
M  V30 52 H -5.383769 -6.669403 -3.790981 0
M  V30 53 H -6.062842 -5.259249 -2.863524 0
M  V30 54 H -2.553168 -3.416689 -6.413857 0
M  V30 55 H -4.855175 0.336545 -5.594227 0
M  V30 56 H -4.608276 -1.031576 -6.704764 0
M  V30 57 H -5.905951 -1.180328 -5.384438 0
M  V30 58 H -1.624273 -1.360302 -4.887939 0
M  V30 59 H -2.319132 0.266252 -5.055753 0
M  V30 60 H -2.453974 -0.845776 -6.433306 0
M  V30 61 H -3.700087 -1.560405 -2.647930 0
M  V30 62 H -3.359168 0.131021 -3.180662 0
M  V30 63 H -5.020096 -0.488779 -3.204981 0
M  V30 64 H -0.647418 -0.159867 2.336667 0
M  V30 65 H 2.601281 1.475308 5.297647 0
M  V30 66 H 4.581737 1.060268 6.678440 0
M  V30 END ATOM
M  V30 BEGIN BOND
M  V30 1 2 1 2
M  V30 2 1 2 3
M  V30 3 2 3 4
M  V30 4 1 3 5
M  V30 5 1 5 6
M  V30 6 2 6 7
M  V30 7 1 7 8
M  V30 8 2 8 9
M  V30 9 1 9 10
M  V30 10 2 10 11
M  V30 11 1 10 12
M  V30 12 1 12 13
M  V30 13 2 13 14
M  V30 14 1 14 15
M  V30 15 2 15 16
M  V30 16 1 16 17
M  V30 17 1 17 18
M  V30 18 2 18 19
M  V30 19 1 18 20
M  V30 20 1 20 21
M  V30 21 2 21 22
M  V30 22 1 22 23
M  V30 23 2 23 24
M  V30 24 1 24 25
M  V30 25 1 25 26
M  V30 26 1 26 27
M  V30 27 2 27 28
M  V30 28 1 28 29
M  V30 29 2 29 30
M  V30 30 1 30 31
M  V30 31 1 31 32
M  V30 32 1 31 33
M  V30 33 1 31 34
M  V30 34 1 30 35
M  V30 35 1 24 36
M  V30 36 2 17 37
M  V30 37 1 9 38
M  V30 38 2 38 39
M  V30 39 1 39 6
M  V30 40 1 37 13
M  V30 41 1 36 21
M  V30 42 1 35 27
M  V30 43 1 1 40
M  V30 44 1 1 41
M  V30 45 1 2 42
M  V30 46 1 5 43
M  V30 47 1 7 44
M  V30 48 1 8 45
M  V30 49 1 12 46
M  V30 50 1 14 47
M  V30 51 1 15 48
M  V30 52 1 16 49
M  V30 53 1 20 50
M  V30 54 1 23 51
M  V30 55 1 26 52
M  V30 56 1 26 53
M  V30 57 1 29 54
M  V30 58 1 32 55
M  V30 59 1 32 56
M  V30 60 1 32 57
M  V30 61 1 33 58
M  V30 62 1 33 59
M  V30 63 1 33 60
M  V30 64 1 34 61
M  V30 65 1 34 62
M  V30 66 1 34 63
M  V30 67 1 37 64
M  V30 68 1 38 65
M  V30 69 1 39 66
M  V30 END BOND
M  V30 END CTAB
M  END
>  <Dataset>  (598) 
ChEMBL_Kinases

>  <Ligand_Instance>  (598) 
nan

>  <PDB_ID>  (598) 
nan

>  <Standardized_SMILES>  (598) 
C=CC(=O)Nc1ccc(C(=O)Nc2cccc(C(=O)Nc3ncc(SCc4ncc(C(C)(C)C)o4)s3)c2)cc1

>  <Name>  (598) 
nan

>  <Pocket>  (598) 
nan

>  <ATP_Site>  (598) 
nan

>  <Peripheral>  (598) 
nan

>  <Num_H_Atoms_ProtBoundConf>  (598) 
nan

>  <Num_Resolved_Atoms>  (598) 
nan

>  <Num_Not_Resolved_Atoms>  (598) 
nan

$$$$
CHEMBL4281659
     RDKit          3D

  0  0  0  0  0  0  0  0  0  0999 V3000
M  V30 BEGIN CTAB
M  V30 COUNTS 137 140 0 0 0
M  V30 BEGIN ATOM
M  V30 1 C 0.265987 8.364390 -4.625729 0
M  V30 2 C 0.222479 7.399145 -3.478036 0
M  V30 3 O -0.838056 7.423968 -2.760039 0
M  V30 4 N 1.355671 6.544131 -3.284624 0
M  V30 5 C 2.609361 6.409021 -4.032518 0
M  V30 6 C 3.666529 6.494399 -2.951482 0
M  V30 7 C 2.911923 6.072857 -1.680738 0
M  V30 8 C 1.590874 5.514691 -2.261244 0 CFG=1
M  V30 9 C 0.567187 5.624850 -1.213567 0
M  V30 10 O 0.205209 6.612489 -0.554178 0
M  V30 11 N -0.090211 4.352307 -0.966922 0
M  V30 12 C -1.138051 4.001748 -0.078089 0 CFG=1
M  V30 13 C -2.494706 4.032033 -0.767829 0
M  V30 14 C -2.658732 3.155212 -1.950871 0
M  V30 15 C -4.096414 3.347087 -2.438538 0
M  V30 16 C -1.792109 3.595050 -3.120872 0
M  V30 17 C -0.950690 2.910797 0.857315 0
M  V30 18 O -1.925851 2.757106 1.620511 0
M  V30 19 N 0.175998 1.983986 1.055665 0
M  V30 20 C -0.052456 1.064050 2.110144 0 CFG=1
M  V30 21 C -0.533207 -0.259036 1.452216 0
M  V30 22 C 0.379759 -0.761574 0.425789 0
M  V30 23 C 1.697917 -1.143205 0.395635 0
M  V30 24 N 2.072312 -1.517132 -0.833729 0 CHG=1 VAL=4
M  V30 25 C 0.956332 -1.373237 -1.616727 0
M  V30 26 N -0.040679 -0.926833 -0.866948 0
M  V30 27 C -1.384595 -0.732654 -1.462264 0
M  V30 28 C -2.132629 -2.024758 -1.473687 0
M  V30 29 C -3.509527 -1.803822 -2.081270 0
M  V30 30 C -4.332795 -0.859170 -1.324259 0
M  V30 31 C -5.698382 -0.637142 -1.857014 0
M  V30 32 C -6.687345 -1.703073 -1.893645 0
M  V30 33 C -6.572333 -2.947324 -2.644687 0
M  V30 34 C -6.466467 -2.965934 -4.119468 0
M  V30 35 C -5.383894 -2.384485 -4.845489 0
M  V30 36 C -4.281869 -3.221943 -5.049870 0
M  V30 37 C -3.129548 -2.935758 -5.739513 0
M  V30 38 C -3.065813 -1.666517 -6.292511 0
M  V30 39 C -4.076163 -0.748914 -6.166262 0
M  V30 40 C -5.181485 -1.149169 -5.452682 0
M  V30 41 C 3.307935 -1.954832 -1.374412 0
M  V30 42 C 4.241608 -2.751391 -0.562671 0
M  V30 43 C 3.701770 -4.073732 -0.136883 0
M  V30 44 C 4.799713 -4.944868 0.485483 0
M  V30 45 C 5.406446 -4.279520 1.661940 0
M  V30 46 N 4.540848 -4.054898 2.790999 0
M  V30 47 C 3.809746 -4.776892 3.800694 0
M  V30 48 O 4.460934 -5.528986 2.991533 0
M  V30 49 C 2.959098 -4.145246 4.885734 0 CFG=2
M  V30 50 C 1.609423 -4.741454 4.969166 0 CFG=1
M  V30 51 C 0.889257 -4.699035 3.614402 0
M  V30 52 O 1.631701 -6.071770 5.320886 0
M  V30 53 P 0.440938 -6.264389 6.538408 0
M  V30 54 O 0.322502 -7.701896 6.943705 0
M  V30 55 O -1.063495 -5.732998 5.970843 0
M  V30 56 O 0.862615 -5.276918 7.848587 0
M  V30 57 N 2.825677 -2.710395 4.575851 0
M  V30 58 C 3.347468 -1.440780 4.790944 0
M  V30 59 O 4.346707 -1.935886 5.404169 0
M  V30 60 C 3.179138 0.009082 4.582875 0 CFG=2
M  V30 61 C 3.316737 0.722101 5.894595 0
M  V30 62 O 4.590135 0.406552 6.367732 0
M  V30 63 N 1.894260 0.265683 3.964244 0
M  V30 64 C 1.000536 0.688317 2.999658 0
M  V30 65 O 1.982141 1.119800 2.292960 0
M  V30 66 H 1.242524 8.917472 -4.522557 0
M  V30 67 H 0.252957 7.873290 -5.595824 0
M  V30 68 H -0.570011 9.074576 -4.506530 0
M  V30 69 H 2.711355 7.144195 -4.828805 0
M  V30 70 H 2.639472 5.376986 -4.448429 0
M  V30 71 H 4.118227 7.483758 -2.861750 0
M  V30 72 H 4.480422 5.762690 -3.193427 0
M  V30 73 H 3.426165 5.318279 -1.098220 0
M  V30 74 H 2.680976 7.001520 -1.132280 0
M  V30 75 H 1.769829 4.536963 -2.672477 0
M  V30 76 H 0.135650 3.474213 -1.435290 0
M  V30 77 H -1.235792 4.936061 0.598075 0
M  V30 78 H -2.665703 5.083806 -1.089051 0
M  V30 79 H -3.283423 3.760701 -0.033926 0
M  V30 80 H -2.549586 2.093871 -1.746304 0
M  V30 81 H -4.366306 2.457362 -3.085885 0
M  V30 82 H -4.148719 4.232423 -3.122443 0
M  V30 83 H -4.809797 3.393744 -1.627436 0
M  V30 84 H -2.444909 3.719136 -4.003641 0
M  V30 85 H -1.043445 2.846072 -3.413085 0
M  V30 86 H -1.431944 4.585140 -2.874503 0
M  V30 87 H 0.949657 2.172548 0.387036 0
M  V30 88 H -0.948360 1.319930 2.761069 0
M  V30 89 H -1.585850 -0.175050 1.178692 0
M  V30 90 H -0.522856 -1.061070 2.262956 0
M  V30 91 H 2.530044 -1.229411 1.090876 0
M  V30 92 H 0.834477 -1.573423 -2.698726 0
M  V30 93 H -1.888160 0.027021 -0.802884 0
M  V30 94 H -1.247201 -0.362090 -2.467806 0
M  V30 95 H -2.294930 -2.428666 -0.447062 0
M  V30 96 H -1.615957 -2.771321 -2.062862 0
M  V30 97 H -3.951462 -2.773490 -2.197500 0
M  V30 98 H -3.346317 -1.368235 -3.111004 0
M  V30 99 H -4.453361 -1.209127 -0.237852 0
M  V30 100 H -3.857748 0.179483 -1.275936 0
M  V30 101 H -5.540937 -0.160329 -2.883754 0
M  V30 102 H -6.134820 0.255387 -1.268403 0
M  V30 103 H -6.885922 -2.015340 -0.778417 0
M  V30 104 H -7.737627 -1.223673 -2.096928 0
M  V30 105 H -5.917577 -3.680692 -2.110976 0
M  V30 106 H -7.610245 -3.511450 -2.445256 0
M  V30 107 H -6.656926 -4.014796 -4.519721 0
M  V30 108 H -7.435190 -2.449976 -4.519735 0
M  V30 109 H -4.228353 -4.240413 -4.644752 0
M  V30 110 H -2.297685 -3.608223 -5.869626 0
M  V30 111 H -2.177874 -1.353827 -6.860368 0
M  V30 112 H -4.057829 0.248601 -6.587946 0
M  V30 113 H -6.056819 -0.498723 -5.294922 0
M  V30 114 H 3.129219 -2.562331 -2.328561 0
M  V30 115 H 3.849435 -1.044764 -1.805257 0
M  V30 116 H 4.710894 -2.156933 0.259062 0
M  V30 117 H 5.120019 -2.990268 -1.239936 0
M  V30 118 H 2.854130 -3.967092 0.541969 0
M  V30 119 H 3.372296 -4.635165 -1.025413 0
M  V30 120 H 5.604394 -5.012081 -0.302217 0
M  V30 121 H 4.358763 -5.897888 0.742353 0
M  V30 122 H 5.839265 -3.307030 1.357441 0
M  V30 123 H 6.303660 -4.905104 1.986730 0
M  V30 124 H 4.350095 -3.021159 2.947866 0
M  V30 125 H 3.525207 -4.288046 5.822517 0
M  V30 126 H 0.977301 -4.182009 5.667760 0
M  V30 127 H 1.295110 -3.959221 2.929563 0
M  V30 128 H -0.199778 -4.525471 3.722977 0
M  V30 129 H 1.002135 -5.695461 3.101875 0
M  V30 130 H -1.727930 -6.469557 5.895753 0
M  V30 131 H -0.012946 -5.068552 8.331555 0
M  V30 132 H 2.062977 -2.386339 3.952598 0
M  V30 133 H 3.999683 0.338933 3.919136 0
M  V30 134 H 2.585117 0.264976 6.594120 0
M  V30 135 H 3.250168 1.798018 5.822052 0
M  V30 136 H 5.307263 0.538689 5.712560 0
M  V30 137 H 0.951204 0.120650 4.372983 0
M  V30 END ATOM
M  V30 BEGIN BOND
M  V30 1 1 1 2
M  V30 2 2 2 3
M  V30 3 1 2 4
M  V30 4 1 4 5
M  V30 5 1 5 6
M  V30 6 1 6 7
M  V30 7 1 7 8
M  V30 8 1 8 9
M  V30 9 2 9 10
M  V30 10 1 9 11
M  V30 11 1 11 12
M  V30 12 1 12 13
M  V30 13 1 13 14
M  V30 14 1 14 15
M  V30 15 1 14 16
M  V30 16 1 12 17
M  V30 17 2 17 18
M  V30 18 1 17 19
M  V30 19 1 19 20
M  V30 20 1 20 21
M  V30 21 1 21 22
M  V30 22 2 22 23
M  V30 23 1 23 24
M  V30 24 2 24 25
M  V30 25 1 25 26
M  V30 26 1 26 27
M  V30 27 1 27 28
M  V30 28 1 28 29
M  V30 29 1 29 30
M  V30 30 1 30 31
M  V30 31 1 31 32
M  V30 32 1 32 33
M  V30 33 1 33 34
M  V30 34 1 34 35
M  V30 35 2 35 36
M  V30 36 1 36 37
M  V30 37 2 37 38
M  V30 38 1 38 39
M  V30 39 2 39 40
M  V30 40 1 24 41
M  V30 41 1 41 42
M  V30 42 1 42 43
M  V30 43 1 43 44
M  V30 44 1 44 45
M  V30 45 1 45 46
M  V30 46 1 46 47
M  V30 47 2 47 48
M  V30 48 1 47 49
M  V30 49 1 49 50
M  V30 50 1 50 51
M  V30 51 1 50 52
M  V30 52 1 52 53
M  V30 53 2 53 54
M  V30 54 1 53 55
M  V30 55 1 53 56
M  V30 56 1 49 57
M  V30 57 1 57 58
M  V30 58 2 58 59
M  V30 59 1 58 60
M  V30 60 1 60 61
M  V30 61 1 61 62
M  V30 62 1 60 63
M  V30 63 1 63 64
M  V30 64 2 64 65
M  V30 65 1 8 4
M  V30 66 1 64 20
M  V30 67 1 26 22
M  V30 68 1 40 35
M  V30 69 1 1 66
M  V30 70 1 1 67
M  V30 71 1 1 68
M  V30 72 1 5 69
M  V30 73 1 5 70
M  V30 74 1 6 71
M  V30 75 1 6 72
M  V30 76 1 7 73
M  V30 77 1 7 74
M  V30 78 1 8 75 CFG=3
M  V30 79 1 11 76
M  V30 80 1 12 77 CFG=1
M  V30 81 1 13 78
M  V30 82 1 13 79
M  V30 83 1 14 80
M  V30 84 1 15 81
M  V30 85 1 15 82
M  V30 86 1 15 83
M  V30 87 1 16 84
M  V30 88 1 16 85
M  V30 89 1 16 86
M  V30 90 1 19 87
M  V30 91 1 20 88 CFG=1
M  V30 92 1 21 89
M  V30 93 1 21 90
M  V30 94 1 23 91
M  V30 95 1 25 92
M  V30 96 1 27 93
M  V30 97 1 27 94
M  V30 98 1 28 95
M  V30 99 1 28 96
M  V30 100 1 29 97
M  V30 101 1 29 98
M  V30 102 1 30 99
M  V30 103 1 30 100
M  V30 104 1 31 101
M  V30 105 1 31 102
M  V30 106 1 32 103
M  V30 107 1 32 104
M  V30 108 1 33 105
M  V30 109 1 33 106
M  V30 110 1 34 107
M  V30 111 1 34 108
M  V30 112 1 36 109
M  V30 113 1 37 110
M  V30 114 1 38 111
M  V30 115 1 39 112
M  V30 116 1 40 113
M  V30 117 1 41 114
M  V30 118 1 41 115
M  V30 119 1 42 116
M  V30 120 1 42 117
M  V30 121 1 43 118
M  V30 122 1 43 119
M  V30 123 1 44 120
M  V30 124 1 44 121
M  V30 125 1 45 122
M  V30 126 1 45 123
M  V30 127 1 46 124
M  V30 128 1 49 125 CFG=1
M  V30 129 1 50 126 CFG=1
M  V30 130 1 51 127
M  V30 131 1 51 128
M  V30 132 1 51 129
M  V30 133 1 55 130
M  V30 134 1 56 131
M  V30 135 1 57 132
M  V30 136 1 60 133 CFG=3
M  V30 137 1 61 134
M  V30 138 1 61 135
M  V30 139 1 62 136
M  V30 140 1 63 137
M  V30 END BOND
M  V30 END CTAB
M  END
>  <Dataset>  (599) 
ChEMBL_Kinases

>  <Ligand_Instance>  (599) 
nan

>  <PDB_ID>  (599) 
nan

>  <Standardized_SMILES>  (599) 
CC(=O)N1CCC[C@H]1C(=O)N[C@@H](CC(C)C)C(=O)N[C@H]1Cc2c[n+](cn2CCCCCCCCc2ccccc2)CCCCCNC(=O)[C@H]([C@@H](C)OP(=O)(O)O)NC(=O)[C@H](CO)NC1=O

>  <Name>  (599) 
nan

>  <Pocket>  (599) 
nan

>  <ATP_Site>  (599) 
nan

>  <Peripheral>  (599) 
nan

>  <Num_H_Atoms_ProtBoundConf>  (599) 
nan

>  <Num_Resolved_Atoms>  (599) 
nan

>  <Num_Not_Resolved_Atoms>  (599) 
nan

$$$$
CHEMBL3103867
     RDKit          3D

  0  0  0  0  0  0  0  0  0  0999 V3000
M  V30 BEGIN CTAB
M  V30 COUNTS 53 56 0 0 0
M  V30 BEGIN ATOM
M  V30 1 N -1.768112 1.874899 3.769067 0
M  V30 2 C -0.661379 2.117198 2.926061 0
M  V30 3 C -0.351240 3.448918 2.725425 0
M  V30 4 C 0.724849 3.730100 1.907523 0
M  V30 5 C 1.396029 2.659070 1.362492 0
M  V30 6 C 2.541696 2.864562 0.487515 0
M  V30 7 C 3.044562 4.097658 0.131568 0
M  V30 8 C 4.123600 4.336657 -0.692422 0
M  V30 9 C 4.764020 3.226093 -1.212885 0
M  V30 10 C 4.330521 1.967331 -0.910851 0
M  V30 11 C 3.245774 1.825210 -0.080099 0
M  V30 12 F 2.861400 0.536227 0.184202 0
M  V30 13 N 1.045233 1.380455 1.595940 0
M  V30 14 C 0.007692 1.045301 2.382626 0
M  V30 15 C -0.420429 -0.318200 2.671533 0
M  V30 16 O -1.410083 -0.451666 3.434130 0
M  V30 17 N 0.338210 -1.346150 2.051450 0
M  V30 18 C 0.226042 -2.756451 2.094197 0
M  V30 19 C 0.859965 -3.559983 3.019439 0
M  V30 20 N 0.724701 -4.897579 3.017432 0
M  V30 21 C -0.042096 -5.514665 2.103865 0
M  V30 22 C -0.700567 -4.736500 1.149829 0
M  V30 23 C -0.574578 -3.344006 1.133064 0
M  V30 24 N -1.308004 -2.675823 0.102145 0
M  V30 25 C -2.388933 -1.678681 0.132029 0
M  V30 26 C -3.597950 -2.181947 -0.593848 0
M  V30 27 C -3.391305 -3.503665 -1.256487 0
M  V30 28 C -2.104507 -3.564476 -2.049822 0 CFG=2
M  V30 29 N -1.857779 -4.915027 -2.516297 0
M  V30 30 C -0.950760 -3.013126 -1.257266 0
M  V30 31 H -2.302433 1.830651 4.658822 0
M  V30 32 H -2.709042 1.513399 3.459617 0
M  V30 33 H -0.917203 4.244723 3.182231 0
M  V30 34 H 0.988471 4.762466 1.734990 0
M  V30 35 H 2.572757 4.992219 0.516731 0
M  V30 36 H 4.461995 5.328042 -0.928030 0
M  V30 37 H 5.611576 3.369078 -1.861133 0
M  V30 38 H 4.839772 1.092500 -1.324819 0
M  V30 39 H 1.148303 -1.131701 1.430775 0
M  V30 40 H 1.481592 -3.060632 3.759263 0
M  V30 41 H -0.133515 -6.597842 2.125381 0
M  V30 42 H -1.308556 -5.255673 0.429191 0
M  V30 43 H -2.644149 -1.357682 1.149631 0
M  V30 44 H -1.949371 -0.775458 -0.366125 0
M  V30 45 H -3.909927 -1.398398 -1.314166 0
M  V30 46 H -4.408335 -2.333960 0.164221 0
M  V30 47 H -4.255569 -3.698178 -1.921709 0
M  V30 48 H -3.444735 -4.310566 -0.482909 0
M  V30 49 H -2.268964 -2.960730 -2.984283 0
M  V30 50 H -0.850323 -5.077158 -2.730146 0
M  V30 51 H -2.423855 -5.123221 -3.382917 0
M  V30 52 H -0.065772 -3.672457 -1.329708 0
M  V30 53 H -0.633223 -2.045144 -1.728861 0
M  V30 END ATOM
M  V30 BEGIN BOND
M  V30 1 1 1 2
M  V30 2 2 2 3
M  V30 3 1 3 4
M  V30 4 2 4 5
M  V30 5 1 5 6
M  V30 6 2 6 7
M  V30 7 1 7 8
M  V30 8 2 8 9
M  V30 9 1 9 10
M  V30 10 2 10 11
M  V30 11 1 11 12
M  V30 12 1 5 13
M  V30 13 2 13 14
M  V30 14 1 14 15
M  V30 15 2 15 16
M  V30 16 1 15 17
M  V30 17 1 17 18
M  V30 18 2 18 19
M  V30 19 1 19 20
M  V30 20 2 20 21
M  V30 21 1 21 22
M  V30 22 2 22 23
M  V30 23 1 23 24
M  V30 24 1 24 25
M  V30 25 1 25 26
M  V30 26 1 26 27
M  V30 27 1 27 28
M  V30 28 1 28 29
M  V30 29 1 28 30
M  V30 30 1 14 2
M  V30 31 1 23 18
M  V30 32 1 30 24
M  V30 33 1 11 6
M  V30 34 1 1 31
M  V30 35 1 1 32
M  V30 36 1 3 33
M  V30 37 1 4 34
M  V30 38 1 7 35
M  V30 39 1 8 36
M  V30 40 1 9 37
M  V30 41 1 10 38
M  V30 42 1 17 39
M  V30 43 1 19 40
M  V30 44 1 21 41
M  V30 45 1 22 42
M  V30 46 1 25 43
M  V30 47 1 25 44
M  V30 48 1 26 45
M  V30 49 1 26 46
M  V30 50 1 27 47
M  V30 51 1 27 48
M  V30 52 1 28 49 CFG=3
M  V30 53 1 29 50
M  V30 54 1 29 51
M  V30 55 1 30 52
M  V30 56 1 30 53
M  V30 END BOND
M  V30 END CTAB
M  END
>  <Dataset>  (600) 
ChEMBL_Kinases

>  <Ligand_Instance>  (600) 
nan

>  <PDB_ID>  (600) 
nan

>  <Standardized_SMILES>  (600) 
Nc1ccc(-c2ccccc2F)nc1C(=O)Nc1cnccc1N1CCC[C@H](N)C1

>  <Name>  (600) 
nan

>  <Pocket>  (600) 
nan

>  <ATP_Site>  (600) 
nan

>  <Peripheral>  (600) 
nan

>  <Num_H_Atoms_ProtBoundConf>  (600) 
nan

>  <Num_Resolved_Atoms>  (600) 
nan

>  <Num_Not_Resolved_Atoms>  (600) 
nan

$$$$
CHEMBL3103865
     RDKit          3D

  0  0  0  0  0  0  0  0  0  0999 V3000
M  V30 BEGIN CTAB
M  V30 COUNTS 56 59 0 0 0
M  V30 BEGIN ATOM
M  V30 1 N 1.701680 -3.761259 2.931969 0
M  V30 2 C 1.957339 -2.384978 2.705786 0
M  V30 3 C 3.184180 -1.791126 2.891134 0
M  V30 4 C 3.312334 -0.455001 2.641607 0
M  V30 5 C 2.373046 0.415727 2.221119 0
M  V30 6 C 2.323623 1.810605 1.891057 0
M  V30 7 C 1.302927 2.235895 1.068688 0
M  V30 8 C 1.062524 3.532031 0.708366 0
M  V30 9 C 1.893332 4.502662 1.194862 0
M  V30 10 C 2.917458 4.121653 2.013914 0
M  V30 11 C 3.133056 2.804968 2.358014 0
M  V30 12 C 4.289585 2.571907 3.236555 0
M  V30 13 F 4.835400 3.804561 3.661164 0
M  V30 14 F 5.361007 2.019429 2.501168 0
M  V30 15 F 3.990423 1.890494 4.375849 0
M  V30 16 N 1.197608 -0.244112 2.061390 0
M  V30 17 C 0.976744 -1.524766 2.275532 0
M  V30 18 C -0.363704 -2.091113 2.058971 0
M  V30 19 O -0.542877 -3.317858 2.276395 0
M  V30 20 N -1.416860 -1.244106 1.612325 0
M  V30 21 C -2.775368 -1.561686 1.337878 0
M  V30 22 C -3.827285 -1.522206 2.238061 0
M  V30 23 N -5.077164 -1.844697 1.861603 0
M  V30 24 C -5.388442 -2.224910 0.593997 0
M  V30 25 C -4.333556 -2.260804 -0.294226 0
M  V30 26 C -3.043459 -1.940408 0.045458 0
M  V30 27 N -2.108273 -2.050897 -1.048101 0
M  V30 28 C -0.964488 -2.896901 -1.116305 0
M  V30 29 C -0.788823 -3.555658 -2.465059 0
M  V30 30 C -0.761296 -2.485938 -3.548866 0
M  V30 31 C -2.160501 -1.867961 -3.514449 0 CFG=2
M  V30 32 N -2.210927 -0.839964 -4.543377 0
M  V30 33 C -2.374259 -1.215243 -2.170441 0
M  V30 34 H 2.002823 -4.399075 2.162240 0
M  V30 35 H 1.242637 -4.104210 3.812027 0
M  V30 36 H 4.017444 -2.389489 3.228448 0
M  V30 37 H 4.280199 -0.080179 2.777255 0
M  V30 38 H 0.582434 1.526304 0.626395 0
M  V30 39 H 0.247097 3.803169 0.058847 0
M  V30 40 H 1.724514 5.532138 0.925256 0
M  V30 41 H 3.542377 4.941861 2.367471 0
M  V30 42 H -1.227208 -0.228310 1.442870 0
M  V30 43 H -3.575465 -1.218984 3.246309 0
M  V30 44 H -6.417526 -2.468905 0.368655 0
M  V30 45 H -4.630316 -2.572111 -1.302541 0
M  V30 46 H -1.122456 -3.715914 -0.380264 0
M  V30 47 H -0.025183 -2.380173 -0.832462 0
M  V30 48 H -1.688583 -4.176794 -2.662424 0
M  V30 49 H 0.123282 -4.153601 -2.519749 0
M  V30 50 H -0.666239 -3.004088 -4.517639 0
M  V30 51 H -0.005527 -1.709984 -3.355902 0
M  V30 52 H -2.912135 -2.634435 -3.731640 0
M  V30 53 H -2.079247 0.108260 -4.120997 0
M  V30 54 H -1.455938 -0.994068 -5.223530 0
M  V30 55 H -1.639783 -0.360960 -2.134119 0
M  V30 56 H -3.368678 -0.754656 -2.173703 0
M  V30 END ATOM
M  V30 BEGIN BOND
M  V30 1 1 1 2
M  V30 2 2 2 3
M  V30 3 1 3 4
M  V30 4 2 4 5
M  V30 5 1 5 6
M  V30 6 2 6 7
M  V30 7 1 7 8
M  V30 8 2 8 9
M  V30 9 1 9 10
M  V30 10 2 10 11
M  V30 11 1 11 12
M  V30 12 1 12 13
M  V30 13 1 12 14
M  V30 14 1 12 15
M  V30 15 1 5 16
M  V30 16 2 16 17
M  V30 17 1 17 18
M  V30 18 2 18 19
M  V30 19 1 18 20
M  V30 20 1 20 21
M  V30 21 2 21 22
M  V30 22 1 22 23
M  V30 23 2 23 24
M  V30 24 1 24 25
M  V30 25 2 25 26
M  V30 26 1 26 27
M  V30 27 1 27 28
M  V30 28 1 28 29
M  V30 29 1 29 30
M  V30 30 1 30 31
M  V30 31 1 31 32
M  V30 32 1 31 33
M  V30 33 1 17 2
M  V30 34 1 26 21
M  V30 35 1 33 27
M  V30 36 1 11 6
M  V30 37 1 1 34
M  V30 38 1 1 35
M  V30 39 1 3 36
M  V30 40 1 4 37
M  V30 41 1 7 38
M  V30 42 1 8 39
M  V30 43 1 9 40
M  V30 44 1 10 41
M  V30 45 1 20 42
M  V30 46 1 22 43
M  V30 47 1 24 44
M  V30 48 1 25 45
M  V30 49 1 28 46
M  V30 50 1 28 47
M  V30 51 1 29 48
M  V30 52 1 29 49
M  V30 53 1 30 50
M  V30 54 1 30 51
M  V30 55 1 31 52 CFG=3
M  V30 56 1 32 53
M  V30 57 1 32 54
M  V30 58 1 33 55
M  V30 59 1 33 56
M  V30 END BOND
M  V30 END CTAB
M  END
>  <Dataset>  (601) 
ChEMBL_Kinases

>  <Ligand_Instance>  (601) 
nan

>  <PDB_ID>  (601) 
nan

>  <Standardized_SMILES>  (601) 
Nc1ccc(-c2ccccc2C(F)(F)F)nc1C(=O)Nc1cnccc1N1CCC[C@H](N)C1

>  <Name>  (601) 
nan

>  <Pocket>  (601) 
nan

>  <ATP_Site>  (601) 
nan

>  <Peripheral>  (601) 
nan

>  <Num_H_Atoms_ProtBoundConf>  (601) 
nan

>  <Num_Resolved_Atoms>  (601) 
nan

>  <Num_Not_Resolved_Atoms>  (601) 
nan

$$$$
CHEMBL4761515
     RDKit          3D

  0  0  0  0  0  0  0  0  0  0999 V3000
M  V30 BEGIN CTAB
M  V30 COUNTS 59 64 0 0 0
M  V30 BEGIN ATOM
M  V30 1 C 4.693250 -0.471448 6.666268 0
M  V30 2 C 6.020637 -0.369689 5.968548 0
M  V30 3 C 6.101192 -1.310819 4.774578 0
M  V30 4 C 5.016309 -0.921696 3.838500 0
M  V30 5 O 4.280138 0.041383 4.164074 0
M  V30 6 N 4.761069 -1.556751 2.619564 0
M  V30 7 C 3.782531 -1.313601 1.627223 0
M  V30 8 C 3.736555 -2.091722 0.494057 0
M  V30 9 N 2.835484 -1.913128 -0.481637 0
M  V30 10 C 1.899224 -0.952362 -0.428565 0
M  V30 11 C 1.876130 -0.128840 0.673451 0
M  V30 12 C 0.873618 0.926123 0.766892 0
M  V30 13 C 1.107414 2.118896 1.419219 0
M  V30 14 C 0.154541 3.094467 1.494974 0
M  V30 15 C -1.055768 2.835179 0.889227 0
M  V30 16 N -2.183204 3.559389 0.777414 0
M  V30 17 N -3.075339 2.883353 0.103777 0
M  V30 18 C -2.625991 1.683781 -0.278395 0
M  V30 19 C -3.386742 0.715660 -1.035741 0
M  V30 20 C -3.185227 -0.538103 -1.541869 0
M  V30 21 C -4.290141 -1.015386 -2.206381 0
M  V30 22 C -4.527926 -2.201693 -2.857901 0
M  V30 23 C -3.534511 -3.245685 -2.941969 0
M  V30 24 C -2.719291 -3.797928 -1.978105 0
M  V30 25 C -1.825559 -4.788899 -2.250711 0
M  V30 26 N -1.726142 -5.250556 -3.491780 0
M  V30 27 C -2.487657 -4.763652 -4.491222 0
M  V30 28 C -3.407577 -3.749876 -4.232540 0
M  V30 29 C -5.765941 -2.384778 -3.440265 0
M  V30 30 N -6.687089 -1.416025 -3.355336 0
M  V30 31 C -6.439976 -0.257564 -2.712893 0
M  V30 32 C -5.217579 -0.012921 -2.108046 0
M  V30 33 N -4.661493 0.977400 -1.422492 0
M  V30 34 C -1.349176 1.661047 0.221820 0
M  V30 35 C -0.360139 0.732403 0.182497 0
M  V30 36 C 2.813705 -0.339468 1.654488 0
M  V30 37 H 3.987409 -1.151523 6.148483 0
M  V30 38 H 4.229443 0.542375 6.831138 0
M  V30 39 H 4.858582 -0.883821 7.675517 0
M  V30 40 H 6.127613 0.697187 5.625384 0
M  V30 41 H 6.816373 -0.660739 6.659321 0
M  V30 42 H 7.103505 -1.304652 4.333308 0
M  V30 43 H 5.929431 -2.341259 5.184521 0
M  V30 44 H 5.434670 -2.348985 2.443874 0
M  V30 45 H 4.456160 -2.904106 0.351270 0
M  V30 46 H 1.191402 -0.849961 -1.247238 0
M  V30 47 H 2.083723 2.266753 1.879072 0
M  V30 48 H 0.333550 4.044932 2.011931 0
M  V30 49 H -2.389061 4.515259 1.142705 0
M  V30 50 H -2.284729 -1.088559 -1.441824 0
M  V30 51 H -2.880618 -3.352661 -0.995830 0
M  V30 52 H -1.249356 -5.126198 -1.387244 0
M  V30 53 H -2.312007 -5.218949 -5.441979 0
M  V30 54 H -3.953024 -3.453120 -5.127090 0
M  V30 55 H -6.042748 -3.300726 -3.980870 0
M  V30 56 H -7.188619 0.508664 -2.653582 0
M  V30 57 H -5.250421 1.829248 -1.259224 0
M  V30 58 H -0.530597 -0.198807 -0.321937 0
M  V30 59 H 2.758863 0.328220 2.499116 0
M  V30 END ATOM
M  V30 BEGIN BOND
M  V30 1 1 1 2
M  V30 2 1 2 3
M  V30 3 1 3 4
M  V30 4 2 4 5
M  V30 5 1 4 6
M  V30 6 1 6 7
M  V30 7 2 7 8
M  V30 8 1 8 9
M  V30 9 2 9 10
M  V30 10 1 10 11
M  V30 11 1 11 12
M  V30 12 2 12 13
M  V30 13 1 13 14
M  V30 14 2 14 15
M  V30 15 1 15 16
M  V30 16 1 16 17
M  V30 17 2 17 18
M  V30 18 1 18 19
M  V30 19 2 19 20
M  V30 20 1 20 21
M  V30 21 2 21 22
M  V30 22 1 22 23
M  V30 23 2 23 24
M  V30 24 1 24 25
M  V30 25 2 25 26
M  V30 26 1 26 27
M  V30 27 2 27 28
M  V30 28 1 22 29
M  V30 29 2 29 30
M  V30 30 1 30 31
M  V30 31 2 31 32
M  V30 32 1 32 33
M  V30 33 1 18 34
M  V30 34 2 34 35
M  V30 35 2 11 36
M  V30 36 1 36 7
M  V30 37 1 35 12
M  V30 38 1 34 15
M  V30 39 1 33 19
M  V30 40 1 32 21
M  V30 41 1 28 23
M  V30 42 1 1 37
M  V30 43 1 1 38
M  V30 44 1 1 39
M  V30 45 1 2 40
M  V30 46 1 2 41
M  V30 47 1 3 42
M  V30 48 1 3 43
M  V30 49 1 6 44
M  V30 50 1 8 45
M  V30 51 1 10 46
M  V30 52 1 13 47
M  V30 53 1 14 48
M  V30 54 1 16 49
M  V30 55 1 20 50
M  V30 56 1 24 51
M  V30 57 1 25 52
M  V30 58 1 27 53
M  V30 59 1 28 54
M  V30 60 1 29 55
M  V30 61 1 31 56
M  V30 62 1 33 57
M  V30 63 1 35 58
M  V30 64 1 36 59
M  V30 END BOND
M  V30 END CTAB
M  END
>  <Dataset>  (602) 
ChEMBL_Kinases

>  <Ligand_Instance>  (602) 
nan

>  <PDB_ID>  (602) 
nan

>  <Standardized_SMILES>  (602) 
CCCC(=O)Nc1cncc(-c2ccc3[nH]nc(-c4cc5c(-c6ccncc6)cncc5[nH]4)c3c2)c1

>  <Name>  (602) 
nan

>  <Pocket>  (602) 
nan

>  <ATP_Site>  (602) 
nan

>  <Peripheral>  (602) 
nan

>  <Num_H_Atoms_ProtBoundConf>  (602) 
nan

>  <Num_Resolved_Atoms>  (602) 
nan

>  <Num_Not_Resolved_Atoms>  (602) 
nan

$$$$
CHEMBL4761487
     RDKit          3D

  0  0  0  0  0  0  0  0  0  0999 V3000
M  V30 BEGIN CTAB
M  V30 COUNTS 56 60 0 0 0
M  V30 BEGIN ATOM
M  V30 1 O -0.831541 -2.992916 -2.981647 0
M  V30 2 C -1.408833 -3.766521 -2.173519 0
M  V30 3 N -0.819235 -4.109547 -0.939511 0
M  V30 4 C 0.467729 -3.510659 -0.694637 0
M  V30 5 C 0.445831 -2.292551 -0.041918 0
M  V30 6 C 1.634494 -1.641932 0.233473 0
M  V30 7 C 1.718930 -0.439661 0.873126 0
M  V30 8 C 2.913402 0.197398 1.142865 0
M  V30 9 C 2.922974 1.479394 1.836471 0
M  V30 10 C 4.098230 2.135463 2.117965 0
M  V30 11 N 4.001428 3.307674 2.761325 0
M  V30 12 C 2.815638 3.795256 3.102020 0
M  V30 13 C 1.604084 3.166791 2.837819 0
M  V30 14 N 0.326610 3.662739 3.191932 0
M  V30 15 C -0.916341 3.016902 2.918810 0
M  V30 16 C -1.061615 1.642546 3.524263 0
M  V30 17 C -2.002983 0.771753 2.719280 0
M  V30 18 N -3.124358 1.524396 2.199535 0
M  V30 19 C -2.744803 2.597141 1.328451 0
M  V30 20 C -1.256163 2.942488 1.443824 0
M  V30 21 N 1.727702 1.981362 2.185517 0
M  V30 22 C 4.033718 -0.478731 0.712440 0
M  V30 23 C 4.026983 -1.693798 0.061124 0
M  V30 24 C 2.791690 -2.293369 -0.185606 0
M  V30 25 C 2.823791 -3.511326 -0.838813 0
M  V30 26 N 1.626422 -4.105252 -1.083264 0
M  V30 27 C -2.749290 -4.385678 -2.435706 0
M  V30 28 C -2.694631 -5.878071 -2.437253 0
M  V30 29 C -3.267827 -5.915208 -3.828794 0
M  V30 30 F -4.639372 -6.111714 -3.898339 0
M  V30 31 F -2.536652 -6.712706 -4.712933 0
M  V30 32 C -2.943922 -4.448196 -3.958097 0
M  V30 33 H -1.173790 -4.729022 -0.173532 0
M  V30 34 H -0.466622 -1.802187 0.275849 0
M  V30 35 H 0.791179 0.022814 1.176683 0
M  V30 36 H 5.058272 1.751154 1.847545 0
M  V30 37 H 2.760370 4.759260 3.629959 0
M  V30 38 H 0.373044 4.582457 3.692421 0
M  V30 39 H -1.734500 3.641719 3.371271 0
M  V30 40 H -0.085726 1.128078 3.545877 0
M  V30 41 H -1.475904 1.735945 4.541343 0
M  V30 42 H -2.352131 -0.012863 3.428123 0
M  V30 43 H -1.483505 0.258561 1.885608 0
M  V30 44 H -3.768667 0.892557 1.697546 0
M  V30 45 H -3.363629 3.511129 1.506364 0
M  V30 46 H -2.907178 2.288899 0.283051 0
M  V30 47 H -1.124414 3.913971 0.929651 0
M  V30 48 H -0.709533 2.139009 0.920734 0
M  V30 49 H 5.002666 -0.036216 0.891844 0
M  V30 50 H 4.941115 -2.176510 -0.252746 0
M  V30 51 H 3.759805 -3.957882 -1.134515 0
M  V30 52 H -3.600922 -3.902756 -1.914691 0
M  V30 53 H -3.332653 -6.364812 -1.665265 0
M  V30 54 H -1.643888 -6.274384 -2.463070 0
M  V30 55 H -3.797117 -3.825319 -4.327997 0
M  V30 56 H -2.024857 -4.282936 -4.549413 0
M  V30 END ATOM
M  V30 BEGIN BOND
M  V30 1 2 1 2
M  V30 2 1 2 3
M  V30 3 1 3 4
M  V30 4 2 4 5
M  V30 5 1 5 6
M  V30 6 2 6 7
M  V30 7 1 7 8
M  V30 8 1 8 9
M  V30 9 2 9 10
M  V30 10 1 10 11
M  V30 11 2 11 12
M  V30 12 1 12 13
M  V30 13 1 13 14
M  V30 14 1 14 15
M  V30 15 1 15 16
M  V30 16 1 16 17
M  V30 17 1 17 18
M  V30 18 1 18 19
M  V30 19 1 19 20
M  V30 20 2 13 21
M  V30 21 2 8 22
M  V30 22 1 22 23
M  V30 23 2 23 24
M  V30 24 1 24 25
M  V30 25 2 25 26
M  V30 26 1 2 27
M  V30 27 1 27 28
M  V30 28 1 28 29
M  V30 29 1 29 30
M  V30 30 1 29 31
M  V30 31 1 29 32
M  V30 32 1 26 4
M  V30 33 1 32 27
M  V30 34 1 24 6
M  V30 35 1 21 9
M  V30 36 1 20 15
M  V30 37 1 3 33
M  V30 38 1 5 34
M  V30 39 1 7 35
M  V30 40 1 10 36
M  V30 41 1 12 37
M  V30 42 1 14 38
M  V30 43 1 15 39
M  V30 44 1 16 40
M  V30 45 1 16 41
M  V30 46 1 17 42
M  V30 47 1 17 43
M  V30 48 1 18 44
M  V30 49 1 19 45
M  V30 50 1 19 46
M  V30 51 1 20 47
M  V30 52 1 20 48
M  V30 53 1 22 49
M  V30 54 1 23 50
M  V30 55 1 25 51
M  V30 56 1 27 52
M  V30 57 1 28 53
M  V30 58 1 28 54
M  V30 59 1 32 55
M  V30 60 1 32 56
M  V30 END BOND
M  V30 END CTAB
M  END
>  <Dataset>  (603) 
ChEMBL_Kinases

>  <Ligand_Instance>  (603) 
nan

>  <PDB_ID>  (603) 
nan

>  <Standardized_SMILES>  (603) 
O=C(Nc1cc2cc(-c3cncc(NC4CCNCC4)n3)ccc2cn1)C1CC(F)(F)C1

>  <Name>  (603) 
nan

>  <Pocket>  (603) 
nan

>  <ATP_Site>  (603) 
nan

>  <Peripheral>  (603) 
nan

>  <Num_H_Atoms_ProtBoundConf>  (603) 
nan

>  <Num_Resolved_Atoms>  (603) 
nan

>  <Num_Not_Resolved_Atoms>  (603) 
nan

$$$$
CHEMBL3103863
     RDKit          3D

  0  0  0  0  0  0  0  0  0  0999 V3000
M  V30 BEGIN CTAB
M  V30 COUNTS 53 56 0 0 0
M  V30 BEGIN ATOM
M  V30 1 N 3.000975 -0.641236 4.921028 0
M  V30 2 C 2.902907 0.731324 4.536462 0
M  V30 3 N 3.248934 1.757519 5.355080 0
M  V30 4 C 3.131077 3.033660 4.930333 0
M  V30 5 C 2.656152 3.247993 3.660681 0
M  V30 6 C 2.290221 2.231626 2.788164 0
M  V30 7 C 1.787219 2.453618 1.442430 0
M  V30 8 C 1.647930 3.732736 0.953731 0
M  V30 9 C 1.165552 3.838490 -0.332544 0
M  V30 10 C 0.871000 2.662871 -1.001662 0
M  V30 11 N 0.380838 2.829589 -2.321521 0
M  V30 12 C 1.010588 1.386410 -0.512501 0
M  V30 13 C 0.660226 0.248719 -1.343255 0
M  V30 14 O 0.237852 0.462127 -2.504438 0
M  V30 15 N 0.850026 -1.005309 -0.703230 0
M  V30 16 C 0.681041 -2.374743 -1.020140 0
M  V30 17 C 1.823224 -2.995725 -1.542813 0
M  V30 18 N 1.932636 -4.266645 -1.937464 0
M  V30 19 C 0.830543 -5.032045 -1.821437 0
M  V30 20 C -0.325083 -4.479187 -1.313981 0
M  V30 21 C -0.463593 -3.172609 -0.900126 0
M  V30 22 N -1.576361 -2.519532 -0.376255 0
M  V30 23 C -1.656847 -1.911092 0.943526 0
M  V30 24 C -2.742314 -2.647357 1.696654 0
M  V30 25 C -4.015399 -2.394584 0.874998 0
M  V30 26 C -3.902234 -3.056987 -0.482554 0 CFG=2
M  V30 27 N -3.766722 -4.480078 -0.259978 0
M  V30 28 C -2.762293 -2.431618 -1.216124 0
M  V30 29 N 1.481130 1.351202 0.736367 0
M  V30 30 N 2.451481 1.009859 3.322195 0
M  V30 31 H 2.006144 -0.939948 5.063665 0
M  V30 32 H 3.991016 -1.021484 4.972071 0
M  V30 33 H 3.417591 3.797645 5.614849 0
M  V30 34 H 2.573275 4.266295 3.352046 0
M  V30 35 H 1.883791 4.626253 1.495359 0
M  V30 36 H 1.024975 4.800219 -0.794599 0
M  V30 37 H 0.188118 2.935206 -3.329675 0
M  V30 38 H -0.670742 2.964491 -2.413520 0
M  V30 39 H 1.208866 -1.111229 0.269599 0
M  V30 40 H 2.765976 -2.436863 -1.668935 0
M  V30 41 H 0.785098 -6.080119 -2.105479 0
M  V30 42 H -1.213295 -5.078302 -1.214591 0
M  V30 43 H -0.731663 -1.805180 1.482378 0
M  V30 44 H -2.058093 -0.859602 0.830727 0
M  V30 45 H -2.905458 -2.102017 2.648399 0
M  V30 46 H -2.544514 -3.710923 1.821413 0
M  V30 47 H -4.076655 -1.284380 0.790754 0
M  V30 48 H -4.920470 -2.759505 1.360325 0
M  V30 49 H -4.890654 -2.848117 -0.980787 0
M  V30 50 H -4.469319 -4.998813 -0.841510 0
M  V30 51 H -3.957910 -4.734806 0.755434 0
M  V30 52 H -2.598616 -2.836703 -2.226160 0
M  V30 53 H -3.052098 -1.365098 -1.385789 0
M  V30 END ATOM
M  V30 BEGIN BOND
M  V30 1 1 1 2
M  V30 2 2 2 3
M  V30 3 1 3 4
M  V30 4 2 4 5
M  V30 5 1 5 6
M  V30 6 1 6 7
M  V30 7 2 7 8
M  V30 8 1 8 9
M  V30 9 2 9 10
M  V30 10 1 10 11
M  V30 11 1 10 12
M  V30 12 1 12 13
M  V30 13 2 13 14
M  V30 14 1 13 15
M  V30 15 1 15 16
M  V30 16 2 16 17
M  V30 17 1 17 18
M  V30 18 2 18 19
M  V30 19 1 19 20
M  V30 20 2 20 21
M  V30 21 1 21 22
M  V30 22 1 22 23
M  V30 23 1 23 24
M  V30 24 1 24 25
M  V30 25 1 25 26
M  V30 26 1 26 27
M  V30 27 1 26 28
M  V30 28 2 12 29
M  V30 29 2 6 30
M  V30 30 1 30 2
M  V30 31 1 29 7
M  V30 32 1 21 16
M  V30 33 1 28 22
M  V30 34 1 1 31
M  V30 35 1 1 32
M  V30 36 1 4 33
M  V30 37 1 5 34
M  V30 38 1 8 35
M  V30 39 1 9 36
M  V30 40 1 11 37
M  V30 41 1 11 38
M  V30 42 1 15 39
M  V30 43 1 17 40
M  V30 44 1 19 41
M  V30 45 1 20 42
M  V30 46 1 23 43
M  V30 47 1 23 44
M  V30 48 1 24 45
M  V30 49 1 24 46
M  V30 50 1 25 47
M  V30 51 1 25 48
M  V30 52 1 26 49 CFG=3
M  V30 53 1 27 50
M  V30 54 1 27 51
M  V30 55 1 28 52
M  V30 56 1 28 53
M  V30 END BOND
M  V30 END CTAB
M  END
>  <Dataset>  (604) 
ChEMBL_Kinases

>  <Ligand_Instance>  (604) 
nan

>  <PDB_ID>  (604) 
nan

>  <Standardized_SMILES>  (604) 
Nc1nccc(-c2ccc(N)c(C(=O)Nc3cnccc3N3CCC[C@H](N)C3)n2)n1

>  <Name>  (604) 
nan

>  <Pocket>  (604) 
nan

>  <ATP_Site>  (604) 
nan

>  <Peripheral>  (604) 
nan

>  <Num_H_Atoms_ProtBoundConf>  (604) 
nan

>  <Num_Resolved_Atoms>  (604) 
nan

>  <Num_Not_Resolved_Atoms>  (604) 
nan

$$$$
CHEMBL4761354
     RDKit          3D

  0  0  0  0  0  0  0  0  0  0999 V3000
M  V30 BEGIN CTAB
M  V30 COUNTS 69 74 0 0 0
M  V30 BEGIN ATOM
M  V30 1 C 3.206186 -4.302747 4.261110 0
M  V30 2 N 3.192716 -5.547021 3.533345 0
M  V30 3 C 4.384532 -5.739518 2.740422 0
M  V30 4 C 4.338017 -5.114281 1.382870 0
M  V30 5 N 2.982854 -5.026952 0.864698 0
M  V30 6 C 2.557774 -4.009963 -0.031181 0
M  V30 7 C 1.371510 -4.002170 -0.731423 0
M  V30 8 C 0.980614 -2.977459 -1.567882 0
M  V30 9 C 1.853192 -1.917565 -1.685467 0
M  V30 10 N 1.735379 -0.772070 -2.458184 0
M  V30 11 C 1.957740 -0.032218 -3.605543 0
M  V30 12 O 2.644398 -0.679171 -4.446639 0
M  V30 13 C 1.537762 1.310586 -3.943803 0
M  V30 14 N 2.264653 1.951903 -4.840497 0
M  V30 15 N 1.757181 3.173665 -5.072091 0
M  V30 16 C 0.647178 3.325346 -4.286786 0
M  V30 17 C -0.244899 4.374402 -4.157043 0
M  V30 18 C -1.308262 4.180122 -3.264437 0
M  V30 19 C -1.415226 3.002041 -2.580597 0
M  V30 20 C -2.527845 2.695176 -1.660198 0
M  V30 21 C -3.698735 3.304066 -2.062514 0
M  V30 22 N -4.845650 3.095110 -1.349857 0
M  V30 23 C -4.799326 2.284503 -0.251920 0
M  V30 24 C -3.661311 1.647901 0.198430 0
M  V30 25 C -3.574122 0.739374 1.342249 0
M  V30 26 N -3.348655 1.428745 2.589582 0
M  V30 27 C -3.161301 0.471770 3.684022 0
M  V30 28 C -3.754788 1.047634 4.919931 0
M  V30 29 C -4.591654 2.197790 4.487346 0
M  V30 30 F -4.026485 3.386230 4.961600 0
M  V30 31 F -5.888301 2.067780 4.967068 0
M  V30 32 C -4.546975 2.166509 2.987336 0
M  V30 33 C -2.515863 1.882954 -0.548891 0
M  V30 34 C -0.521803 1.950530 -2.704193 0
M  V30 35 C 0.509895 2.160268 -3.581874 0
M  V30 36 C 3.071030 -1.908478 -0.978178 0
M  V30 37 N 3.424097 -2.950069 -0.153579 0
M  V30 38 C 2.121823 -6.086450 1.387531 0
M  V30 39 C 1.966003 -5.861924 2.886418 0
M  V30 40 H 2.235454 -3.794916 4.111290 0
M  V30 41 H 3.321514 -4.507298 5.360049 0
M  V30 42 H 4.079672 -3.681259 3.942014 0
M  V30 43 H 4.678954 -6.809459 2.738291 0
M  V30 44 H 5.198268 -5.223231 3.301998 0
M  V30 45 H 4.817445 -4.106651 1.394494 0
M  V30 46 H 4.906483 -5.759836 0.672535 0
M  V30 47 H 0.697863 -4.837524 -0.629006 0
M  V30 48 H 0.092870 -2.914153 -2.127461 0
M  V30 49 H 1.192659 -0.225989 -1.714592 0
M  V30 50 H 2.157680 3.876944 -5.734699 0
M  V30 51 H -0.153202 5.299043 -4.693859 0
M  V30 52 H -2.057793 4.951515 -3.097703 0
M  V30 53 H -3.837564 3.944546 -2.914740 0
M  V30 54 H -5.714746 2.137605 0.281399 0
M  V30 55 H -4.501481 0.083923 1.411384 0
M  V30 56 H -2.706984 0.037098 1.176236 0
M  V30 57 H -3.653114 -0.502737 3.465639 0
M  V30 58 H -2.073137 0.306343 3.787076 0
M  V30 59 H -2.921184 1.408220 5.571049 0
M  V30 60 H -4.313485 0.293048 5.521554 0
M  V30 61 H -5.467326 1.665230 2.604052 0
M  V30 62 H -4.464277 3.188906 2.596549 0
M  V30 63 H -1.531833 1.464344 -0.344642 0
M  V30 64 H -0.623956 1.018651 -2.173354 0
M  V30 65 H 3.837944 -1.120430 -1.000651 0
M  V30 66 H 2.468403 -7.094818 1.196132 0
M  V30 67 H 1.092446 -5.983853 0.963453 0
M  V30 68 H 1.229979 -5.048809 3.067456 0
M  V30 69 H 1.547954 -6.786580 3.341203 0
M  V30 END ATOM
M  V30 BEGIN BOND
M  V30 1 1 1 2
M  V30 2 1 2 3
M  V30 3 1 3 4
M  V30 4 1 4 5
M  V30 5 1 5 6
M  V30 6 2 6 7
M  V30 7 1 7 8
M  V30 8 2 8 9
M  V30 9 1 9 10
M  V30 10 1 10 11
M  V30 11 2 11 12
M  V30 12 1 11 13
M  V30 13 2 13 14
M  V30 14 1 14 15
M  V30 15 1 15 16
M  V30 16 2 16 17
M  V30 17 1 17 18
M  V30 18 2 18 19
M  V30 19 1 19 20
M  V30 20 2 20 21
M  V30 21 1 21 22
M  V30 22 2 22 23
M  V30 23 1 23 24
M  V30 24 1 24 25
M  V30 25 1 25 26
M  V30 26 1 26 27
M  V30 27 1 27 28
M  V30 28 1 28 29
M  V30 29 1 29 30
M  V30 30 1 29 31
M  V30 31 1 29 32
M  V30 32 2 24 33
M  V30 33 1 19 34
M  V30 34 2 34 35
M  V30 35 1 9 36
M  V30 36 2 36 37
M  V30 37 1 5 38
M  V30 38 1 38 39
M  V30 39 1 39 2
M  V30 40 1 37 6
M  V30 41 1 35 13
M  V30 42 1 35 16
M  V30 43 1 33 20
M  V30 44 1 32 26
M  V30 45 1 1 40
M  V30 46 1 1 41
M  V30 47 1 1 42
M  V30 48 1 3 43
M  V30 49 1 3 44
M  V30 50 1 4 45
M  V30 51 1 4 46
M  V30 52 1 7 47
M  V30 53 1 8 48
M  V30 54 1 10 49
M  V30 55 1 15 50
M  V30 56 1 17 51
M  V30 57 1 18 52
M  V30 58 1 21 53
M  V30 59 1 23 54
M  V30 60 1 25 55
M  V30 61 1 25 56
M  V30 62 1 27 57
M  V30 63 1 27 58
M  V30 64 1 28 59
M  V30 65 1 28 60
M  V30 66 1 32 61
M  V30 67 1 32 62
M  V30 68 1 33 63
M  V30 69 1 34 64
M  V30 70 1 36 65
M  V30 71 1 38 66
M  V30 72 1 38 67
M  V30 73 1 39 68
M  V30 74 1 39 69
M  V30 END BOND
M  V30 END CTAB
M  END
>  <Dataset>  (605) 
ChEMBL_Kinases

>  <Ligand_Instance>  (605) 
nan

>  <PDB_ID>  (605) 
nan

>  <Standardized_SMILES>  (605) 
CN1CCN(c2ccc(NC(=O)c3n[nH]c4ccc(-c5cncc(CN6CCC(F)(F)C6)c5)cc34)cn2)CC1

>  <Name>  (605) 
nan

>  <Pocket>  (605) 
nan

>  <ATP_Site>  (605) 
nan

>  <Peripheral>  (605) 
nan

>  <Num_H_Atoms_ProtBoundConf>  (605) 
nan

>  <Num_Resolved_Atoms>  (605) 
nan

>  <Num_Not_Resolved_Atoms>  (605) 
nan

$$$$
CHEMBL3103859
     RDKit          3D

  0  0  0  0  0  0  0  0  0  0999 V3000
M  V30 BEGIN CTAB
M  V30 COUNTS 54 57 0 0 0
M  V30 BEGIN ATOM
M  V30 1 N -2.247725 2.079706 3.743700 0
M  V30 2 C -0.980384 2.301045 3.131629 0
M  V30 3 C -0.409019 3.569778 3.168479 0
M  V30 4 C 0.827818 3.841379 2.586075 0
M  V30 5 C 1.492382 2.821006 1.961062 0
M  V30 6 O 2.746419 3.009794 1.347413 0
M  V30 7 C 3.333998 1.903496 0.740123 0
M  V30 8 C 4.137116 1.211810 1.652611 0
M  V30 9 C 4.820855 0.067898 1.250596 0
M  V30 10 C 4.701018 -0.373903 -0.043128 0
M  V30 11 C 3.901072 0.319128 -0.943380 0
M  V30 12 C 3.219171 1.451816 -0.559746 0
M  V30 13 N 0.925056 1.608365 1.937073 0
M  V30 14 C -0.261230 1.323002 2.489025 0
M  V30 15 C -0.865968 -0.002955 2.454562 0
M  V30 16 O -1.985283 -0.177343 3.000646 0
M  V30 17 N -0.145602 -1.015481 1.802264 0
M  V30 18 C -0.299296 -2.398305 1.513528 0
M  V30 19 C 0.237436 -3.168188 2.553187 0
M  V30 20 N 0.226644 -4.513439 2.536549 0
M  V30 21 C -0.323057 -5.155949 1.476289 0
M  V30 22 C -0.859648 -4.426303 0.437018 0
M  V30 23 C -0.859109 -3.049551 0.433629 0
M  V30 24 N -1.362380 -2.162168 -0.542948 0
M  V30 25 C -2.417576 -1.204311 -0.271138 0
M  V30 26 C -3.505231 -1.253611 -1.313752 0
M  V30 27 C -3.353194 -2.416853 -2.253333 0
M  V30 28 C -1.996897 -2.646287 -2.795308 0 CFG=2
M  V30 29 N -1.701500 -4.038707 -3.066113 0
M  V30 30 C -0.912443 -2.076848 -1.916795 0
M  V30 31 H -3.155529 2.044878 3.206500 0
M  V30 32 H -2.545730 1.919535 4.740261 0
M  V30 33 H -0.955387 4.373691 3.673014 0
M  V30 34 H 1.271257 4.833135 2.616570 0
M  V30 35 H 4.304444 1.467494 2.691813 0
M  V30 36 H 5.458756 -0.502209 1.931519 0
M  V30 37 H 5.214891 -1.264722 -0.411251 0
M  V30 38 H 3.778634 0.007932 -1.967418 0
M  V30 39 H 2.572876 2.069904 -1.163274 0
M  V30 40 H 0.799299 -0.821697 1.354016 0
M  V30 41 H 0.712820 -2.797317 3.470745 0
M  V30 42 H -0.351675 -6.232875 1.424327 0
M  V30 43 H -1.310024 -4.873861 -0.430848 0
M  V30 44 H -2.897875 -1.390094 0.711247 0
M  V30 45 H -1.957339 -0.196679 -0.217176 0
M  V30 46 H -4.531695 -1.275978 -0.896514 0
M  V30 47 H -3.425324 -0.325963 -1.916369 0
M  V30 48 H -4.073141 -2.356474 -3.083709 0
M  V30 49 H -3.639361 -3.332029 -1.677873 0
M  V30 50 H -1.915543 -2.106285 -3.766110 0
M  V30 51 H -0.667380 -4.096807 -3.230552 0
M  V30 52 H -2.154591 -4.407470 -3.923223 0
M  V30 53 H -0.001446 -2.689757 -2.091869 0
M  V30 54 H -0.723424 -0.997825 -2.144943 0
M  V30 END ATOM
M  V30 BEGIN BOND
M  V30 1 1 1 2
M  V30 2 2 2 3
M  V30 3 1 3 4
M  V30 4 2 4 5
M  V30 5 1 5 6
M  V30 6 1 6 7
M  V30 7 2 7 8
M  V30 8 1 8 9
M  V30 9 2 9 10
M  V30 10 1 10 11
M  V30 11 2 11 12
M  V30 12 1 5 13
M  V30 13 2 13 14
M  V30 14 1 14 15
M  V30 15 2 15 16
M  V30 16 1 15 17
M  V30 17 1 17 18
M  V30 18 2 18 19
M  V30 19 1 19 20
M  V30 20 2 20 21
M  V30 21 1 21 22
M  V30 22 2 22 23
M  V30 23 1 23 24
M  V30 24 1 24 25
M  V30 25 1 25 26
M  V30 26 1 26 27
M  V30 27 1 27 28
M  V30 28 1 28 29
M  V30 29 1 28 30
M  V30 30 1 14 2
M  V30 31 1 23 18
M  V30 32 1 30 24
M  V30 33 1 12 7
M  V30 34 1 1 31
M  V30 35 1 1 32
M  V30 36 1 3 33
M  V30 37 1 4 34
M  V30 38 1 8 35
M  V30 39 1 9 36
M  V30 40 1 10 37
M  V30 41 1 11 38
M  V30 42 1 12 39
M  V30 43 1 17 40
M  V30 44 1 19 41
M  V30 45 1 21 42
M  V30 46 1 22 43
M  V30 47 1 25 44
M  V30 48 1 25 45
M  V30 49 1 26 46
M  V30 50 1 26 47
M  V30 51 1 27 48
M  V30 52 1 27 49
M  V30 53 1 28 50 CFG=3
M  V30 54 1 29 51
M  V30 55 1 29 52
M  V30 56 1 30 53
M  V30 57 1 30 54
M  V30 END BOND
M  V30 END CTAB
M  END
>  <Dataset>  (606) 
ChEMBL_Kinases

>  <Ligand_Instance>  (606) 
nan

>  <PDB_ID>  (606) 
nan

>  <Standardized_SMILES>  (606) 
Nc1ccc(Oc2ccccc2)nc1C(=O)Nc1cnccc1N1CCC[C@H](N)C1

>  <Name>  (606) 
nan

>  <Pocket>  (606) 
nan

>  <ATP_Site>  (606) 
nan

>  <Peripheral>  (606) 
nan

>  <Num_H_Atoms_ProtBoundConf>  (606) 
nan

>  <Num_Resolved_Atoms>  (606) 
nan

>  <Num_Not_Resolved_Atoms>  (606) 
nan

$$$$
CHEMBL3103858
     RDKit          3D

  0  0  0  0  0  0  0  0  0  0999 V3000
M  V30 BEGIN CTAB
M  V30 COUNTS 43 45 0 0 0
M  V30 BEGIN ATOM
M  V30 1 N 2.771913 -3.184897 2.780321 0
M  V30 2 C 2.382162 -3.513389 1.451742 0
M  V30 3 C 2.275164 -4.863545 1.098394 0
M  V30 4 C 1.901286 -5.237434 -0.176056 0
M  V30 5 C 1.617956 -4.308806 -1.152911 0
M  V30 6 N 1.729421 -3.036150 -0.783539 0
M  V30 7 C 2.089640 -2.619353 0.443802 0
M  V30 8 C 2.190022 -1.202368 0.773838 0
M  V30 9 O 2.532953 -0.883587 1.941587 0
M  V30 10 N 1.895922 -0.252668 -0.238364 0
M  V30 11 C 1.899880 1.169803 -0.237288 0
M  V30 12 C 2.973924 1.976994 -0.552121 0
M  V30 13 N 2.880321 3.318839 -0.522243 0
M  V30 14 C 1.700516 3.908654 -0.173860 0
M  V30 15 C 0.596631 3.131465 0.149817 0
M  V30 16 C 0.695611 1.740929 0.118274 0
M  V30 17 N -0.524621 1.099941 0.476548 0
M  V30 18 C -1.263439 0.196638 -0.390208 0
M  V30 19 C -1.728827 -1.026796 0.380476 0
M  V30 20 C -2.651209 -0.471313 1.470949 0
M  V30 21 C -1.752073 0.250192 2.448102 0 CFG=2
M  V30 22 N -2.655279 0.768772 3.487280 0
M  V30 23 C -1.033108 1.382080 1.780346 0
M  V30 24 H 1.826559 -3.023475 3.187660 0
M  V30 25 H 1.837917 -3.019515 3.205104 0
M  V30 26 H 2.501155 -5.602551 1.877699 0
M  V30 27 H 1.831967 -6.312049 -0.403008 0
M  V30 28 H 1.327490 -4.633921 -2.142759 0
M  V30 29 H 1.620838 -0.592931 -1.175612 0
M  V30 30 H 3.883123 1.423690 -0.820821 0
M  V30 31 H 1.691627 4.994977 -0.169406 0
M  V30 32 H -0.311020 3.684078 0.418004 0
M  V30 33 H -0.707918 -0.032165 -1.297727 0
M  V30 34 H -2.209246 0.718636 -0.717549 0
M  V30 35 H -0.873669 -1.557117 0.807024 0
M  V30 36 H -2.336724 -1.655846 -0.269175 0
M  V30 37 H -3.230024 -1.258378 1.957411 0
M  V30 38 H -3.281651 0.301120 0.976867 0
M  V30 39 H -1.070858 -0.475131 2.945486 0
M  V30 40 H -2.696665 1.823429 3.378243 0
M  V30 41 H -2.304357 0.518495 4.438358 0
M  V30 42 H -1.787674 2.208575 1.649750 0
M  V30 43 H -0.260671 1.766696 2.468351 0
M  V30 END ATOM
M  V30 BEGIN BOND
M  V30 1 1 1 2
M  V30 2 2 2 3
M  V30 3 1 3 4
M  V30 4 2 4 5
M  V30 5 1 5 6
M  V30 6 2 6 7
M  V30 7 1 7 8
M  V30 8 2 8 9
M  V30 9 1 8 10
M  V30 10 1 10 11
M  V30 11 2 11 12
M  V30 12 1 12 13
M  V30 13 2 13 14
M  V30 14 1 14 15
M  V30 15 2 15 16
M  V30 16 1 16 17
M  V30 17 1 17 18
M  V30 18 1 18 19
M  V30 19 1 19 20
M  V30 20 1 20 21
M  V30 21 1 21 22
M  V30 22 1 21 23
M  V30 23 1 7 2
M  V30 24 1 16 11
M  V30 25 1 23 17
M  V30 26 1 1 24
M  V30 27 1 1 25
M  V30 28 1 3 26
M  V30 29 1 4 27
M  V30 30 1 5 28
M  V30 31 1 10 29
M  V30 32 1 12 30
M  V30 33 1 14 31
M  V30 34 1 15 32
M  V30 35 1 18 33
M  V30 36 1 18 34
M  V30 37 1 19 35
M  V30 38 1 19 36
M  V30 39 1 20 37
M  V30 40 1 20 38
M  V30 41 1 21 39 CFG=1
M  V30 42 1 22 40
M  V30 43 1 22 41
M  V30 44 1 23 42
M  V30 45 1 23 43
M  V30 END BOND
M  V30 END CTAB
M  END
>  <Dataset>  (607) 
ChEMBL_Kinases

>  <Ligand_Instance>  (607) 
nan

>  <PDB_ID>  (607) 
nan

>  <Standardized_SMILES>  (607) 
Nc1cccnc1C(=O)Nc1cnccc1N1CCC[C@H](N)C1

>  <Name>  (607) 
nan

>  <Pocket>  (607) 
nan

>  <ATP_Site>  (607) 
nan

>  <Peripheral>  (607) 
nan

>  <Num_H_Atoms_ProtBoundConf>  (607) 
nan

>  <Num_Resolved_Atoms>  (607) 
nan

>  <Num_Not_Resolved_Atoms>  (607) 
nan

$$$$
CHEMBL3103857
     RDKit          3D

  0  0  0  0  0  0  0  0  0  0999 V3000
M  V30 BEGIN CTAB
M  V30 COUNTS 42 44 0 0 0
M  V30 BEGIN ATOM
M  V30 1 N 2.430559 -4.404592 1.861200 0
M  V30 2 C 2.513307 -4.105615 0.477402 0
M  V30 3 N 2.662799 -5.209872 -0.282413 0
M  V30 4 C 2.756347 -5.073655 -1.633631 0
M  V30 5 C 2.690185 -3.791284 -2.137553 0
M  V30 6 N 2.539551 -2.687103 -1.362900 0
M  V30 7 C 2.447532 -2.824772 -0.029860 0
M  V30 8 C 2.284560 -1.700195 0.883124 0
M  V30 9 O 2.211242 -1.963967 2.110609 0
M  V30 10 N 2.222838 -0.421113 0.323641 0
M  V30 11 C 2.071135 0.854415 0.931066 0
M  V30 12 C 3.222215 1.547685 1.307938 0
M  V30 13 N 3.247956 2.777720 1.900234 0
M  V30 14 C 2.041020 3.363749 2.136254 0
M  V30 15 C 0.856949 2.743103 1.793047 0
M  V30 16 C 0.871615 1.487527 1.190000 0
M  V30 17 N -0.321497 0.794072 0.811443 0
M  V30 18 C -0.819038 0.308286 -0.477511 0
M  V30 19 C -2.201045 0.915715 -0.633359 0
M  V30 20 C -3.085397 0.166331 0.317970 0
M  V30 21 C -2.439514 -0.184244 1.612507 0 CFG=2
M  V30 22 N -3.389385 0.088836 2.680309 0
M  V30 23 C -1.172467 0.538489 1.916339 0
M  V30 24 H 2.782811 -4.122587 2.801690 0
M  V30 25 H 1.830504 -5.177668 2.277216 0
M  V30 26 H 2.877582 -5.832595 -2.394329 0
M  V30 27 H 2.748309 -3.498925 -3.197090 0
M  V30 28 H 2.283729 -0.202142 -0.695922 0
M  V30 29 H 4.212607 1.116218 1.138021 0
M  V30 30 H 1.952775 4.343538 2.603934 0
M  V30 31 H -0.103531 3.216290 1.984148 0
M  V30 32 H -0.146671 0.559267 -1.306094 0
M  V30 33 H -0.954189 -0.780848 -0.350871 0
M  V30 34 H -2.211107 1.992154 -0.346349 0
M  V30 35 H -2.601290 0.762248 -1.657055 0
M  V30 36 H -3.459325 -0.736592 -0.207573 0
M  V30 37 H -3.990319 0.811189 0.482093 0
M  V30 38 H -2.291224 -1.284501 1.641935 0
M  V30 39 H -3.452971 -0.682061 3.381809 0
M  V30 40 H -3.259847 1.028165 3.089652 0
M  V30 41 H -1.392698 1.516050 2.414196 0
M  V30 42 H -0.601720 -0.039257 2.676447 0
M  V30 END ATOM
M  V30 BEGIN BOND
M  V30 1 1 1 2
M  V30 2 2 2 3
M  V30 3 1 3 4
M  V30 4 2 4 5
M  V30 5 1 5 6
M  V30 6 2 6 7
M  V30 7 1 7 8
M  V30 8 2 8 9
M  V30 9 1 8 10
M  V30 10 1 10 11
M  V30 11 2 11 12
M  V30 12 1 12 13
M  V30 13 2 13 14
M  V30 14 1 14 15
M  V30 15 2 15 16
M  V30 16 1 16 17
M  V30 17 1 17 18
M  V30 18 1 18 19
M  V30 19 1 19 20
M  V30 20 1 20 21
M  V30 21 1 21 22
M  V30 22 1 21 23
M  V30 23 1 7 2
M  V30 24 1 16 11
M  V30 25 1 23 17
M  V30 26 1 1 24
M  V30 27 1 1 25
M  V30 28 1 4 26
M  V30 29 1 5 27
M  V30 30 1 10 28
M  V30 31 1 12 29
M  V30 32 1 14 30
M  V30 33 1 15 31
M  V30 34 1 18 32
M  V30 35 1 18 33
M  V30 36 1 19 34
M  V30 37 1 19 35
M  V30 38 1 20 36
M  V30 39 1 20 37
M  V30 40 1 21 38 CFG=3
M  V30 41 1 22 39
M  V30 42 1 22 40
M  V30 43 1 23 41
M  V30 44 1 23 42
M  V30 END BOND
M  V30 END CTAB
M  END
>  <Dataset>  (608) 
ChEMBL_Kinases

>  <Ligand_Instance>  (608) 
nan

>  <PDB_ID>  (608) 
nan

>  <Standardized_SMILES>  (608) 
Nc1nccnc1C(=O)Nc1cnccc1N1CCC[C@H](N)C1

>  <Name>  (608) 
nan

>  <Pocket>  (608) 
nan

>  <ATP_Site>  (608) 
nan

>  <Peripheral>  (608) 
nan

>  <Num_H_Atoms_ProtBoundConf>  (608) 
nan

>  <Num_Resolved_Atoms>  (608) 
nan

>  <Num_Not_Resolved_Atoms>  (608) 
nan

$$$$
CHEMBL4761232
     RDKit          3D

  0  0  0  0  0  0  0  0  0  0999 V3000
M  V30 BEGIN CTAB
M  V30 COUNTS 48 53 0 0 0
M  V30 BEGIN ATOM
M  V30 1 N 2.412318 -2.816471 -2.330879 0
M  V30 2 C 3.145958 -1.783006 -1.684639 0
M  V30 3 C 4.524048 -1.953718 -1.639918 0
M  V30 4 N 5.231791 -0.986720 -1.032987 0
M  V30 5 C 4.622444 0.086682 -0.499936 0
M  V30 6 C 3.263171 0.294273 -0.521459 0
M  V30 7 C 2.603209 1.461570 0.055630 0
M  V30 8 C 3.196559 2.723958 0.101253 0
M  V30 9 C 2.531846 3.797003 0.659528 0
M  V30 10 C 1.267128 3.598030 1.172806 0
M  V30 11 N 0.355669 4.388553 1.768888 0
M  V30 12 N -0.727574 3.697259 2.078245 0
M  V30 13 C -0.616147 2.430418 1.720557 0
M  V30 14 C -1.606299 1.381552 1.905122 0
M  V30 15 N -1.516728 0.070083 1.553111 0
M  V30 16 C -2.667759 -0.552820 1.918422 0
M  V30 17 C -3.113971 -1.854267 1.809552 0
M  V30 18 C -2.294664 -2.898875 1.206587 0
M  V30 19 C -1.696093 -2.976542 -0.039091 0
M  V30 20 C -0.971465 -4.114748 -0.335365 0
M  V30 21 C -0.810222 -5.170021 0.530201 0
M  V30 22 C -1.403615 -5.094106 1.769201 0
M  V30 23 C -2.135163 -3.970201 2.096802 0
M  V30 24 F -2.655437 -4.043080 3.348067 0
M  V30 25 N -4.336220 -2.169821 2.281153 0
M  V30 26 C -5.139328 -1.250536 2.858422 0
M  V30 27 C -4.713110 0.064232 2.979344 0
M  V30 28 C -3.468523 0.388164 2.499442 0
M  V30 29 N -2.808510 1.584055 2.489544 0
M  V30 30 C 0.639625 2.369644 1.150346 0
M  V30 31 C 1.316409 1.282365 0.582976 0
M  V30 32 C 2.502564 -0.695676 -1.146748 0
M  V30 33 H 1.718468 -3.601144 -2.234443 0
M  V30 34 H 2.497947 -2.999072 -3.361739 0
M  V30 35 H 4.994331 -2.824909 -2.076117 0
M  V30 36 H 5.220018 0.851958 -0.014675 0
M  V30 37 H 4.188113 2.856851 -0.309178 0
M  V30 38 H 3.002016 4.771351 0.691863 0
M  V30 39 H 0.486800 5.413269 1.963431 0
M  V30 40 H -1.886099 -2.109808 -0.626688 0
M  V30 41 H -0.524859 -4.125195 -1.318321 0
M  V30 42 H -0.227511 -6.031909 0.226177 0
M  V30 43 H -1.247965 -5.942775 2.406071 0
M  V30 44 H -6.096996 -1.615267 3.201870 0
M  V30 45 H -5.388066 0.741990 3.441273 0
M  V30 46 H -3.154170 2.492732 2.859851 0
M  V30 47 H 0.812810 0.307662 0.564732 0
M  V30 48 H 1.417275 -0.640177 -1.223561 0
M  V30 END ATOM
M  V30 BEGIN BOND
M  V30 1 1 1 2
M  V30 2 2 2 3
M  V30 3 1 3 4
M  V30 4 2 4 5
M  V30 5 1 5 6
M  V30 6 1 6 7
M  V30 7 2 7 8
M  V30 8 1 8 9
M  V30 9 2 9 10
M  V30 10 1 10 11
M  V30 11 1 11 12
M  V30 12 2 12 13
M  V30 13 1 13 14
M  V30 14 2 14 15
M  V30 15 1 15 16
M  V30 16 2 16 17
M  V30 17 1 17 18
M  V30 18 2 18 19
M  V30 19 1 19 20
M  V30 20 2 20 21
M  V30 21 1 21 22
M  V30 22 2 22 23
M  V30 23 1 23 24
M  V30 24 1 17 25
M  V30 25 2 25 26
M  V30 26 1 26 27
M  V30 27 2 27 28
M  V30 28 1 28 29
M  V30 29 1 13 30
M  V30 30 2 30 31
M  V30 31 2 6 32
M  V30 32 1 32 2
M  V30 33 1 31 7
M  V30 34 1 30 10
M  V30 35 1 29 14
M  V30 36 1 28 16
M  V30 37 1 23 18
M  V30 38 1 1 33
M  V30 39 1 1 34
M  V30 40 1 3 35
M  V30 41 1 5 36
M  V30 42 1 8 37
M  V30 43 1 9 38
M  V30 44 1 11 39
M  V30 45 1 19 40
M  V30 46 1 20 41
M  V30 47 1 21 42
M  V30 48 1 22 43
M  V30 49 1 26 44
M  V30 50 1 27 45
M  V30 51 1 29 46
M  V30 52 1 31 47
M  V30 53 1 32 48
M  V30 END BOND
M  V30 END CTAB
M  END
>  <Dataset>  (609) 
ChEMBL_Kinases

>  <Ligand_Instance>  (609) 
nan

>  <PDB_ID>  (609) 
nan

>  <Standardized_SMILES>  (609) 
Nc1cncc(-c2ccc3[nH]nc(-c4nc5c(-c6ccccc6F)nccc5[nH]4)c3c2)c1

>  <Name>  (609) 
nan

>  <Pocket>  (609) 
nan

>  <ATP_Site>  (609) 
nan

>  <Peripheral>  (609) 
nan

>  <Num_H_Atoms_ProtBoundConf>  (609) 
nan

>  <Num_Resolved_Atoms>  (609) 
nan

>  <Num_Not_Resolved_Atoms>  (609) 
nan

$$$$
CHEMBL4761131
     RDKit          3D

  0  0  0  0  0  0  0  0  0  0999 V3000
M  V30 BEGIN CTAB
M  V30 COUNTS 40 44 0 0 0
M  V30 BEGIN ATOM
M  V30 1 C 0.580652 -3.467922 -0.027805 0
M  V30 2 C 2.052721 -3.497145 -0.198961 0
M  V30 3 C 2.827367 -4.615678 0.025053 0
M  V30 4 C 4.199258 -4.624447 -0.142215 0
M  V30 5 N 4.769586 -3.458851 -0.546134 0
M  V30 6 C 4.019631 -2.354425 -0.769126 0
M  V30 7 C 2.633709 -2.315455 -0.608709 0
M  V30 8 C 1.978262 -1.044099 -0.888419 0
M  V30 9 C 2.394846 -0.430144 -2.075619 0
M  V30 10 C 1.850559 0.790199 -2.462024 0
M  V30 11 C 0.900632 1.364780 -1.646490 0
M  V30 12 N 0.199668 2.500805 -1.726835 0
M  V30 13 N -0.598668 2.609111 -0.682543 0
M  V30 14 C -0.480257 1.561198 0.151129 0
M  V30 15 C -1.230264 1.407904 1.376627 0
M  V30 16 C -1.311283 0.483116 2.379129 0
M  V30 17 C -2.218958 0.830554 3.351676 0
M  V30 18 C -2.621786 0.219701 4.516254 0
M  V30 19 C -3.579446 0.854746 5.285180 0
M  V30 20 N -4.079743 2.023795 4.884718 0
M  V30 21 C -3.679624 2.612895 3.744875 0
M  V30 22 C -2.722973 2.030739 2.926728 0
M  V30 23 N -2.124130 2.332530 1.776347 0
M  V30 24 C 0.465943 0.787293 -0.468119 0
M  V30 25 C 1.023781 -0.405662 -0.127373 0
M  V30 26 H 0.268924 -3.231399 1.010703 0
M  V30 27 H 0.117570 -2.703263 -0.683510 0
M  V30 28 H 0.158574 -4.436715 -0.376152 0
M  V30 29 H 2.260677 -5.485488 0.343922 0
M  V30 30 H 4.681627 -5.551590 0.063233 0
M  V30 31 H 4.619671 -1.524306 -1.080774 0
M  V30 32 H 3.142014 -0.851427 -2.746444 0
M  V30 33 H 2.125092 1.312025 -3.356712 0
M  V30 34 H 0.215601 3.242706 -2.460533 0
M  V30 35 H -0.737093 -0.422902 2.421296 0
M  V30 36 H -2.192746 -0.712452 4.792247 0
M  V30 37 H -3.928299 0.426469 6.197209 0
M  V30 38 H -4.098715 3.549374 3.450433 0
M  V30 39 H -2.412900 3.240935 1.321377 0
M  V30 40 H 0.733999 -0.895951 0.762188 0
M  V30 END ATOM
M  V30 BEGIN BOND
M  V30 1 1 1 2
M  V30 2 2 2 3
M  V30 3 1 3 4
M  V30 4 2 4 5
M  V30 5 1 5 6
M  V30 6 2 6 7
M  V30 7 1 7 8
M  V30 8 2 8 9
M  V30 9 1 9 10
M  V30 10 2 10 11
M  V30 11 1 11 12
M  V30 12 1 12 13
M  V30 13 2 13 14
M  V30 14 1 14 15
M  V30 15 2 15 16
M  V30 16 1 16 17
M  V30 17 2 17 18
M  V30 18 1 18 19
M  V30 19 2 19 20
M  V30 20 1 20 21
M  V30 21 2 21 22
M  V30 22 1 22 23
M  V30 23 1 14 24
M  V30 24 2 24 25
M  V30 25 1 7 2
M  V30 26 1 25 8
M  V30 27 1 24 11
M  V30 28 1 23 15
M  V30 29 1 22 17
M  V30 30 1 1 26
M  V30 31 1 1 27
M  V30 32 1 1 28
M  V30 33 1 3 29
M  V30 34 1 4 30
M  V30 35 1 6 31
M  V30 36 1 9 32
M  V30 37 1 10 33
M  V30 38 1 12 34
M  V30 39 1 16 35
M  V30 40 1 18 36
M  V30 41 1 19 37
M  V30 42 1 21 38
M  V30 43 1 23 39
M  V30 44 1 25 40
M  V30 END BOND
M  V30 END CTAB
M  END
>  <Dataset>  (610) 
ChEMBL_Kinases

>  <Ligand_Instance>  (610) 
nan

>  <PDB_ID>  (610) 
nan

>  <Standardized_SMILES>  (610) 
Cc1ccncc1-c1ccc2[nH]nc(-c3cc4ccncc4[nH]3)c2c1

>  <Name>  (610) 
nan

>  <Pocket>  (610) 
nan

>  <ATP_Site>  (610) 
nan

>  <Peripheral>  (610) 
nan

>  <Num_H_Atoms_ProtBoundConf>  (610) 
nan

>  <Num_Resolved_Atoms>  (610) 
nan

>  <Num_Not_Resolved_Atoms>  (610) 
nan

$$$$
CHEMBL4761001
     RDKit          3D

  0  0  0  0  0  0  0  0  0  0999 V3000
M  V30 BEGIN CTAB
M  V30 COUNTS 78 81 0 0 0
M  V30 BEGIN ATOM
M  V30 1 C 8.504905 -2.017139 1.187940 0
M  V30 2 N 7.520311 -2.815124 0.485184 0
M  V30 3 C 6.431666 -3.078158 1.421582 0
M  V30 4 C 6.944859 -1.995219 -0.584618 0
M  V30 5 C 6.125122 -0.907778 0.011997 0
M  V30 6 C 4.854113 -0.810755 -0.266101 0
M  V30 7 C 3.935494 0.221874 0.262528 0
M  V30 8 O 2.701220 0.274335 -0.041819 0
M  V30 9 N 4.303846 1.266145 1.159896 0
M  V30 10 C 3.089803 1.999918 1.381248 0
M  V30 11 C 2.587289 3.084585 0.701553 0
M  V30 12 C 1.381616 3.631643 1.078541 0
M  V30 13 C 0.654680 3.120854 2.127067 0
M  V30 14 C -0.633672 3.625902 2.586649 0
M  V30 15 O -0.234496 4.671741 3.189574 0
M  V30 16 N -1.771146 2.817511 2.216414 0
M  V30 17 C -1.641356 1.598769 1.436334 0
M  V30 18 C -1.965773 0.463057 2.329331 0
M  V30 19 C -2.876391 0.724057 3.462543 0
M  V30 20 C -3.757867 1.939732 3.355388 0
M  V30 21 N -5.110127 1.558063 3.001269 0
M  V30 22 C -5.234786 0.975205 1.714372 0
M  V30 23 N -4.735268 0.696639 0.793816 0
M  V30 24 C -4.863325 0.140024 -0.354192 0
M  V30 25 C -6.165310 -0.274282 -0.469230 0
M  V30 26 S -6.732436 -1.086380 -1.919484 0
M  V30 27 C -6.401430 -2.878766 -1.867426 0
M  V30 28 C -4.928892 -3.125177 -1.915557 0
M  V30 29 N -4.116145 -3.210727 -0.857672 0
M  V30 30 C -2.842248 -3.439008 -1.292909 0
M  V30 31 C -2.978866 -3.479510 -2.683355 0
M  V30 32 C -1.883841 -3.700130 -3.674655 0
M  V30 33 C -2.438173 -3.766767 -5.073449 0
M  V30 34 C -1.010205 -2.447797 -3.615470 0
M  V30 35 C -1.048844 -4.907153 -3.401780 0
M  V30 36 O -4.238805 -3.288402 -3.007701 0
M  V30 37 S -6.918884 0.271524 1.193662 0
M  V30 38 C -3.175270 3.024873 2.514372 0
M  V30 39 C 1.167573 2.015519 2.820046 0
M  V30 40 C 2.382475 1.444487 2.458850 0
M  V30 41 H 9.515768 -2.413361 0.960185 0
M  V30 42 H 8.420425 -0.932796 0.949703 0
M  V30 43 H 8.351894 -2.109124 2.275975 0
M  V30 44 H 6.494948 -2.455006 2.325454 0
M  V30 45 H 6.562012 -4.149267 1.740371 0
M  V30 46 H 5.469685 -3.032972 0.884380 0
M  V30 47 H 7.725815 -1.542227 -1.218401 0
M  V30 48 H 6.305262 -2.617923 -1.247822 0
M  V30 49 H 6.550594 -0.185664 0.676114 0
M  V30 50 H 4.400597 -1.521545 -0.930238 0
M  V30 51 H 5.296952 1.313092 1.473269 0
M  V30 52 H 3.205205 3.420606 -0.093265 0
M  V30 53 H 0.994520 4.476944 0.546580 0
M  V30 54 H -2.175348 1.642738 0.474979 0
M  V30 55 H -0.547983 1.530543 1.155191 0
M  V30 56 H -2.313939 -0.385990 1.667535 0
M  V30 57 H -1.001879 0.049323 2.754540 0
M  V30 58 H -2.314290 0.740870 4.443949 0
M  V30 59 H -3.571455 -0.161729 3.559823 0
M  V30 60 H -3.850297 2.361737 4.386532 0
M  V30 61 H -5.962411 1.688100 3.623800 0
M  V30 62 H -4.046442 0.047667 -1.056432 0
M  V30 63 H -6.810094 -3.276207 -0.916542 0
M  V30 64 H -6.918222 -3.381167 -2.699402 0
M  V30 65 H -1.900188 -3.569116 -0.755487 0
M  V30 66 H -1.787232 -3.187976 -5.755057 0
M  V30 67 H -3.461262 -3.300931 -5.146391 0
M  V30 68 H -2.455028 -4.808033 -5.468322 0
M  V30 69 H -1.631475 -1.555237 -3.914088 0
M  V30 70 H -0.136306 -2.579096 -4.267847 0
M  V30 71 H -0.703327 -2.246654 -2.559471 0
M  V30 72 H -0.161932 -4.660109 -2.742595 0
M  V30 73 H -1.579021 -5.781002 -3.020600 0
M  V30 74 H -0.575051 -5.198339 -4.377658 0
M  V30 75 H -3.708844 3.057779 1.542318 0
M  V30 76 H -3.330416 4.050234 2.970171 0
M  V30 77 H 0.605186 1.596473 3.655497 0
M  V30 78 H 2.697016 0.586711 3.060435 0
M  V30 END ATOM
M  V30 BEGIN BOND
M  V30 1 1 1 2
M  V30 2 1 2 3
M  V30 3 1 2 4
M  V30 4 1 4 5
M  V30 5 2 5 6
M  V30 6 1 6 7
M  V30 7 2 7 8
M  V30 8 1 7 9
M  V30 9 1 9 10
M  V30 10 2 10 11
M  V30 11 1 11 12
M  V30 12 2 12 13
M  V30 13 1 13 14
M  V30 14 2 14 15
M  V30 15 1 14 16
M  V30 16 1 16 17
M  V30 17 1 17 18
M  V30 18 1 18 19
M  V30 19 1 19 20
M  V30 20 1 20 21
M  V30 21 1 21 22
M  V30 22 2 22 23
M  V30 23 1 23 24
M  V30 24 2 24 25
M  V30 25 1 25 26
M  V30 26 1 26 27
M  V30 27 1 27 28
M  V30 28 2 28 29
M  V30 29 1 29 30
M  V30 30 2 30 31
M  V30 31 1 31 32
M  V30 32 1 32 33
M  V30 33 1 32 34
M  V30 34 1 32 35
M  V30 35 1 31 36
M  V30 36 1 25 37
M  V30 37 1 20 38
M  V30 38 1 13 39
M  V30 39 2 39 40
M  V30 40 1 40 10
M  V30 41 1 38 16
M  V30 42 1 37 22
M  V30 43 1 36 28
M  V30 44 1 1 41
M  V30 45 1 1 42
M  V30 46 1 1 43
M  V30 47 1 3 44
M  V30 48 1 3 45
M  V30 49 1 3 46
M  V30 50 1 4 47
M  V30 51 1 4 48
M  V30 52 1 5 49
M  V30 53 1 6 50
M  V30 54 1 9 51
M  V30 55 1 11 52
M  V30 56 1 12 53
M  V30 57 1 17 54
M  V30 58 1 17 55
M  V30 59 1 18 56
M  V30 60 1 18 57
M  V30 61 1 19 58
M  V30 62 1 19 59
M  V30 63 1 20 60
M  V30 64 1 21 61
M  V30 65 1 24 62
M  V30 66 1 27 63
M  V30 67 1 27 64
M  V30 68 1 30 65
M  V30 69 1 33 66
M  V30 70 1 33 67
M  V30 71 1 33 68
M  V30 72 1 34 69
M  V30 73 1 34 70
M  V30 74 1 34 71
M  V30 75 1 35 72
M  V30 76 1 35 73
M  V30 77 1 35 74
M  V30 78 1 38 75
M  V30 79 1 38 76
M  V30 80 1 39 77
M  V30 81 1 40 78
M  V30 END BOND
M  V30 END CTAB
M  END
>  <Dataset>  (611) 
ChEMBL_Kinases

>  <Ligand_Instance>  (611) 
nan

>  <PDB_ID>  (611) 
nan

>  <Standardized_SMILES>  (611) 
CN(C)C/C=C/C(=O)Nc1ccc(C(=O)N2CCCC(Nc3ncc(SCc4ncc(C(C)(C)C)o4)s3)C2)cc1

>  <Name>  (611) 
nan

>  <Pocket>  (611) 
nan

>  <ATP_Site>  (611) 
nan

>  <Peripheral>  (611) 
nan

>  <Num_H_Atoms_ProtBoundConf>  (611) 
nan

>  <Num_Resolved_Atoms>  (611) 
nan

>  <Num_Not_Resolved_Atoms>  (611) 
nan

$$$$
CHEMBL4760982
     RDKit          3D

  0  0  0  0  0  0  0  0  0  0999 V3000
M  V30 BEGIN CTAB
M  V30 COUNTS 66 72 0 0 0
M  V30 BEGIN ATOM
M  V30 1 C 2.782916 1.600859 5.285594 0
M  V30 2 N 4.075438 2.190882 5.108814 0
M  V30 3 C 5.185184 1.314303 5.310273 0
M  V30 4 C 5.728468 0.739572 4.025540 0
M  V30 5 N 4.673726 0.777095 3.037226 0
M  V30 6 C 3.999024 -0.352971 2.502225 0
M  V30 7 C 4.327339 -1.589301 3.013974 0
M  V30 8 N 3.741267 -2.719675 2.577710 0
M  V30 9 C 2.787676 -2.731649 1.606676 0
M  V30 10 C 2.450179 -1.519001 1.089017 0
M  V30 11 N 1.592068 -1.085680 0.150692 0
M  V30 12 C 1.593780 0.221492 -0.035130 0
M  V30 13 C 0.899594 1.173424 -0.879967 0
M  V30 14 N 1.074600 2.523880 -0.895615 0
M  V30 15 N 0.302781 3.110815 -1.766358 0
M  V30 16 C -0.458111 2.212070 -2.412727 0
M  V30 17 C -1.416120 2.296695 -3.401013 0
M  V30 18 C -2.029322 1.148700 -3.860864 0
M  V30 19 C -1.653474 -0.059417 -3.304254 0
M  V30 20 C -2.355127 -1.222846 -3.851594 0
M  V30 21 C -1.693340 -2.433974 -3.902476 0
M  V30 22 N -2.358622 -3.488433 -4.409494 0
M  V30 23 C -3.631267 -3.372513 -4.855348 0
M  V30 24 C -4.341753 -2.196436 -4.831199 0
M  V30 25 N -5.674725 -2.095042 -5.301533 0
M  V30 26 C -6.445880 -3.185598 -5.849804 0
M  V30 27 C -7.717283 -3.300340 -5.031513 0
M  V30 28 O -7.709474 -2.421774 -3.953971 0
M  V30 29 C -7.628020 -1.096846 -4.365068 0
M  V30 30 C -6.448566 -0.873563 -5.292315 0
M  V30 31 C -3.653916 -1.125643 -4.311746 0
M  V30 32 C -0.691390 -0.107624 -2.317120 0
M  V30 33 C -0.068245 1.022616 -1.844610 0
M  V30 34 N 2.516859 0.639538 0.847401 0
M  V30 35 C 3.042485 -0.356627 1.527040 0
M  V30 36 C 4.444690 2.172576 2.715983 0
M  V30 37 C 4.195042 3.022643 3.945869 0
M  V30 38 H 2.309656 1.273179 4.331398 0
M  V30 39 H 2.042668 2.326384 5.723327 0
M  V30 40 H 2.832372 0.729793 5.952167 0
M  V30 41 H 4.865678 0.519405 6.013972 0
M  V30 42 H 5.989347 1.884763 5.850080 0
M  V30 43 H 6.163046 -0.253922 4.187458 0
M  V30 44 H 6.588866 1.407040 3.719478 0
M  V30 45 H 5.034297 -1.837560 3.773027 0
M  V30 46 H 2.288461 -3.599314 1.221682 0
M  V30 47 H 0.994904 -1.747505 -0.364258 0
M  V30 48 H 0.319144 4.147387 -1.898772 0
M  V30 49 H -1.626466 3.311021 -3.761341 0
M  V30 50 H -2.759319 1.346128 -4.633209 0
M  V30 51 H -0.677240 -2.565004 -3.555787 0
M  V30 52 H -4.039635 -4.285078 -5.231525 0
M  V30 53 H -5.914384 -4.135772 -5.931074 0
M  V30 54 H -6.763153 -2.841007 -6.878096 0
M  V30 55 H -7.732121 -4.330438 -4.607329 0
M  V30 56 H -8.613757 -3.161354 -5.638630 0
M  V30 57 H -8.580094 -0.733528 -4.787138 0
M  V30 58 H -7.427327 -0.502974 -3.432458 0
M  V30 59 H -6.852537 -0.743264 -6.341238 0
M  V30 60 H -5.893034 0.033378 -5.061280 0
M  V30 61 H -4.077758 -0.158554 -4.231664 0
M  V30 62 H -0.467871 -1.081969 -1.949467 0
M  V30 63 H 3.622735 2.328694 1.992883 0
M  V30 64 H 5.395030 2.536331 2.256869 0
M  V30 65 H 5.005882 3.734304 4.085987 0
M  V30 66 H 3.271384 3.614976 3.812531 0
M  V30 END ATOM
M  V30 BEGIN BOND
M  V30 1 1 1 2
M  V30 2 1 2 3
M  V30 3 1 3 4
M  V30 4 1 4 5
M  V30 5 1 5 6
M  V30 6 2 6 7
M  V30 7 1 7 8
M  V30 8 2 8 9
M  V30 9 1 9 10
M  V30 10 1 10 11
M  V30 11 1 11 12
M  V30 12 1 12 13
M  V30 13 2 13 14
M  V30 14 1 14 15
M  V30 15 1 15 16
M  V30 16 2 16 17
M  V30 17 1 17 18
M  V30 18 2 18 19
M  V30 19 1 19 20
M  V30 20 2 20 21
M  V30 21 1 21 22
M  V30 22 2 22 23
M  V30 23 1 23 24
M  V30 24 1 24 25
M  V30 25 1 25 26
M  V30 26 1 26 27
M  V30 27 1 27 28
M  V30 28 1 28 29
M  V30 29 1 29 30
M  V30 30 2 24 31
M  V30 31 1 19 32
M  V30 32 2 32 33
M  V30 33 2 12 34
M  V30 34 1 34 35
M  V30 35 1 5 36
M  V30 36 1 36 37
M  V30 37 1 37 2
M  V30 38 1 35 6
M  V30 39 2 35 10
M  V30 40 1 33 13
M  V30 41 1 33 16
M  V30 42 1 31 20
M  V30 43 1 30 25
M  V30 44 1 1 38
M  V30 45 1 1 39
M  V30 46 1 1 40
M  V30 47 1 3 41
M  V30 48 1 3 42
M  V30 49 1 4 43
M  V30 50 1 4 44
M  V30 51 1 7 45
M  V30 52 1 9 46
M  V30 53 1 11 47
M  V30 54 1 15 48
M  V30 55 1 17 49
M  V30 56 1 18 50
M  V30 57 1 21 51
M  V30 58 1 23 52
M  V30 59 1 26 53
M  V30 60 1 26 54
M  V30 61 1 27 55
M  V30 62 1 27 56
M  V30 63 1 29 57
M  V30 64 1 29 58
M  V30 65 1 30 59
M  V30 66 1 30 60
M  V30 67 1 31 61
M  V30 68 1 32 62
M  V30 69 1 36 63
M  V30 70 1 36 64
M  V30 71 1 37 65
M  V30 72 1 37 66
M  V30 END BOND
M  V30 END CTAB
M  END
>  <Dataset>  (612) 
ChEMBL_Kinases

>  <Ligand_Instance>  (612) 
nan

>  <PDB_ID>  (612) 
nan

>  <Standardized_SMILES>  (612) 
CN1CCN(c2cncc3[nH]c(-c4n[nH]c5ccc(-c6cncc(N7CCOCC7)c6)cc45)nc23)CC1

>  <Name>  (612) 
nan

>  <Pocket>  (612) 
nan

>  <ATP_Site>  (612) 
nan

>  <Peripheral>  (612) 
nan

>  <Num_H_Atoms_ProtBoundConf>  (612) 
nan

>  <Num_Resolved_Atoms>  (612) 
nan

>  <Num_Not_Resolved_Atoms>  (612) 
nan

$$$$
CHEMBL4760948
     RDKit          3D

  0  0  0  0  0  0  0  0  0  0999 V3000
M  V30 BEGIN CTAB
M  V30 COUNTS 48 53 0 0 0
M  V30 BEGIN ATOM
M  V30 1 N 2.860719 -3.312460 3.937356 0
M  V30 2 C 1.895642 -4.191331 3.386093 0
M  V30 3 C 1.969939 -5.535740 3.676901 0
M  V30 4 N 1.023402 -6.353930 3.129149 0
M  V30 5 C 0.059273 -5.830852 2.332903 0
M  V30 6 C -0.020719 -4.486038 2.038268 0
M  V30 7 C -1.035167 -3.874886 1.190411 0
M  V30 8 C -2.286025 -4.450914 1.184766 0
M  V30 9 N -3.252511 -3.899231 0.404289 0
M  V30 10 C -2.934061 -2.817642 -0.322272 0
M  V30 11 N -3.707354 -2.107995 -1.156650 0
M  V30 12 N -3.030516 -1.127149 -1.675822 0
M  V30 13 C -1.761032 -1.093918 -1.240746 0
M  V30 14 C -0.671539 -0.192876 -1.553878 0
M  V30 15 C -0.955540 0.853870 -2.443328 0
M  V30 16 C 0.120372 1.676318 -2.679390 0
M  V30 17 C 0.422292 2.796291 -3.418185 0
M  V30 18 C -0.662197 3.361439 -4.212885 0
M  V30 19 C -1.782895 3.644377 -3.434940 0
M  V30 20 C -2.947805 4.202969 -3.953500 0
M  V30 21 C -2.902424 4.454556 -5.305831 0
M  V30 22 C -1.832019 4.199600 -6.126375 0
M  V30 23 C -0.690942 3.645688 -5.585065 0
M  V30 24 F 0.456813 3.322008 -6.222350 0
M  V30 25 N 1.656435 3.320527 -3.378629 0
M  V30 26 C 2.602160 2.760611 -2.621531 0
M  V30 27 C 2.391050 1.636231 -1.846523 0
M  V30 28 C 1.122841 1.127401 -1.909997 0
M  V30 29 N 0.605287 0.057886 -1.288522 0
M  V30 30 C -1.701354 -2.168314 -0.380666 0
M  V30 31 C -0.755925 -2.763051 0.425987 0
M  V30 32 C 0.919667 -3.611860 2.571040 0
M  V30 33 H 2.333906 -2.916240 4.764913 0
M  V30 34 H 3.807119 -2.899389 3.900361 0
M  V30 35 H 2.777427 -5.865661 4.325730 0
M  V30 36 H -0.697306 -6.479627 1.894992 0
M  V30 37 H -2.561216 -5.322177 1.763206 0
M  V30 38 H -4.709208 -2.181208 -1.464058 0
M  V30 39 H -1.878878 1.115734 -2.968528 0
M  V30 40 H -1.847784 3.457383 -2.367637 0
M  V30 41 H -3.811240 4.419651 -3.341446 0
M  V30 42 H -3.776269 4.893514 -5.790943 0
M  V30 43 H -1.793933 4.396040 -7.186987 0
M  V30 44 H 3.561758 3.245224 -2.646661 0
M  V30 45 H 3.156062 1.186761 -1.236482 0
M  V30 46 H 1.108363 -0.569994 -0.637078 0
M  V30 47 H 0.214307 -2.347386 0.455658 0
M  V30 48 H 0.906071 -2.546148 2.373843 0
M  V30 END ATOM
M  V30 BEGIN BOND
M  V30 1 1 1 2
M  V30 2 2 2 3
M  V30 3 1 3 4
M  V30 4 2 4 5
M  V30 5 1 5 6
M  V30 6 1 6 7
M  V30 7 2 7 8
M  V30 8 1 8 9
M  V30 9 2 9 10
M  V30 10 1 10 11
M  V30 11 1 11 12
M  V30 12 2 12 13
M  V30 13 1 13 14
M  V30 14 2 14 15
M  V30 15 1 15 16
M  V30 16 2 16 17
M  V30 17 1 17 18
M  V30 18 2 18 19
M  V30 19 1 19 20
M  V30 20 2 20 21
M  V30 21 1 21 22
M  V30 22 2 22 23
M  V30 23 1 23 24
M  V30 24 1 17 25
M  V30 25 2 25 26
M  V30 26 1 26 27
M  V30 27 2 27 28
M  V30 28 1 28 29
M  V30 29 1 13 30
M  V30 30 2 30 31
M  V30 31 2 6 32
M  V30 32 1 32 2
M  V30 33 1 31 7
M  V30 34 1 30 10
M  V30 35 1 29 14
M  V30 36 1 28 16
M  V30 37 1 23 18
M  V30 38 1 1 33
M  V30 39 1 1 34
M  V30 40 1 3 35
M  V30 41 1 5 36
M  V30 42 1 8 37
M  V30 43 1 11 38
M  V30 44 1 15 39
M  V30 45 1 19 40
M  V30 46 1 20 41
M  V30 47 1 21 42
M  V30 48 1 22 43
M  V30 49 1 26 44
M  V30 50 1 27 45
M  V30 51 1 29 46
M  V30 52 1 31 47
M  V30 53 1 32 48
M  V30 END BOND
M  V30 END CTAB
M  END
>  <Dataset>  (613) 
ChEMBL_Kinases

>  <Ligand_Instance>  (613) 
nan

>  <PDB_ID>  (613) 
nan

>  <Standardized_SMILES>  (613) 
Nc1cncc(-c2cnc3[nH]nc(-c4cc5c(-c6ccccc6F)nccc5[nH]4)c3c2)c1

>  <Name>  (613) 
nan

>  <Pocket>  (613) 
nan

>  <ATP_Site>  (613) 
nan

>  <Peripheral>  (613) 
nan

>  <Num_H_Atoms_ProtBoundConf>  (613) 
nan

>  <Num_Resolved_Atoms>  (613) 
nan

>  <Num_Not_Resolved_Atoms>  (613) 
nan

$$$$
CHEMBL4760946
     RDKit          3D

  0  0  0  0  0  0  0  0  0  0999 V3000
M  V30 BEGIN CTAB
M  V30 COUNTS 74 80 0 0 0
M  V30 BEGIN ATOM
M  V30 1 C 4.104369 0.117465 0.957102 0
M  V30 2 S 3.225805 -0.498273 2.349114 0
M  V30 3 O 2.358963 -1.668170 1.915718 0
M  V30 4 O 4.212260 -1.050108 3.337842 0
M  V30 5 N 2.255032 0.734564 3.074097 0
M  V30 6 C 1.307253 1.145820 2.061092 0
M  V30 7 C 0.378491 2.209775 2.507302 0
M  V30 8 C 0.630137 3.555814 2.379976 0
M  V30 9 C -0.304161 4.496101 2.826891 0
M  V30 10 F -0.017836 5.820057 2.683168 0
M  V30 11 C -1.488431 4.064283 3.400341 0
M  V30 12 C -1.786898 2.712091 3.550131 0
M  V30 13 C -3.044859 2.296885 4.161953 0
M  V30 14 N -3.509016 2.849134 5.296487 0
M  V30 15 C -4.668685 2.470819 5.859513 0
M  V30 16 C -5.490620 1.494191 5.343045 0
M  V30 17 C -5.048140 0.892087 4.163619 0
M  V30 18 N -5.592747 -0.077392 3.400086 0
M  V30 19 C -4.788898 -0.322820 2.350067 0
M  V30 20 C -5.034451 -1.304119 1.296166 0
M  V30 21 N -6.116937 -2.100796 1.242603 0
M  V30 22 N -6.035207 -2.880092 0.155629 0
M  V30 23 C -4.870171 -2.550634 -0.472845 0
M  V30 24 C -4.258070 -3.018175 -1.634546 0
M  V30 25 C -3.056992 -2.484664 -2.028958 0
M  V30 26 C -2.401868 -1.492056 -1.332623 0
M  V30 27 C -1.129229 -0.897960 -1.710200 0
M  V30 28 C -0.629688 0.085143 -0.882913 0
M  V30 29 N 0.557069 0.682972 -1.174986 0
M  V30 30 C 1.277115 0.333029 -2.277936 0
M  V30 31 C 0.767880 -0.655703 -3.103902 0
M  V30 32 N 1.553741 -0.985778 -4.237274 0
M  V30 33 C 2.443790 -2.026029 -3.876543 0
M  V30 34 O 2.780785 -2.760831 -2.899873 0
M  V30 35 C 3.461951 -2.693162 -4.753349 0
M  V30 36 C 4.186725 -3.727756 -4.007597 0
M  V30 37 C 5.331286 -3.561615 -3.288584 0
M  V30 38 C 5.901983 -4.652733 -2.630119 0
M  V30 39 C 5.318667 -5.887137 -2.702595 0
M  V30 40 C 4.167009 -6.070846 -3.421878 0
M  V30 41 C 3.594988 -4.990834 -4.078455 0
M  V30 42 C -0.432486 -1.281494 -2.836075 0
M  V30 43 N -3.020374 -1.066650 -0.220357 0
M  V30 44 C -4.203764 -1.550804 0.222106 0
M  V30 45 C -3.719921 0.537225 2.494469 0
M  V30 46 C -3.854373 1.313971 3.625912 0
M  V30 47 C -0.818663 1.847325 3.086886 0
M  V30 48 H 5.119990 -0.326547 0.890145 0
M  V30 49 H 3.587249 -0.181045 0.009681 0
M  V30 50 H 4.189654 1.203468 1.024275 0
M  V30 51 H 2.881589 1.545591 3.270143 0
M  V30 52 H 1.892074 1.464732 1.170972 0
M  V30 53 H 0.679927 0.270140 1.763221 0
M  V30 54 H 1.559447 3.877867 1.930364 0
M  V30 55 H -2.231506 4.788641 3.755730 0
M  V30 56 H -4.993555 2.960342 6.786820 0
M  V30 57 H -6.421889 1.181640 5.783376 0
M  V30 58 H -6.495811 -0.567635 3.585731 0
M  V30 59 H -6.690570 -3.616652 -0.206828 0
M  V30 60 H -4.731464 -3.782235 -2.198344 0
M  V30 61 H -2.595174 -2.856777 -2.931385 0
M  V30 62 H -1.080929 0.457392 0.007616 0
M  V30 63 H 2.234026 0.823325 -2.502501 0
M  V30 64 H 1.661903 -0.688239 -5.237979 0
M  V30 65 H 3.006323 -3.084314 -5.662494 0
M  V30 66 H 4.187665 -1.903193 -5.090434 0
M  V30 67 H 5.755357 -2.569067 -3.260254 0
M  V30 68 H 6.804219 -4.478196 -2.075430 0
M  V30 69 H 5.761791 -6.731732 -2.191866 0
M  V30 70 H 3.723018 -7.066912 -3.462426 0
M  V30 71 H 2.695852 -5.227048 -4.616466 0
M  V30 72 H -0.814196 -2.049832 -3.489867 0
M  V30 73 H -2.916617 0.547893 1.773784 0
M  V30 74 H -1.024974 0.791069 3.196172 0
M  V30 END ATOM
M  V30 BEGIN BOND
M  V30 1 1 1 2
M  V30 2 2 2 3
M  V30 3 2 2 4
M  V30 4 1 2 5
M  V30 5 1 5 6
M  V30 6 1 6 7
M  V30 7 2 7 8
M  V30 8 1 8 9
M  V30 9 1 9 10
M  V30 10 2 9 11
M  V30 11 1 11 12
M  V30 12 1 12 13
M  V30 13 2 13 14
M  V30 14 1 14 15
M  V30 15 2 15 16
M  V30 16 1 16 17
M  V30 17 1 17 18
M  V30 18 1 18 19
M  V30 19 1 19 20
M  V30 20 2 20 21
M  V30 21 1 21 22
M  V30 22 1 22 23
M  V30 23 2 23 24
M  V30 24 1 24 25
M  V30 25 2 25 26
M  V30 26 1 26 27
M  V30 27 2 27 28
M  V30 28 1 28 29
M  V30 29 2 29 30
M  V30 30 1 30 31
M  V30 31 1 31 32
M  V30 32 1 32 33
M  V30 33 2 33 34
M  V30 34 1 33 35
M  V30 35 1 35 36
M  V30 36 2 36 37
M  V30 37 1 37 38
M  V30 38 2 38 39
M  V30 39 1 39 40
M  V30 40 2 40 41
M  V30 41 2 31 42
M  V30 42 1 26 43
M  V30 43 2 43 44
M  V30 44 2 19 45
M  V30 45 1 45 46
M  V30 46 2 12 47
M  V30 47 1 47 7
M  V30 48 1 46 13
M  V30 49 2 46 17
M  V30 50 1 44 20
M  V30 51 1 44 23
M  V30 52 1 42 27
M  V30 53 1 41 36
M  V30 54 1 1 48
M  V30 55 1 1 49
M  V30 56 1 1 50
M  V30 57 1 5 51
M  V30 58 1 6 52
M  V30 59 1 6 53
M  V30 60 1 8 54
M  V30 61 1 11 55
M  V30 62 1 15 56
M  V30 63 1 16 57
M  V30 64 1 18 58
M  V30 65 1 22 59
M  V30 66 1 24 60
M  V30 67 1 25 61
M  V30 68 1 28 62
M  V30 69 1 30 63
M  V30 70 1 32 64
M  V30 71 1 35 65
M  V30 72 1 35 66
M  V30 73 1 37 67
M  V30 74 1 38 68
M  V30 75 1 39 69
M  V30 76 1 40 70
M  V30 77 1 41 71
M  V30 78 1 42 72
M  V30 79 1 45 73
M  V30 80 1 47 74
M  V30 END BOND
M  V30 END CTAB
M  END
>  <Dataset>  (614) 
ChEMBL_Kinases

>  <Ligand_Instance>  (614) 
nan

>  <PDB_ID>  (614) 
nan

>  <Standardized_SMILES>  (614) 
CS(=O)(=O)NCc1cc(F)cc(-c2nccc3[nH]c(-c4n[nH]c5ccc(-c6cncc(NC(=O)Cc7ccccc7)c6)nc45)cc23)c1

>  <Name>  (614) 
nan

>  <Pocket>  (614) 
nan

>  <ATP_Site>  (614) 
nan

>  <Peripheral>  (614) 
nan

>  <Num_H_Atoms_ProtBoundConf>  (614) 
nan

>  <Num_Resolved_Atoms>  (614) 
nan

>  <Num_Not_Resolved_Atoms>  (614) 
nan

$$$$
CHEMBL4761624
     RDKit          3D

  0  0  0  0  0  0  0  0  0  0999 V3000
M  V30 BEGIN CTAB
M  V30 COUNTS 65 71 0 0 0
M  V30 BEGIN ATOM
M  V30 1 F 6.200597 2.153705 4.070696 0
M  V30 2 C 6.172487 1.020888 3.281701 0
M  V30 3 F 6.089151 -0.123388 4.052591 0
M  V30 4 C 7.427926 0.991059 2.453065 0
M  V30 5 C 6.965320 1.208344 1.025135 0
M  V30 6 N 5.619043 0.666088 1.037722 0
M  V30 7 C 4.927758 1.205025 -0.117846 0
M  V30 8 C 3.546668 0.658023 -0.129095 0
M  V30 9 C 3.355105 -0.542788 -0.815109 0
M  V30 10 N 2.121946 -1.079134 -0.855345 0
M  V30 11 C 1.077450 -0.484216 -0.251238 0
M  V30 12 C 1.206384 0.702241 0.440554 0
M  V30 13 C 0.127109 1.412153 1.122141 0
M  V30 14 C -1.172109 0.950361 1.141385 0
M  V30 15 C -2.206875 1.603705 1.777933 0
M  V30 16 C -3.554952 1.350497 1.935330 0
M  V30 17 C -4.299670 0.211072 1.414302 0
M  V30 18 N -3.803888 -0.800724 0.684531 0
M  V30 19 C -4.738838 -1.680438 0.365489 0
M  V30 20 C -4.727234 -2.855987 -0.351760 0
M  V30 21 N -3.573912 -3.403099 -0.951480 0
M  V30 22 C -3.720207 -4.655201 -1.669518 0
M  V30 23 C -2.488190 -5.133452 -2.350586 0
M  V30 24 C -1.982075 -4.001532 -3.236842 0
M  V30 25 C -1.630233 -2.829259 -2.360442 0
M  V30 26 C -2.234128 -2.931879 -0.983053 0
M  V30 27 C -5.950890 -3.483806 -0.450607 0
M  V30 28 N -7.058805 -3.005670 0.096029 0
M  V30 29 C -7.080460 -1.862677 0.795776 0
M  V30 30 C -5.898888 -1.171595 0.942822 0
M  V30 31 N -5.613563 -0.018660 1.578021 0
M  V30 32 N -4.089934 2.344758 2.663666 0
M  V30 33 N -3.127126 3.226584 2.977701 0
M  V30 34 C -1.968418 2.778355 2.437390 0
M  V30 35 C -0.662015 3.214290 2.400795 0
M  V30 36 N 0.334778 2.568744 1.777804 0
M  V30 37 C 2.468706 1.258639 0.486242 0
M  V30 38 C 5.021795 1.088306 2.275671 0
M  V30 39 H 8.092850 1.820527 2.694090 0
M  V30 40 H 7.982519 0.030429 2.520523 0
M  V30 41 H 6.920684 2.288158 0.769703 0
M  V30 42 H 7.596868 0.612070 0.337562 0
M  V30 43 H 4.862708 2.314204 -0.065098 0
M  V30 44 H 5.417449 0.936770 -1.054206 0
M  V30 45 H 4.131693 -1.104432 -1.336958 0
M  V30 46 H 0.092051 -0.927566 -0.292397 0
M  V30 47 H -1.436994 0.032904 0.644309 0
M  V30 48 H -4.532747 -4.608167 -2.442267 0
M  V30 49 H -4.030431 -5.446733 -0.940536 0
M  V30 50 H -2.773226 -5.939302 -3.057210 0
M  V30 51 H -1.664902 -5.411882 -1.680090 0
M  V30 52 H -1.069020 -4.377888 -3.737593 0
M  V30 53 H -2.700060 -3.733409 -4.012221 0
M  V30 54 H -0.526841 -2.798168 -2.259971 0
M  V30 55 H -1.927880 -1.909329 -2.904530 0
M  V30 56 H -2.156481 -1.912617 -0.560530 0
M  V30 57 H -1.614286 -3.665687 -0.394595 0
M  V30 58 H -6.063431 -4.429564 -0.999407 0
M  V30 59 H -8.027647 -1.546237 1.206940 0
M  V30 60 H -6.284144 0.586047 2.100505 0
M  V30 61 H -3.146164 4.127692 3.530216 0
M  V30 62 H -0.421290 4.147077 2.912616 0
M  V30 63 H 2.622118 2.183771 1.013013 0
M  V30 64 H 4.669236 2.149244 2.260464 0
M  V30 65 H 4.226492 0.424951 2.640886 0
M  V30 END ATOM
M  V30 BEGIN BOND
M  V30 1 1 1 2
M  V30 2 1 2 3
M  V30 3 1 2 4
M  V30 4 1 4 5
M  V30 5 1 5 6
M  V30 6 1 6 7
M  V30 7 1 7 8
M  V30 8 2 8 9
M  V30 9 1 9 10
M  V30 10 2 10 11
M  V30 11 1 11 12
M  V30 12 1 12 13
M  V30 13 2 13 14
M  V30 14 1 14 15
M  V30 15 1 15 16
M  V30 16 1 16 17
M  V30 17 2 17 18
M  V30 18 1 18 19
M  V30 19 2 19 20
M  V30 20 1 20 21
M  V30 21 1 21 22
M  V30 22 1 22 23
M  V30 23 1 23 24
M  V30 24 1 24 25
M  V30 25 1 25 26
M  V30 26 1 20 27
M  V30 27 2 27 28
M  V30 28 1 28 29
M  V30 29 2 29 30
M  V30 30 1 30 31
M  V30 31 2 16 32
M  V30 32 1 32 33
M  V30 33 1 33 34
M  V30 34 1 34 35
M  V30 35 2 35 36
M  V30 36 2 12 37
M  V30 37 1 6 38
M  V30 38 1 38 2
M  V30 39 1 37 8
M  V30 40 1 36 13
M  V30 41 2 34 15
M  V30 42 1 31 17
M  V30 43 1 30 19
M  V30 44 1 26 21
M  V30 45 1 4 39
M  V30 46 1 4 40
M  V30 47 1 5 41
M  V30 48 1 5 42
M  V30 49 1 7 43
M  V30 50 1 7 44
M  V30 51 1 9 45
M  V30 52 1 11 46
M  V30 53 1 14 47
M  V30 54 1 22 48
M  V30 55 1 22 49
M  V30 56 1 23 50
M  V30 57 1 23 51
M  V30 58 1 24 52
M  V30 59 1 24 53
M  V30 60 1 25 54
M  V30 61 1 25 55
M  V30 62 1 26 56
M  V30 63 1 26 57
M  V30 64 1 27 58
M  V30 65 1 29 59
M  V30 66 1 31 60
M  V30 67 1 33 61
M  V30 68 1 35 62
M  V30 69 1 37 63
M  V30 70 1 38 64
M  V30 71 1 38 65
M  V30 END BOND
M  V30 END CTAB
M  END
>  <Dataset>  (615) 
ChEMBL_Kinases

>  <Ligand_Instance>  (615) 
nan

>  <PDB_ID>  (615) 
nan

>  <Standardized_SMILES>  (615) 
FC1(F)CCN(Cc2cncc(-c3cc4c(-c5nc6c(N7CCCCC7)cncc6[nH]5)n[nH]c4cn3)c2)C1

>  <Name>  (615) 
nan

>  <Pocket>  (615) 
nan

>  <ATP_Site>  (615) 
nan

>  <Peripheral>  (615) 
nan

>  <Num_H_Atoms_ProtBoundConf>  (615) 
nan

>  <Num_Resolved_Atoms>  (615) 
nan

>  <Num_Not_Resolved_Atoms>  (615) 
nan

$$$$
CHEMBL4757524
     RDKit          3D

  0  0  0  0  0  0  0  0  0  0999 V3000
M  V30 BEGIN CTAB
M  V30 COUNTS 58 63 0 0 0
M  V30 BEGIN ATOM
M  V30 1 C 5.616119 1.262503 3.876824 0
M  V30 2 N 6.621652 1.526885 2.899876 0
M  V30 3 C 7.543372 0.471927 2.638769 0
M  V30 4 C 6.208824 2.297819 1.770009 0
M  V30 5 C 5.129157 1.719615 0.964982 0
M  V30 6 C 5.446146 0.897355 -0.098000 0
M  V30 7 N 4.484993 0.328861 -0.882747 0
M  V30 8 C 3.177550 0.559736 -0.635818 0
M  V30 9 C 2.805212 1.374671 0.415133 0
M  V30 10 C 1.383694 1.585100 0.630534 0
M  V30 11 C 1.030850 2.801979 1.157839 0
M  V30 12 C -0.314337 3.033986 1.375087 0
M  V30 13 C -1.243017 2.062920 1.064795 0
M  V30 14 N -2.581618 1.993891 1.159150 0
M  V30 15 N -3.008341 0.836678 0.727318 0
M  V30 16 C -1.986567 0.040808 0.310008 0
M  V30 17 C -2.124254 -1.301216 -0.223656 0
M  V30 18 C -3.359477 -1.909245 -0.357088 0
M  V30 19 C -3.240327 -3.173267 -0.881941 0
M  V30 20 C -4.105463 -4.192417 -1.219101 0
M  V30 21 C -5.537176 -4.025484 -1.019834 0
M  V30 22 C -6.172395 -3.546038 0.079959 0
M  V30 23 C -7.538607 -3.414625 0.186010 0
M  V30 24 C -8.347700 -3.782013 -0.868574 0
M  V30 25 C -7.732006 -4.275117 -2.005327 0
M  V30 26 F -8.569480 -4.619252 -3.005685 0
M  V30 27 C -6.365110 -4.396330 -2.085971 0
M  V30 28 N -3.665797 -5.370415 -1.742012 0
M  V30 29 C -2.350136 -5.533726 -1.930164 0
M  V30 30 C -1.435847 -4.553218 -1.612880 0
M  V30 31 C -1.893140 -3.365492 -1.084585 0
M  V30 32 N -1.298050 -2.234552 -0.679376 0
M  V30 33 C -0.896929 0.849574 0.539427 0
M  V30 34 C 0.435752 0.630589 0.328707 0
M  V30 35 C 3.790642 1.951440 1.211755 0
M  V30 36 H 4.632557 1.015514 3.446233 0
M  V30 37 H 5.954562 0.375541 4.486146 0
M  V30 38 H 5.590770 2.112795 4.598314 0
M  V30 39 H 7.417252 -0.317128 3.437837 0
M  V30 40 H 7.407595 -0.056128 1.675989 0
M  V30 41 H 8.617855 0.753392 2.702558 0
M  V30 42 H 5.970071 3.321014 2.111303 0
M  V30 43 H 7.129465 2.415801 1.129592 0
M  V30 44 H 6.448053 0.631337 -0.405559 0
M  V30 45 H 2.461536 0.078145 -1.296377 0
M  V30 46 H 1.687452 3.615943 1.428871 0
M  V30 47 H -0.734124 3.953909 1.787599 0
M  V30 48 H -3.239998 2.720345 1.515083 0
M  V30 49 H -4.337165 -1.507019 -0.106664 0
M  V30 50 H -5.569751 -3.260689 0.908978 0
M  V30 51 H -7.973424 -3.023111 1.097409 0
M  V30 52 H -9.419433 -3.664203 -0.748738 0
M  V30 53 H -5.950271 -4.789746 -3.005513 0
M  V30 54 H -1.894999 -6.445018 -2.345530 0
M  V30 55 H -0.379112 -4.678539 -1.761357 0
M  V30 56 H -0.271017 -2.142647 -0.736449 0
M  V30 57 H 0.795752 -0.271767 -0.071404 0
M  V30 58 H 3.492791 2.590477 2.035520 0
M  V30 END ATOM
M  V30 BEGIN BOND
M  V30 1 1 1 2
M  V30 2 1 2 3
M  V30 3 1 2 4
M  V30 4 1 4 5
M  V30 5 2 5 6
M  V30 6 1 6 7
M  V30 7 2 7 8
M  V30 8 1 8 9
M  V30 9 1 9 10
M  V30 10 2 10 11
M  V30 11 1 11 12
M  V30 12 2 12 13
M  V30 13 1 13 14
M  V30 14 1 14 15
M  V30 15 2 15 16
M  V30 16 1 16 17
M  V30 17 2 17 18
M  V30 18 1 18 19
M  V30 19 2 19 20
M  V30 20 1 20 21
M  V30 21 2 21 22
M  V30 22 1 22 23
M  V30 23 2 23 24
M  V30 24 1 24 25
M  V30 25 1 25 26
M  V30 26 2 25 27
M  V30 27 1 20 28
M  V30 28 2 28 29
M  V30 29 1 29 30
M  V30 30 2 30 31
M  V30 31 1 31 32
M  V30 32 1 16 33
M  V30 33 2 33 34
M  V30 34 2 9 35
M  V30 35 1 35 5
M  V30 36 1 34 10
M  V30 37 1 33 13
M  V30 38 1 32 17
M  V30 39 1 31 19
M  V30 40 1 27 21
M  V30 41 1 1 36
M  V30 42 1 1 37
M  V30 43 1 1 38
M  V30 44 1 3 39
M  V30 45 1 3 40
M  V30 46 1 3 41
M  V30 47 1 4 42
M  V30 48 1 4 43
M  V30 49 1 6 44
M  V30 50 1 8 45
M  V30 51 1 11 46
M  V30 52 1 12 47
M  V30 53 1 14 48
M  V30 54 1 18 49
M  V30 55 1 22 50
M  V30 56 1 23 51
M  V30 57 1 24 52
M  V30 58 1 27 53
M  V30 59 1 29 54
M  V30 60 1 30 55
M  V30 61 1 32 56
M  V30 62 1 34 57
M  V30 63 1 35 58
M  V30 END BOND
M  V30 END CTAB
M  END
>  <Dataset>  (616) 
ChEMBL_Kinases

>  <Ligand_Instance>  (616) 
nan

>  <PDB_ID>  (616) 
nan

>  <Standardized_SMILES>  (616) 
CN(C)Cc1cncc(-c2ccc3[nH]nc(-c4cc5c(-c6cccc(F)c6)nccc5[nH]4)c3c2)c1

>  <Name>  (616) 
nan

>  <Pocket>  (616) 
nan

>  <ATP_Site>  (616) 
nan

>  <Peripheral>  (616) 
nan

>  <Num_H_Atoms_ProtBoundConf>  (616) 
nan

>  <Num_Resolved_Atoms>  (616) 
nan

>  <Num_Not_Resolved_Atoms>  (616) 
nan

$$$$
CHEMBL4288105
     RDKit          3D

  0  0  0  0  0  0  0  0  0  0999 V3000
M  V30 BEGIN CTAB
M  V30 COUNTS 58 64 0 0 0
M  V30 BEGIN ATOM
M  V30 1 C -0.925412 -2.332928 -3.497046 0
M  V30 2 C -0.513264 -0.949239 -3.008889 0 CFG=2
M  V30 3 O -0.002977 -0.998214 -1.728117 0
M  V30 4 C -0.122586 0.237814 -1.123576 0 CFG=1
M  V30 5 N 0.740616 0.212943 0.037596 0
M  V30 6 C 1.913613 0.792087 0.355752 0
M  V30 7 C 2.663438 1.621215 -0.454898 0
M  V30 8 C 3.872414 2.179505 -0.052184 0
M  V30 9 C 4.346357 1.884308 1.233855 0
M  V30 10 O 5.561210 2.415618 1.704111 0
M  V30 11 C 3.552551 1.050941 1.993438 0
M  V30 12 C 2.370909 0.498719 1.614135 0
M  V30 13 C 1.399933 -0.327875 2.104575 0
M  V30 14 C 1.308899 -0.946052 3.321816 0
M  V30 15 C 0.254552 -1.760803 3.662750 0
M  V30 16 C -0.757758 -1.961897 2.727537 0
M  V30 17 C -1.911281 -2.720924 2.785880 0
M  V30 18 C -2.466630 -3.523371 3.762615 0
M  V30 19 C -3.655657 -4.193158 3.576842 0
M  V30 20 C -4.271006 -4.021712 2.355268 0
M  V30 21 C -3.712163 -3.220063 1.384945 0
M  V30 22 C -2.523643 -2.547467 1.563933 0
M  V30 23 N -1.739590 -1.723037 0.853485 0
M  V30 24 C -0.639502 -1.326177 1.509907 0
M  V30 25 C 0.415939 -0.502566 1.155421 0
M  V30 26 C 0.343153 -2.334864 5.045509 0
M  V30 27 N 1.579184 -1.799186 5.520038 0
M  V30 28 C 2.133174 -0.982880 4.506019 0
M  V30 29 O 3.209559 -0.462803 4.829791 0
M  V30 30 C 0.158688 1.302232 -2.129994 0
M  V30 31 C -1.144527 1.398033 -2.977476 0 CFG=1
M  V30 32 N -0.885775 2.049221 -4.210640 0
M  V30 33 C -1.679274 0.008062 -3.058450 0 CFG=1
M  V30 34 O -2.377889 -0.127709 -4.266726 0
M  V30 35 H -0.461195 -3.101826 -2.839576 0
M  V30 36 H -0.593377 -2.545782 -4.523507 0
M  V30 37 H -2.020239 -2.458941 -3.417205 0
M  V30 38 H 0.270092 -0.604755 -3.745551 0
M  V30 39 H -1.182782 0.399562 -0.766850 0
M  V30 40 H 2.475605 1.953415 -1.455337 0
M  V30 41 H 4.510060 2.843369 -0.650466 0
M  V30 42 H 6.436201 2.207646 1.224087 0
M  V30 43 H 3.960323 0.864956 2.950577 0
M  V30 44 H -1.990472 -3.661737 4.717755 0
M  V30 45 H -4.065764 -4.814140 4.359902 0
M  V30 46 H -5.214570 -4.521632 2.139230 0
M  V30 47 H -4.228371 -3.110915 0.435457 0
M  V30 48 H -2.069542 -1.505646 -0.092848 0
M  V30 49 H -0.529297 -2.023321 5.659108 0
M  V30 50 H 0.426020 -3.429669 4.925852 0
M  V30 51 H 1.832004 -2.095728 6.481756 0
M  V30 52 H 0.958456 1.036508 -2.858421 0
M  V30 53 H 0.236752 2.331102 -1.723559 0
M  V30 54 H -1.838208 2.007549 -2.358820 0
M  V30 55 H 0.089701 2.153979 -4.499929 0
M  V30 56 H -1.571947 1.769195 -4.914993 0
M  V30 57 H -2.381063 -0.249512 -2.230945 0
M  V30 58 H -1.799035 -0.369302 -5.025674 0
M  V30 END ATOM
M  V30 BEGIN BOND
M  V30 1 1 1 2
M  V30 2 1 2 3
M  V30 3 1 3 4
M  V30 4 1 4 5
M  V30 5 1 5 6
M  V30 6 2 6 7
M  V30 7 1 7 8
M  V30 8 2 8 9
M  V30 9 1 9 10
M  V30 10 1 9 11
M  V30 11 2 11 12
M  V30 12 1 12 13
M  V30 13 2 13 14
M  V30 14 1 14 15
M  V30 15 2 15 16
M  V30 16 1 16 17
M  V30 17 2 17 18
M  V30 18 1 18 19
M  V30 19 2 19 20
M  V30 20 1 20 21
M  V30 21 2 21 22
M  V30 22 1 22 23
M  V30 23 1 23 24
M  V30 24 2 24 25
M  V30 25 1 15 26
M  V30 26 1 26 27
M  V30 27 1 27 28
M  V30 28 2 28 29
M  V30 29 1 4 30
M  V30 30 1 30 31
M  V30 31 1 31 32
M  V30 32 1 31 33
M  V30 33 1 33 34
M  V30 34 1 33 2
M  V30 35 1 25 5
M  V30 36 1 12 6
M  V30 37 1 25 13
M  V30 38 1 28 14
M  V30 39 1 24 16
M  V30 40 1 22 17
M  V30 41 1 1 35
M  V30 42 1 1 36
M  V30 43 1 1 37
M  V30 44 1 2 38 CFG=3
M  V30 45 1 4 39 CFG=1
M  V30 46 1 7 40
M  V30 47 1 8 41
M  V30 48 1 10 42
M  V30 49 1 11 43
M  V30 50 1 18 44
M  V30 51 1 19 45
M  V30 52 1 20 46
M  V30 53 1 21 47
M  V30 54 1 23 48
M  V30 55 1 26 49
M  V30 56 1 26 50
M  V30 57 1 27 51
M  V30 58 1 30 52
M  V30 59 1 30 53
M  V30 60 1 31 54 CFG=1
M  V30 61 1 32 55
M  V30 62 1 32 56
M  V30 63 1 33 57 CFG=1
M  V30 64 1 34 58
M  V30 END BOND
M  V30 END CTAB
M  END
>  <Dataset>  (617) 
ChEMBL_Kinases

>  <Ligand_Instance>  (617) 
nan

>  <PDB_ID>  (617) 
nan

>  <Standardized_SMILES>  (617) 
C[C@@H]1O[C@@H](n2c3ccc(O)cc3c3c4c(c5c6ccccc6[nH]c5c32)CNC4=O)C[C@@H](N)[C@H]1O

>  <Name>  (617) 
nan

>  <Pocket>  (617) 
nan

>  <ATP_Site>  (617) 
nan

>  <Peripheral>  (617) 
nan

>  <Num_H_Atoms_ProtBoundConf>  (617) 
nan

>  <Num_Resolved_Atoms>  (617) 
nan

>  <Num_Not_Resolved_Atoms>  (617) 
nan

$$$$
CHEMBL4757486
     RDKit          3D

  0  0  0  0  0  0  0  0  0  0999 V3000
M  V30 BEGIN CTAB
M  V30 COUNTS 54 59 0 0 0
M  V30 BEGIN ATOM
M  V30 1 C -0.913644 -2.418111 4.032008 0
M  V30 2 N -0.770660 -3.559190 3.149676 0
M  V30 3 C 0.462933 -4.270345 3.375660 0
M  V30 4 C 1.254068 -4.439309 2.084361 0
M  V30 5 N 1.441065 -3.177275 1.439780 0
M  V30 6 C 2.679645 -2.574686 1.088972 0
M  V30 7 C 3.874557 -3.194443 1.388250 0
M  V30 8 N 5.098810 -2.689324 1.093440 0
M  V30 9 C 5.212936 -1.489231 0.457699 0
M  V30 10 C 4.027996 -0.823944 0.134051 0
M  V30 11 N 3.769751 0.346366 -0.478522 0
M  V30 12 C 2.437665 0.571468 -0.567370 0
M  V30 13 C 1.854708 1.760444 -1.181500 0
M  V30 14 N 2.612396 2.737278 -1.712634 0
M  V30 15 N 1.847547 3.695920 -2.203035 0
M  V30 16 C 0.584883 3.298747 -1.967621 0
M  V30 17 C -0.629408 3.926083 -2.274923 0
M  V30 18 C -1.775957 3.256435 -1.899003 0
M  V30 19 C -1.811048 2.038518 -1.255454 0
M  V30 20 C -3.057019 1.392209 -0.891984 0
M  V30 21 C -4.284359 1.937134 -1.155371 0
M  V30 22 N -5.481241 1.381182 -0.841706 0
M  V30 23 C -5.526460 0.172124 -0.206496 0
M  V30 24 C -4.276139 -0.369926 0.054963 0
M  V30 25 N -4.288914 -1.623197 0.713368 0
M  V30 26 C -3.055443 0.173265 -0.252448 0
M  V30 27 N -0.615241 1.473202 -0.980433 0
M  V30 28 C 0.518313 2.071622 -1.318504 0
M  V30 29 N 1.857343 -0.495626 0.009718 0
M  V30 30 C 2.795722 -1.359750 0.445208 0
M  V30 31 C 0.195987 -2.494287 1.144785 0
M  V30 32 C -0.972731 -3.216030 1.774540 0
M  V30 33 H 0.053536 -2.245023 4.585133 0
M  V30 34 H -1.087678 -1.474104 3.478363 0
M  V30 35 H -1.676641 -2.609959 4.814873 0
M  V30 36 H 0.258531 -5.292127 3.734236 0
M  V30 37 H 1.085988 -3.701830 4.106929 0
M  V30 38 H 2.152928 -4.991958 2.348108 0
M  V30 39 H 0.611581 -5.052103 1.386338 0
M  V30 40 H 3.940185 -4.146932 1.889278 0
M  V30 41 H 6.171746 -1.061352 0.209834 0
M  V30 42 H 4.565445 0.940717 -0.810556 0
M  V30 43 H 2.100206 4.590746 -2.680563 0
M  V30 44 H -0.627427 4.881942 -2.779444 0
M  V30 45 H -2.673031 3.793155 -2.164729 0
M  V30 46 H -4.392305 2.886524 -1.651539 0
M  V30 47 H -6.436673 -0.333614 0.075615 0
M  V30 48 H -4.321072 -2.485680 1.264623 0
M  V30 49 H -4.029422 -2.330741 -0.034724 0
M  V30 50 H -2.148242 -0.352561 0.006836 0
M  V30 51 H 0.271475 -1.443299 1.495594 0
M  V30 52 H 0.029772 -2.491396 0.056851 0
M  V30 53 H -1.845160 -2.529774 1.712362 0
M  V30 54 H -1.180842 -4.111410 1.165806 0
M  V30 END ATOM
M  V30 BEGIN BOND
M  V30 1 1 1 2
M  V30 2 1 2 3
M  V30 3 1 3 4
M  V30 4 1 4 5
M  V30 5 1 5 6
M  V30 6 2 6 7
M  V30 7 1 7 8
M  V30 8 2 8 9
M  V30 9 1 9 10
M  V30 10 1 10 11
M  V30 11 1 11 12
M  V30 12 1 12 13
M  V30 13 2 13 14
M  V30 14 1 14 15
M  V30 15 1 15 16
M  V30 16 2 16 17
M  V30 17 1 17 18
M  V30 18 2 18 19
M  V30 19 1 19 20
M  V30 20 2 20 21
M  V30 21 1 21 22
M  V30 22 2 22 23
M  V30 23 1 23 24
M  V30 24 1 24 25
M  V30 25 2 24 26
M  V30 26 1 19 27
M  V30 27 2 27 28
M  V30 28 2 12 29
M  V30 29 1 29 30
M  V30 30 1 5 31
M  V30 31 1 31 32
M  V30 32 1 32 2
M  V30 33 1 30 6
M  V30 34 2 30 10
M  V30 35 1 28 13
M  V30 36 1 28 16
M  V30 37 1 26 20
M  V30 38 1 1 33
M  V30 39 1 1 34
M  V30 40 1 1 35
M  V30 41 1 3 36
M  V30 42 1 3 37
M  V30 43 1 4 38
M  V30 44 1 4 39
M  V30 45 1 7 40
M  V30 46 1 9 41
M  V30 47 1 11 42
M  V30 48 1 15 43
M  V30 49 1 17 44
M  V30 50 1 18 45
M  V30 51 1 21 46
M  V30 52 1 23 47
M  V30 53 1 25 48
M  V30 54 1 25 49
M  V30 55 1 26 50
M  V30 56 1 31 51
M  V30 57 1 31 52
M  V30 58 1 32 53
M  V30 59 1 32 54
M  V30 END BOND
M  V30 END CTAB
M  END
>  <Dataset>  (618) 
ChEMBL_Kinases

>  <Ligand_Instance>  (618) 
nan

>  <PDB_ID>  (618) 
nan

>  <Standardized_SMILES>  (618) 
CN1CCN(c2cncc3[nH]c(-c4n[nH]c5ccc(-c6cncc(N)c6)nc45)nc23)CC1

>  <Name>  (618) 
nan

>  <Pocket>  (618) 
nan

>  <ATP_Site>  (618) 
nan

>  <Peripheral>  (618) 
nan

>  <Num_H_Atoms_ProtBoundConf>  (618) 
nan

>  <Num_Resolved_Atoms>  (618) 
nan

>  <Num_Not_Resolved_Atoms>  (618) 
nan

$$$$
CHEMBL4757454
     RDKit          3D

  0  0  0  0  0  0  0  0  0  0999 V3000
M  V30 BEGIN CTAB
M  V30 COUNTS 47 52 0 0 0
M  V30 BEGIN ATOM
M  V30 1 O -1.059468 -5.110328 2.633209 0
M  V30 2 C -0.414801 -5.981169 1.962555 0
M  V30 3 N 0.720061 -5.575219 1.219603 0
M  V30 4 C 0.930693 -4.186093 1.378246 0
M  V30 5 C 1.742875 -3.829057 2.429377 0
M  V30 6 N 1.965412 -2.499244 2.609127 0
M  V30 7 C 1.428789 -1.558429 1.811221 0
M  V30 8 C 0.610839 -1.874567 0.748805 0
M  V30 9 C -0.010278 -0.922445 -0.162699 0
M  V30 10 C 0.152765 0.438354 -0.064935 0
M  V30 11 C -0.425231 1.349485 -0.915359 0
M  V30 12 C -0.365063 2.719499 -0.955534 0
M  V30 13 C 0.314261 3.697257 -0.135986 0
M  V30 14 C 1.134075 3.686171 0.957685 0
M  V30 15 C 1.513103 4.952610 1.351614 0
M  V30 16 C 2.318712 5.390458 2.386904 0
M  V30 17 N 2.522120 6.731736 2.540174 0
M  V30 18 C 1.923906 7.581476 1.668188 0
M  V30 19 C 1.119672 7.136327 0.635368 0
M  V30 20 C 0.886749 5.782017 0.443901 0
M  V30 21 N 0.203141 5.016309 -0.399979 0
M  V30 22 N -1.139525 3.009782 -2.013293 0
M  V30 23 N -1.632456 1.922532 -2.574772 0
M  V30 24 C -1.211405 0.828030 -1.917401 0
M  V30 25 C -1.392607 -0.533870 -2.039279 0
M  V30 26 N -0.797135 -1.370314 -1.172117 0
M  V30 27 C 0.383871 -3.221327 0.564638 0
M  V30 28 C -0.947599 -7.387496 2.036945 0
M  V30 29 C -1.668481 -7.788732 3.282444 0
M  V30 30 C -2.425568 -7.532259 2.012885 0
M  V30 31 H 1.176686 -6.381865 0.701753 0
M  V30 32 H 2.192937 -4.569409 3.094296 0
M  V30 33 H 1.639815 -0.532440 2.002307 0
M  V30 34 H 0.773893 0.776647 0.733211 0
M  V30 35 H 1.454679 2.801942 1.462689 0
M  V30 36 H 2.773172 4.671417 3.055807 0
M  V30 37 H 2.058211 8.655988 1.752788 0
M  V30 38 H 0.649774 7.820041 -0.050998 0
M  V30 39 H -0.324679 5.519787 -1.147725 0
M  V30 40 H -2.257344 1.931456 -3.408452 0
M  V30 41 H -2.017755 -0.903409 -2.840047 0
M  V30 42 H -0.229753 -3.612633 -0.218848 0
M  V30 43 H -0.359657 -8.115455 1.440216 0
M  V30 44 H -1.760347 -7.007480 4.074836 0
M  V30 45 H -1.594735 -8.820786 3.630050 0
M  V30 46 H -3.063186 -6.610525 1.968769 0
M  V30 47 H -2.903051 -8.439040 1.549409 0
M  V30 END ATOM
M  V30 BEGIN BOND
M  V30 1 2 1 2
M  V30 2 1 2 3
M  V30 3 1 3 4
M  V30 4 2 4 5
M  V30 5 1 5 6
M  V30 6 2 6 7
M  V30 7 1 7 8
M  V30 8 1 8 9
M  V30 9 2 9 10
M  V30 10 1 10 11
M  V30 11 1 11 12
M  V30 12 1 12 13
M  V30 13 2 13 14
M  V30 14 1 14 15
M  V30 15 2 15 16
M  V30 16 1 16 17
M  V30 17 2 17 18
M  V30 18 1 18 19
M  V30 19 2 19 20
M  V30 20 1 20 21
M  V30 21 2 12 22
M  V30 22 1 22 23
M  V30 23 1 23 24
M  V30 24 1 24 25
M  V30 25 2 25 26
M  V30 26 2 8 27
M  V30 27 1 2 28
M  V30 28 1 28 29
M  V30 29 1 29 30
M  V30 30 1 27 4
M  V30 31 1 30 28
M  V30 32 1 26 9
M  V30 33 2 24 11
M  V30 34 1 21 13
M  V30 35 1 20 15
M  V30 36 1 3 31
M  V30 37 1 5 32
M  V30 38 1 7 33
M  V30 39 1 10 34
M  V30 40 1 14 35
M  V30 41 1 16 36
M  V30 42 1 18 37
M  V30 43 1 19 38
M  V30 44 1 21 39
M  V30 45 1 23 40
M  V30 46 1 25 41
M  V30 47 1 27 42
M  V30 48 1 28 43
M  V30 49 1 29 44
M  V30 50 1 29 45
M  V30 51 1 30 46
M  V30 52 1 30 47
M  V30 END BOND
M  V30 END CTAB
M  END
>  <Dataset>  (619) 
ChEMBL_Kinases

>  <Ligand_Instance>  (619) 
nan

>  <PDB_ID>  (619) 
nan

>  <Standardized_SMILES>  (619) 
O=C(Nc1cncc(-c2cc3c(-c4cc5cnccc5[nH]4)n[nH]c3cn2)c1)C1CC1

>  <Name>  (619) 
nan

>  <Pocket>  (619) 
nan

>  <ATP_Site>  (619) 
nan

>  <Peripheral>  (619) 
nan

>  <Num_H_Atoms_ProtBoundConf>  (619) 
nan

>  <Num_Resolved_Atoms>  (619) 
nan

>  <Num_Not_Resolved_Atoms>  (619) 
nan

$$$$
CHEMBL4757427
     RDKit          3D

  0  0  0  0  0  0  0  0  0  0999 V3000
M  V30 BEGIN CTAB
M  V30 COUNTS 70 76 0 0 0
M  V30 BEGIN ATOM
M  V30 1 C 1.123067 -4.578928 -2.536268 0
M  V30 2 C 0.732739 -3.809336 -1.446347 0
M  V30 3 C 1.339760 -2.590049 -1.236265 0
M  V30 4 N 1.190343 -1.641373 -0.298003 0
M  V30 5 C 1.986092 -0.579436 -0.441797 0
M  V30 6 C 2.203598 0.661015 0.269767 0
M  V30 7 N 3.105818 1.622236 -0.076863 0
M  V30 8 N 3.079238 2.636481 0.741043 0
M  V30 9 C 2.161826 2.449135 1.705164 0
M  V30 10 C 1.729330 3.184320 2.791494 0
M  V30 11 C 0.730390 2.672406 3.595307 0
M  V30 12 C 0.167121 1.423895 3.307908 0
M  V30 13 C -0.903285 0.889435 4.165775 0
M  V30 14 C -1.040172 1.111656 5.507040 0
M  V30 15 N -2.063469 0.576599 6.197010 0
M  V30 16 C -3.001910 -0.197460 5.622793 0
M  V30 17 C -2.958069 -0.484423 4.275578 0
M  V30 18 C -3.901236 -1.311519 3.481282 0
M  V30 19 N -4.971596 -0.557711 2.913831 0
M  V30 20 C -5.818732 0.115694 3.870417 0
M  V30 21 C -6.950707 0.807515 3.180989 0
M  V30 22 C -6.857860 0.796422 1.672223 0
M  V30 23 C -6.636142 -0.602049 1.135747 0
M  V30 24 C -5.821251 -1.421248 2.116975 0
M  V30 25 C -1.883322 0.084520 3.583384 0
M  V30 26 C 0.643528 0.741743 2.211112 0
M  V30 27 C 1.633045 1.214801 1.389001 0
M  V30 28 C 2.698999 -0.909887 -1.587688 0
M  V30 29 C 2.318618 -2.122968 -2.080099 0
M  V30 30 C 2.674796 -2.913859 -3.145061 0
M  V30 31 N 3.669716 -2.476328 -4.060183 0
M  V30 32 C 3.373246 -1.277619 -4.854366 0
M  V30 33 C 4.574892 -0.599786 -5.403730 0
M  V30 34 C 5.836757 -1.162601 -4.795497 0
M  V30 35 C 5.858463 -2.644068 -5.115730 0
M  V30 36 C 4.863368 -3.252199 -4.114845 0
M  V30 37 N 2.089775 -4.107092 -3.361005 0
M  V30 38 H 0.675498 -5.534250 -2.736259 0
M  V30 39 H -0.035863 -4.143088 -0.760313 0
M  V30 40 H 0.502466 -1.756480 0.464647 0
M  V30 41 H 3.700975 3.465600 0.631187 0
M  V30 42 H 2.184895 4.151521 2.990448 0
M  V30 43 H 0.364883 3.232833 4.468118 0
M  V30 44 H -0.296059 1.729324 5.972108 0
M  V30 45 H -3.841383 -0.647819 6.147534 0
M  V30 46 H -3.357154 -1.842292 2.674457 0
M  V30 47 H -4.315580 -2.143832 4.119918 0
M  V30 48 H -6.205548 -0.648279 4.597920 0
M  V30 49 H -5.291152 0.868923 4.489272 0
M  V30 50 H -7.897224 0.272137 3.439071 0
M  V30 51 H -7.099156 1.866958 3.488166 0
M  V30 52 H -6.017606 1.424090 1.343233 0
M  V30 53 H -7.825463 1.152866 1.264527 0
M  V30 54 H -7.624651 -1.065049 0.910995 0
M  V30 55 H -6.090008 -0.527443 0.172458 0
M  V30 56 H -6.557717 -1.905061 2.803274 0
M  V30 57 H -5.272679 -2.236183 1.612567 0
M  V30 58 H -1.792380 -0.100883 2.521892 0
M  V30 59 H 0.183607 -0.191640 2.043223 0
M  V30 60 H 3.475496 -0.326627 -2.080316 0
M  V30 61 H 2.718178 -0.586655 -4.311977 0
M  V30 62 H 2.773835 -1.644723 -5.744755 0
M  V30 63 H 4.519392 0.486965 -5.144199 0
M  V30 64 H 4.645708 -0.698669 -6.522600 0
M  V30 65 H 5.739394 -1.042173 -3.696883 0
M  V30 66 H 6.746184 -0.645509 -5.156900 0
M  V30 67 H 5.600343 -2.881663 -6.155981 0
M  V30 68 H 6.887771 -3.008902 -4.848353 0
M  V30 69 H 5.379318 -3.152159 -3.129613 0
M  V30 70 H 4.726680 -4.304092 -4.428457 0
M  V30 END ATOM
M  V30 BEGIN BOND
M  V30 1 2 1 2
M  V30 2 1 2 3
M  V30 3 1 3 4
M  V30 4 1 4 5
M  V30 5 1 5 6
M  V30 6 2 6 7
M  V30 7 1 7 8
M  V30 8 1 8 9
M  V30 9 2 9 10
M  V30 10 1 10 11
M  V30 11 2 11 12
M  V30 12 1 12 13
M  V30 13 2 13 14
M  V30 14 1 14 15
M  V30 15 2 15 16
M  V30 16 1 16 17
M  V30 17 1 17 18
M  V30 18 1 18 19
M  V30 19 1 19 20
M  V30 20 1 20 21
M  V30 21 1 21 22
M  V30 22 1 22 23
M  V30 23 1 23 24
M  V30 24 2 17 25
M  V30 25 1 12 26
M  V30 26 2 26 27
M  V30 27 2 5 28
M  V30 28 1 28 29
M  V30 29 1 29 30
M  V30 30 1 30 31
M  V30 31 1 31 32
M  V30 32 1 32 33
M  V30 33 1 33 34
M  V30 34 1 34 35
M  V30 35 1 35 36
M  V30 36 2 30 37
M  V30 37 1 37 1
M  V30 38 2 29 3
M  V30 39 1 36 31
M  V30 40 1 27 6
M  V30 41 1 27 9
M  V30 42 1 25 13
M  V30 43 1 24 19
M  V30 44 1 1 38
M  V30 45 1 2 39
M  V30 46 1 4 40
M  V30 47 1 8 41
M  V30 48 1 10 42
M  V30 49 1 11 43
M  V30 50 1 14 44
M  V30 51 1 16 45
M  V30 52 1 18 46
M  V30 53 1 18 47
M  V30 54 1 20 48
M  V30 55 1 20 49
M  V30 56 1 21 50
M  V30 57 1 21 51
M  V30 58 1 22 52
M  V30 59 1 22 53
M  V30 60 1 23 54
M  V30 61 1 23 55
M  V30 62 1 24 56
M  V30 63 1 24 57
M  V30 64 1 25 58
M  V30 65 1 26 59
M  V30 66 1 28 60
M  V30 67 1 32 61
M  V30 68 1 32 62
M  V30 69 1 33 63
M  V30 70 1 33 64
M  V30 71 1 34 65
M  V30 72 1 34 66
M  V30 73 1 35 67
M  V30 74 1 35 68
M  V30 75 1 36 69
M  V30 76 1 36 70
M  V30 END BOND
M  V30 END CTAB
M  END
>  <Dataset>  (620) 
ChEMBL_Kinases

>  <Ligand_Instance>  (620) 
nan

>  <PDB_ID>  (620) 
nan

>  <Standardized_SMILES>  (620) 
c1cc2[nH]c(-c3n[nH]c4ccc(-c5cncc(CN6CCCCC6)c5)cc34)cc2c(N2CCCCC2)n1

>  <Name>  (620) 
nan

>  <Pocket>  (620) 
nan

>  <ATP_Site>  (620) 
nan

>  <Peripheral>  (620) 
nan

>  <Num_H_Atoms_ProtBoundConf>  (620) 
nan

>  <Num_Resolved_Atoms>  (620) 
nan

>  <Num_Not_Resolved_Atoms>  (620) 
nan

$$$$
CHEMBL4757198
     RDKit          3D

  0  0  0  0  0  0  0  0  0  0999 V3000
M  V30 BEGIN CTAB
M  V30 COUNTS 64 70 0 0 0
M  V30 BEGIN ATOM
M  V30 1 O 2.696844 -1.111371 2.910577 0
M  V30 2 C 3.759688 -0.438526 3.144012 0
M  V30 3 N 4.162012 0.296235 1.997499 0
M  V30 4 C 3.211238 0.024209 0.940820 0
M  V30 5 C 3.306155 -0.992197 0.021676 0
M  V30 6 N 2.329510 -1.103544 -0.895890 0
M  V30 7 C 1.284799 -0.225686 -0.898725 0
M  V30 8 C 1.163469 0.806866 0.014380 0
M  V30 9 C -0.016719 1.682234 -0.101969 0
M  V30 10 C 0.053421 3.016468 0.257837 0
M  V30 11 C -1.092118 3.773063 0.126040 0
M  V30 12 C -2.258759 3.215485 -0.346366 0
M  V30 13 N -3.500783 3.674252 -0.580095 0
M  V30 14 N -4.264268 2.704392 -1.042546 0
M  V30 15 C -3.599706 1.542274 -1.151058 0
M  V30 16 C -4.176651 0.305968 -1.624579 0
M  V30 17 C -3.740318 -0.974794 -1.823848 0
M  V30 18 C -4.720823 -1.810525 -2.305862 0
M  V30 19 C -4.727562 -3.150605 -2.642161 0
M  V30 20 C -3.489406 -3.937668 -2.492635 0
M  V30 21 C -2.270234 -3.601470 -3.043089 0
M  V30 22 C -1.158580 -4.385309 -2.860098 0
M  V30 23 C -1.236589 -5.550033 -2.106672 0
M  V30 24 C -2.477145 -5.837451 -1.580942 0
M  V30 25 C -3.627993 -5.094478 -1.727401 0
M  V30 26 F -4.784692 -5.467664 -1.171021 0
M  V30 27 N -5.879842 -3.674912 -3.092886 0
M  V30 28 C -6.999333 -2.928520 -3.217537 0
M  V30 29 C -6.992536 -1.577091 -2.878442 0
M  V30 30 C -5.827890 -0.980786 -2.406273 0
M  V30 31 N -5.467222 0.241611 -2.000012 0
M  V30 32 C -2.349405 1.888547 -0.710201 0
M  V30 33 C -1.199041 1.151076 -0.572446 0
M  V30 34 C 2.168751 0.932289 0.969283 0
M  V30 35 C 4.423638 -0.469323 4.449286 0
M  V30 36 C 5.850293 -0.959540 4.418483 0
M  V30 37 C 6.447479 -0.482505 5.725613 0
M  V30 38 C 5.547844 0.610012 6.253782 0
M  V30 39 C 4.466226 0.833679 5.187347 0
M  V30 40 H 5.039789 0.886119 2.100990 0
M  V30 41 H 4.169612 -1.637553 0.103195 0
M  V30 42 H 0.571437 -0.434314 -1.693304 0
M  V30 43 H 0.978715 3.440999 0.627846 0
M  V30 44 H -1.096179 4.830677 0.393634 0
M  V30 45 H -3.856072 4.643629 -0.434085 0
M  V30 46 H -2.752265 -1.319336 -1.635360 0
M  V30 47 H -2.240673 -2.688271 -3.625292 0
M  V30 48 H -0.200471 -4.131532 -3.287023 0
M  V30 49 H -0.391991 -6.184944 -1.943031 0
M  V30 50 H -2.561034 -6.747889 -0.984849 0
M  V30 51 H -7.926865 -3.338121 -3.577023 0
M  V30 52 H -7.866677 -0.969428 -2.969377 0
M  V30 53 H -6.208701 0.979655 -2.021689 0
M  V30 54 H -1.196969 0.111565 -0.836508 0
M  V30 55 H 2.043151 1.741515 1.659292 0
M  V30 56 H 3.867082 -1.182020 5.092284 0
M  V30 57 H 5.892366 -2.067415 4.426071 0
M  V30 58 H 6.406140 -0.597468 3.540083 0
M  V30 59 H 6.497111 -1.309331 6.492930 0
M  V30 60 H 7.460672 -0.115031 5.560100 0
M  V30 61 H 6.125001 1.531979 6.451109 0
M  V30 62 H 5.089585 0.295982 7.221548 0
M  V30 63 H 3.524858 1.042559 5.735840 0
M  V30 64 H 4.829092 1.687930 4.592457 0
M  V30 END ATOM
M  V30 BEGIN BOND
M  V30 1 2 1 2
M  V30 2 1 2 3
M  V30 3 1 3 4
M  V30 4 2 4 5
M  V30 5 1 5 6
M  V30 6 2 6 7
M  V30 7 1 7 8
M  V30 8 1 8 9
M  V30 9 2 9 10
M  V30 10 1 10 11
M  V30 11 2 11 12
M  V30 12 1 12 13
M  V30 13 1 13 14
M  V30 14 2 14 15
M  V30 15 1 15 16
M  V30 16 2 16 17
M  V30 17 1 17 18
M  V30 18 2 18 19
M  V30 19 1 19 20
M  V30 20 2 20 21
M  V30 21 1 21 22
M  V30 22 2 22 23
M  V30 23 1 23 24
M  V30 24 2 24 25
M  V30 25 1 25 26
M  V30 26 1 19 27
M  V30 27 2 27 28
M  V30 28 1 28 29
M  V30 29 2 29 30
M  V30 30 1 30 31
M  V30 31 1 15 32
M  V30 32 2 32 33
M  V30 33 2 8 34
M  V30 34 1 2 35
M  V30 35 1 35 36
M  V30 36 1 36 37
M  V30 37 1 37 38
M  V30 38 1 38 39
M  V30 39 1 34 4
M  V30 40 1 39 35
M  V30 41 1 33 9
M  V30 42 1 32 12
M  V30 43 1 31 16
M  V30 44 1 30 18
M  V30 45 1 25 20
M  V30 46 1 3 40
M  V30 47 1 5 41
M  V30 48 1 7 42
M  V30 49 1 10 43
M  V30 50 1 11 44
M  V30 51 1 13 45
M  V30 52 1 17 46
M  V30 53 1 21 47
M  V30 54 1 22 48
M  V30 55 1 23 49
M  V30 56 1 24 50
M  V30 57 1 28 51
M  V30 58 1 29 52
M  V30 59 1 31 53
M  V30 60 1 33 54
M  V30 61 1 34 55
M  V30 62 1 35 56
M  V30 63 1 36 57
M  V30 64 1 36 58
M  V30 65 1 37 59
M  V30 66 1 37 60
M  V30 67 1 38 61
M  V30 68 1 38 62
M  V30 69 1 39 63
M  V30 70 1 39 64
M  V30 END BOND
M  V30 END CTAB
M  END
>  <Dataset>  (621) 
ChEMBL_Kinases

>  <Ligand_Instance>  (621) 
nan

>  <PDB_ID>  (621) 
nan

>  <Standardized_SMILES>  (621) 
O=C(Nc1cncc(-c2ccc3[nH]nc(-c4cc5c(-c6ccccc6F)nccc5[nH]4)c3c2)c1)C1CCCC1

>  <Name>  (621) 
nan

>  <Pocket>  (621) 
nan

>  <ATP_Site>  (621) 
nan

>  <Peripheral>  (621) 
nan

>  <Num_H_Atoms_ProtBoundConf>  (621) 
nan

>  <Num_Resolved_Atoms>  (621) 
nan

>  <Num_Not_Resolved_Atoms>  (621) 
nan

$$$$
CHEMBL4757172
     RDKit          3D

  0  0  0  0  0  0  0  0  0  0999 V3000
M  V30 BEGIN CTAB
M  V30 COUNTS 56 61 0 0 0
M  V30 BEGIN ATOM
M  V30 1 C 2.444734 -1.327884 2.899543 0
M  V30 2 N 3.734996 -1.717851 2.376103 0
M  V30 3 C 3.896123 -3.137835 2.618562 0
M  V30 4 C 3.794339 -1.519318 0.940434 0
M  V30 5 C 3.569186 -0.084148 0.588643 0
M  V30 6 C 4.774239 0.626447 0.600325 0
M  V30 7 N 4.687501 1.953898 0.292277 0
M  V30 8 C 3.485609 2.492110 0.002685 0
M  V30 9 C 2.284361 1.825212 -0.018470 0
M  V30 10 C 1.023411 2.477057 -0.337539 0
M  V30 11 C 0.984400 3.822446 -0.627996 0
M  V30 12 C -0.189018 4.488861 -0.932634 0
M  V30 13 C -1.361959 3.750710 -0.939785 0
M  V30 14 N -2.615155 4.161283 -1.202490 0
M  V30 15 N -3.346990 3.070191 -1.074538 0
M  V30 16 C -2.631820 2.007895 -0.749575 0
M  V30 17 C -3.135954 0.660492 -0.541161 0
M  V30 18 N -2.535467 -0.482763 -0.221544 0
M  V30 19 C -3.496036 -1.436408 -0.164646 0
M  V30 20 C -3.509757 -2.793811 0.108177 0
M  V30 21 C -2.271743 -3.486398 0.430086 0
M  V30 22 C -1.253308 -3.141953 1.293261 0
M  V30 23 C -0.178554 -3.997836 1.408914 0
M  V30 24 C -0.060593 -5.181176 0.710792 0
M  V30 25 C -1.071419 -5.523633 -0.146574 0
M  V30 26 F -0.925411 -6.684701 -0.812663 0
M  V30 27 C -2.150800 -4.689335 -0.279022 0
M  V30 28 C -4.697795 -3.533813 0.086901 0
M  V30 29 N -5.873561 -2.947347 -0.201110 0
M  V30 30 C -5.907413 -1.639605 -0.470765 0
M  V30 31 C -4.744612 -0.897552 -0.453633 0
M  V30 32 N -4.471758 0.414052 -0.682237 0
M  V30 33 C -1.315190 2.403579 -0.648055 0
M  V30 34 N -0.137386 1.788886 -0.353564 0
M  V30 35 C 2.363542 0.488786 0.290501 0
M  V30 36 H 1.596519 -1.549120 2.223139 0
M  V30 37 H 2.212112 -1.917426 3.832105 0
M  V30 38 H 2.424431 -0.271235 3.230686 0
M  V30 39 H 4.218815 -3.346609 3.658805 0
M  V30 40 H 2.965256 -3.695147 2.392141 0
M  V30 41 H 4.673771 -3.481649 1.877312 0
M  V30 42 H 2.904554 -2.094167 0.546873 0
M  V30 43 H 4.694367 -1.946703 0.489139 0
M  V30 44 H 5.748647 0.218576 0.828646 0
M  V30 45 H 3.558501 3.539342 -0.220350 0
M  V30 46 H 1.846921 4.471623 -0.645325 0
M  V30 47 H -0.231668 5.554795 -1.164294 0
M  V30 48 H -2.956546 5.118402 -1.452768 0
M  V30 49 H -1.425309 -2.217815 1.788106 0
M  V30 50 H 0.591757 -3.709328 2.083117 0
M  V30 51 H 0.840578 -5.780675 0.884746 0
M  V30 52 H -2.892215 -5.075167 -0.995727 0
M  V30 53 H -4.676389 -4.584846 0.302720 0
M  V30 54 H -6.853943 -1.177932 -0.700513 0
M  V30 55 H -5.280350 1.061676 -0.930235 0
M  V30 56 H 1.502954 -0.130996 0.305319 0
M  V30 END ATOM
M  V30 BEGIN BOND
M  V30 1 1 1 2
M  V30 2 1 2 3
M  V30 3 1 2 4
M  V30 4 1 4 5
M  V30 5 2 5 6
M  V30 6 1 6 7
M  V30 7 2 7 8
M  V30 8 1 8 9
M  V30 9 1 9 10
M  V30 10 2 10 11
M  V30 11 1 11 12
M  V30 12 2 12 13
M  V30 13 1 13 14
M  V30 14 1 14 15
M  V30 15 2 15 16
M  V30 16 1 16 17
M  V30 17 2 17 18
M  V30 18 1 18 19
M  V30 19 2 19 20
M  V30 20 1 20 21
M  V30 21 2 21 22
M  V30 22 1 22 23
M  V30 23 2 23 24
M  V30 24 1 24 25
M  V30 25 1 25 26
M  V30 26 2 25 27
M  V30 27 1 20 28
M  V30 28 2 28 29
M  V30 29 1 29 30
M  V30 30 2 30 31
M  V30 31 1 31 32
M  V30 32 1 16 33
M  V30 33 2 33 34
M  V30 34 2 9 35
M  V30 35 1 35 5
M  V30 36 1 34 10
M  V30 37 1 33 13
M  V30 38 1 32 17
M  V30 39 1 31 19
M  V30 40 1 27 21
M  V30 41 1 1 36
M  V30 42 1 1 37
M  V30 43 1 1 38
M  V30 44 1 3 39
M  V30 45 1 3 40
M  V30 46 1 3 41
M  V30 47 1 4 42
M  V30 48 1 4 43
M  V30 49 1 6 44
M  V30 50 1 8 45
M  V30 51 1 11 46
M  V30 52 1 12 47
M  V30 53 1 14 48
M  V30 54 1 22 49
M  V30 55 1 23 50
M  V30 56 1 24 51
M  V30 57 1 27 52
M  V30 58 1 28 53
M  V30 59 1 30 54
M  V30 60 1 32 55
M  V30 61 1 35 56
M  V30 END BOND
M  V30 END CTAB
M  END
>  <Dataset>  (622) 
ChEMBL_Kinases

>  <Ligand_Instance>  (622) 
nan

>  <PDB_ID>  (622) 
nan

>  <Standardized_SMILES>  (622) 
CN(C)Cc1cncc(-c2ccc3[nH]nc(-c4nc5c(-c6cccc(F)c6)cncc5[nH]4)c3n2)c1

>  <Name>  (622) 
nan

>  <Pocket>  (622) 
nan

>  <ATP_Site>  (622) 
nan

>  <Peripheral>  (622) 
nan

>  <Num_H_Atoms_ProtBoundConf>  (622) 
nan

>  <Num_Resolved_Atoms>  (622) 
nan

>  <Num_Not_Resolved_Atoms>  (622) 
nan

$$$$
CHEMBL4757131
     RDKit          3D

  0  0  0  0  0  0  0  0  0  0999 V3000
M  V30 BEGIN CTAB
M  V30 COUNTS 36 40 0 0 0
M  V30 BEGIN ATOM
M  V30 1 C 1.311393 -0.768004 4.697172 0
M  V30 2 C 2.331135 -1.351921 5.457337 0
M  V30 3 N 3.312994 -2.053125 4.865902 0
M  V30 4 C 3.367330 -2.228230 3.535262 0
M  V30 5 C 2.411240 -1.693613 2.699944 0
M  V30 6 C 2.368561 -1.818562 1.248281 0
M  V30 7 C 3.322184 -2.513110 0.552064 0
M  V30 8 C 3.246592 -2.610385 -0.838184 0
M  V30 9 C 2.233250 -2.027566 -1.571477 0
M  V30 10 N 1.890927 -1.940415 -2.860691 0
M  V30 11 N 0.768782 -1.217129 -2.933980 0
M  V30 12 C 0.380731 -0.833675 -1.693920 0
M  V30 13 C -0.778814 -0.036665 -1.300019 0
M  V30 14 C -1.715347 0.482109 -2.171077 0
M  V30 15 C -2.678821 1.182589 -1.482934 0
M  V30 16 C -3.811870 1.881430 -1.861362 0
M  V30 17 C -4.570683 2.481612 -0.859670 0
M  V30 18 C -4.182083 2.367608 0.463619 0
M  V30 19 N -3.065114 1.674410 0.795988 0
M  V30 20 C -2.301372 1.077255 -0.146444 0
M  V30 21 N -1.159592 0.341501 -0.065520 0
M  V30 22 C 1.318548 -1.349613 -0.792266 0
M  V30 23 N 1.388904 -1.255747 0.533509 0
M  V30 24 C 1.412464 -0.976479 3.338145 0
M  V30 25 H 0.496227 -0.193299 5.116949 0
M  V30 26 H 2.297097 -1.216035 6.540542 0
M  V30 27 H 4.160836 -2.793910 3.066848 0
M  V30 28 H 4.145587 -2.998066 1.040247 0
M  V30 29 H 4.024997 -3.173338 -1.368441 0
M  V30 30 H 2.425098 -2.370885 -3.643364 0
M  V30 31 H -1.732467 0.380326 -3.244128 0
M  V30 32 H -4.105883 1.965754 -2.880990 0
M  V30 33 H -5.459460 3.027257 -1.180374 0
M  V30 34 H -4.817190 2.859011 1.198474 0
M  V30 35 H -0.659315 0.107705 0.811725 0
M  V30 36 H 0.636802 -0.535666 2.727817 0
M  V30 END ATOM
M  V30 BEGIN BOND
M  V30 1 2 1 2
M  V30 2 1 2 3
M  V30 3 2 3 4
M  V30 4 1 4 5
M  V30 5 1 5 6
M  V30 6 2 6 7
M  V30 7 1 7 8
M  V30 8 2 8 9
M  V30 9 1 9 10
M  V30 10 1 10 11
M  V30 11 2 11 12
M  V30 12 1 12 13
M  V30 13 2 13 14
M  V30 14 1 14 15
M  V30 15 2 15 16
M  V30 16 1 16 17
M  V30 17 2 17 18
M  V30 18 1 18 19
M  V30 19 2 19 20
M  V30 20 1 20 21
M  V30 21 1 12 22
M  V30 22 2 22 23
M  V30 23 2 5 24
M  V30 24 1 24 1
M  V30 25 1 23 6
M  V30 26 1 22 9
M  V30 27 1 21 13
M  V30 28 1 20 15
M  V30 29 1 1 25
M  V30 30 1 2 26
M  V30 31 1 4 27
M  V30 32 1 7 28
M  V30 33 1 8 29
M  V30 34 1 10 30
M  V30 35 1 14 31
M  V30 36 1 16 32
M  V30 37 1 17 33
M  V30 38 1 18 34
M  V30 39 1 21 35
M  V30 40 1 24 36
M  V30 END BOND
M  V30 END CTAB
M  END
>  <Dataset>  (623) 
ChEMBL_Kinases

>  <Ligand_Instance>  (623) 
nan

>  <PDB_ID>  (623) 
nan

>  <Standardized_SMILES>  (623) 
c1cncc(-c2ccc3[nH]nc(-c4cc5cccnc5[nH]4)c3n2)c1

>  <Name>  (623) 
nan

>  <Pocket>  (623) 
nan

>  <ATP_Site>  (623) 
nan

>  <Peripheral>  (623) 
nan

>  <Num_H_Atoms_ProtBoundConf>  (623) 
nan

>  <Num_Resolved_Atoms>  (623) 
nan

>  <Num_Not_Resolved_Atoms>  (623) 
nan

$$$$
CHEMBL4757102
     RDKit          3D

  0  0  0  0  0  0  0  0  0  0999 V3000
M  V30 BEGIN CTAB
M  V30 COUNTS 47 52 0 0 0
M  V30 BEGIN ATOM
M  V30 1 N 3.482278 -4.015312 1.968558 0
M  V30 2 C 3.768774 -2.738408 2.516631 0
M  V30 3 C 4.595668 -2.712280 3.634155 0
M  V30 4 N 4.865515 -1.503290 4.152593 0
M  V30 5 C 4.348639 -0.383766 3.599598 0
M  V30 6 C 3.535231 -0.423243 2.498659 0
M  V30 7 C 3.054938 0.868394 2.016212 0
M  V30 8 C 3.830159 2.022998 2.146896 0
M  V30 9 N 3.334707 3.200095 1.678705 0
M  V30 10 C 2.133119 3.304521 1.095740 0
M  V30 11 N 1.388615 4.282064 0.550439 0
M  V30 12 N 0.254623 3.810792 0.114229 0
M  V30 13 C 0.129994 2.488994 0.321794 0
M  V30 14 C -1.006832 1.675034 -0.047111 0
M  V30 15 C -1.377906 0.380567 0.040114 0
M  V30 16 C -2.629191 0.148983 -0.499132 0
M  V30 17 C -3.370860 -1.013949 -0.615344 0
M  V30 18 C -2.885708 -2.296748 -0.133477 0
M  V30 19 C -3.022437 -3.371219 -1.012733 0
M  V30 20 C -2.624080 -4.665667 -0.725563 0
M  V30 21 N -2.066949 -4.886012 0.493469 0
M  V30 22 C -1.911934 -3.889892 1.376452 0
M  V30 23 C -2.310351 -2.619577 1.077470 0
M  V30 24 N -4.595103 -0.933082 -1.209479 0
M  V30 25 C -5.041794 0.253759 -1.658692 0
M  V30 26 C -4.294267 1.413543 -1.538805 0
M  V30 27 C -3.042441 1.378064 -0.940906 0
M  V30 28 N -2.080948 2.246100 -0.665570 0
M  V30 29 C 1.314809 2.185451 0.937697 0
M  V30 30 C 1.821764 0.998053 1.413282 0
M  V30 31 C 3.215344 -1.627681 1.913574 0
M  V30 32 H 2.465132 -4.210507 2.112469 0
M  V30 33 H 2.936298 -4.833656 1.701923 0
M  V30 34 H 4.987549 -3.655731 4.040486 0
M  V30 35 H 4.640418 0.502714 4.105080 0
M  V30 36 H 4.790094 1.998868 2.601730 0
M  V30 37 H 1.674271 5.288625 0.481776 0
M  V30 38 H -0.783606 -0.380990 0.469035 0
M  V30 39 H -3.458580 -3.249209 -1.992794 0
M  V30 40 H -2.727366 -5.490327 -1.396473 0
M  V30 41 H -1.467488 -4.110572 2.325011 0
M  V30 42 H -2.213911 -1.771843 1.755584 0
M  V30 43 H -6.012875 0.318706 -2.130070 0
M  V30 44 H -4.648442 2.364582 -1.896672 0
M  V30 45 H -2.247491 3.244321 -0.944903 0
M  V30 46 H 1.259087 0.109481 1.328978 0
M  V30 47 H 2.583618 -1.646016 1.060979 0
M  V30 END ATOM
M  V30 BEGIN BOND
M  V30 1 1 1 2
M  V30 2 2 2 3
M  V30 3 1 3 4
M  V30 4 2 4 5
M  V30 5 1 5 6
M  V30 6 1 6 7
M  V30 7 2 7 8
M  V30 8 1 8 9
M  V30 9 2 9 10
M  V30 10 1 10 11
M  V30 11 1 11 12
M  V30 12 2 12 13
M  V30 13 1 13 14
M  V30 14 2 14 15
M  V30 15 1 15 16
M  V30 16 2 16 17
M  V30 17 1 17 18
M  V30 18 2 18 19
M  V30 19 1 19 20
M  V30 20 2 20 21
M  V30 21 1 21 22
M  V30 22 2 22 23
M  V30 23 1 17 24
M  V30 24 2 24 25
M  V30 25 1 25 26
M  V30 26 2 26 27
M  V30 27 1 27 28
M  V30 28 1 13 29
M  V30 29 2 29 30
M  V30 30 2 6 31
M  V30 31 1 31 2
M  V30 32 1 30 7
M  V30 33 1 29 10
M  V30 34 1 28 14
M  V30 35 1 27 16
M  V30 36 1 23 18
M  V30 37 1 1 32
M  V30 38 1 1 33
M  V30 39 1 3 34
M  V30 40 1 5 35
M  V30 41 1 8 36
M  V30 42 1 11 37
M  V30 43 1 15 38
M  V30 44 1 19 39
M  V30 45 1 20 40
M  V30 46 1 22 41
M  V30 47 1 23 42
M  V30 48 1 25 43
M  V30 49 1 26 44
M  V30 50 1 28 45
M  V30 51 1 30 46
M  V30 52 1 31 47
M  V30 END BOND
M  V30 END CTAB
M  END
>  <Dataset>  (624) 
ChEMBL_Kinases

>  <Ligand_Instance>  (624) 
nan

>  <PDB_ID>  (624) 
nan

>  <Standardized_SMILES>  (624) 
Nc1cncc(-c2cnc3[nH]nc(-c4cc5c(-c6ccncc6)nccc5[nH]4)c3c2)c1

>  <Name>  (624) 
nan

>  <Pocket>  (624) 
nan

>  <ATP_Site>  (624) 
nan

>  <Peripheral>  (624) 
nan

>  <Num_H_Atoms_ProtBoundConf>  (624) 
nan

>  <Num_Resolved_Atoms>  (624) 
nan

>  <Num_Not_Resolved_Atoms>  (624) 
nan

$$$$
CHEMBL4756940
     RDKit          3D

  0  0  0  0  0  0  0  0  0  0999 V3000
M  V30 BEGIN CTAB
M  V30 COUNTS 73 78 0 0 0
M  V30 BEGIN ATOM
M  V30 1 C 8.079886 -1.653068 3.911793 0
M  V30 2 N 7.075667 -1.515147 2.873680 0
M  V30 3 C 6.377731 -0.275747 3.076323 0
M  V30 4 C 5.367614 0.023586 2.022043 0
M  V30 5 N 5.464389 -0.967031 0.949533 0
M  V30 6 C 4.305869 -1.648173 0.561954 0
M  V30 7 C 4.237963 -3.035962 0.667945 0
M  V30 8 N 3.100985 -3.642921 0.283574 0
M  V30 9 C 2.033776 -2.970070 -0.195725 0
M  V30 10 C 2.083813 -1.597475 -0.307224 0
M  V30 11 N 1.233955 -0.658373 -0.727684 0
M  V30 12 C 1.684712 0.581536 -0.670948 0
M  V30 13 C 1.198883 1.906528 -0.985692 0
M  V30 14 N 1.881266 3.067486 -0.832123 0
M  V30 15 N 1.167670 4.106194 -1.207089 0
M  V30 16 C -0.045090 3.719778 -1.639629 0
M  V30 17 C -1.153640 4.376797 -2.130761 0
M  V30 18 C -2.273299 3.658753 -2.495271 0
M  V30 19 C -2.273087 2.285858 -2.364518 0
M  V30 20 C -3.462025 1.494955 -2.748990 0
M  V30 21 C -4.331093 1.818031 -3.750572 0
M  V30 22 N -5.379950 1.045171 -4.029156 0
M  V30 23 C -5.658030 -0.088298 -3.360166 0
M  V30 24 C -4.835616 -0.501465 -2.326367 0
M  V30 25 N -4.983072 -1.666725 -1.521344 0
M  V30 26 C -5.707901 -1.761916 -0.301872 0
M  V30 27 O -6.273041 -0.712628 0.102161 0
M  V30 28 C -5.610005 -3.151868 0.216260 0
M  V30 29 C -6.347998 -3.343879 1.497952 0
M  V30 30 C -6.158906 -4.809307 1.906241 0
M  V30 31 C -7.827541 -3.123944 1.420965 0
M  V30 32 C -5.794495 -2.519122 2.629346 0
M  V30 33 C -3.742213 0.319116 -2.047852 0
M  V30 34 C -1.138125 1.681807 -1.868265 0
M  V30 35 C 0.001509 2.349557 -1.491221 0
M  V30 36 C 2.969461 0.385557 -0.152351 0
M  V30 37 C 3.231818 -0.939669 0.076522 0
M  V30 38 C 6.846746 -1.021830 0.498152 0
M  V30 39 C 7.662247 -1.674998 1.575725 0
M  V30 40 H 8.555470 -0.676787 4.164070 0
M  V30 41 H 7.596755 -2.013004 4.845994 0
M  V30 42 H 8.891491 -2.342597 3.637702 0
M  V30 43 H 7.084056 0.574404 3.154398 0
M  V30 44 H 5.863826 -0.358363 4.062609 0
M  V30 45 H 4.330557 0.135902 2.394031 0
M  V30 46 H 5.625117 0.986862 1.540505 0
M  V30 47 H 5.096271 -3.543038 1.050208 0
M  V30 48 H 1.126484 -3.470675 -0.500898 0
M  V30 49 H 0.302654 -0.922399 -1.064848 0
M  V30 50 H 1.539056 5.078673 -1.155914 0
M  V30 51 H -1.077721 5.462098 -2.204663 0
M  V30 52 H -3.147743 4.199199 -2.885003 0
M  V30 53 H -4.140100 2.718366 -4.307585 0
M  V30 54 H -6.496083 -0.749867 -3.547523 0
M  V30 55 H -4.422773 -2.329288 -2.106033 0
M  V30 56 H -6.036791 -3.814054 -0.559142 0
M  V30 57 H -4.563477 -3.469246 0.388160 0
M  V30 58 H -5.206021 -4.985222 2.421268 0
M  V30 59 H -6.135174 -5.429440 0.976508 0
M  V30 60 H -7.031523 -5.175892 2.485909 0
M  V30 61 H -8.366943 -4.045410 1.106983 0
M  V30 62 H -8.174113 -2.945856 2.476185 0
M  V30 63 H -8.123848 -2.223087 0.868476 0
M  V30 64 H -6.264769 -2.842042 3.578889 0
M  V30 65 H -6.064186 -1.451164 2.499697 0
M  V30 66 H -4.699349 -2.626893 2.761820 0
M  V30 67 H -3.066291 0.044380 -1.249221 0
M  V30 68 H -1.187742 0.616012 -1.786558 0
M  V30 69 H 3.734769 1.130912 0.073998 0
M  V30 70 H 6.940710 -1.637767 -0.427083 0
M  V30 71 H 7.246128 0.015465 0.310749 0
M  V30 72 H 8.687946 -1.205561 1.535835 0
M  V30 73 H 7.813259 -2.751341 1.308256 0
M  V30 END ATOM
M  V30 BEGIN BOND
M  V30 1 1 1 2
M  V30 2 1 2 3
M  V30 3 1 3 4
M  V30 4 1 4 5
M  V30 5 1 5 6
M  V30 6 2 6 7
M  V30 7 1 7 8
M  V30 8 2 8 9
M  V30 9 1 9 10
M  V30 10 1 10 11
M  V30 11 1 11 12
M  V30 12 1 12 13
M  V30 13 2 13 14
M  V30 14 1 14 15
M  V30 15 1 15 16
M  V30 16 2 16 17
M  V30 17 1 17 18
M  V30 18 2 18 19
M  V30 19 1 19 20
M  V30 20 2 20 21
M  V30 21 1 21 22
M  V30 22 2 22 23
M  V30 23 1 23 24
M  V30 24 1 24 25
M  V30 25 1 25 26
M  V30 26 2 26 27
M  V30 27 1 26 28
M  V30 28 1 28 29
M  V30 29 1 29 30
M  V30 30 1 29 31
M  V30 31 1 29 32
M  V30 32 2 24 33
M  V30 33 1 19 34
M  V30 34 2 34 35
M  V30 35 2 12 36
M  V30 36 1 36 37
M  V30 37 1 5 38
M  V30 38 1 38 39
M  V30 39 1 39 2
M  V30 40 1 37 6
M  V30 41 2 37 10
M  V30 42 1 35 13
M  V30 43 1 35 16
M  V30 44 1 33 20
M  V30 45 1 1 40
M  V30 46 1 1 41
M  V30 47 1 1 42
M  V30 48 1 3 43
M  V30 49 1 3 44
M  V30 50 1 4 45
M  V30 51 1 4 46
M  V30 52 1 7 47
M  V30 53 1 9 48
M  V30 54 1 11 49
M  V30 55 1 15 50
M  V30 56 1 17 51
M  V30 57 1 18 52
M  V30 58 1 21 53
M  V30 59 1 23 54
M  V30 60 1 25 55
M  V30 61 1 28 56
M  V30 62 1 28 57
M  V30 63 1 30 58
M  V30 64 1 30 59
M  V30 65 1 30 60
M  V30 66 1 31 61
M  V30 67 1 31 62
M  V30 68 1 31 63
M  V30 69 1 32 64
M  V30 70 1 32 65
M  V30 71 1 32 66
M  V30 72 1 33 67
M  V30 73 1 34 68
M  V30 74 1 36 69
M  V30 75 1 38 70
M  V30 76 1 38 71
M  V30 77 1 39 72
M  V30 78 1 39 73
M  V30 END BOND
M  V30 END CTAB
M  END
>  <Dataset>  (625) 
ChEMBL_Kinases

>  <Ligand_Instance>  (625) 
nan

>  <PDB_ID>  (625) 
nan

>  <Standardized_SMILES>  (625) 
CN1CCN(c2cncc3[nH]c(-c4n[nH]c5ccc(-c6cncc(NC(=O)CC(C)(C)C)c6)cc45)cc23)CC1

>  <Name>  (625) 
nan

>  <Pocket>  (625) 
nan

>  <ATP_Site>  (625) 
nan

>  <Peripheral>  (625) 
nan

>  <Num_H_Atoms_ProtBoundConf>  (625) 
nan

>  <Num_Resolved_Atoms>  (625) 
nan

>  <Num_Not_Resolved_Atoms>  (625) 
nan

$$$$
CHEMBL4756935
     RDKit          3D

  0  0  0  0  0  0  0  0  0  0999 V3000
M  V30 BEGIN CTAB
M  V30 COUNTS 68 71 0 0 0
M  V30 BEGIN ATOM
M  V30 1 C -0.927598 0.644061 5.379610 0
M  V30 2 C 0.067283 1.471308 5.645949 0
M  V30 3 C 0.735260 1.726313 4.383898 0
M  V30 4 O 0.123389 1.062778 3.478803 0
M  V30 5 N 1.860147 2.535171 4.077848 0
M  V30 6 C 2.309826 2.602061 2.726275 0
M  V30 7 C 1.749007 3.602010 1.935111 0
M  V30 8 C 2.139608 3.726303 0.611536 0
M  V30 9 C 3.088404 2.872174 0.037646 0
M  V30 10 S 3.446457 3.179754 -1.619725 0
M  V30 11 O 4.899999 2.813618 -1.857475 0
M  V30 12 O 3.356313 4.658277 -1.908540 0
M  V30 13 N 2.492408 2.339465 -2.742507 0
M  V30 14 C 2.577323 0.930011 -2.697465 0
M  V30 15 C 1.571155 0.212627 -1.866393 0
M  V30 16 C 0.245829 0.927664 -1.798965 0
M  V30 17 C 0.058133 1.928625 -2.886577 0
M  V30 18 N -0.292329 1.396913 -4.167883 0
M  V30 19 C -1.412731 0.643855 -4.547407 0
M  V30 20 N -1.894586 0.124338 -5.479114 0
M  V30 21 C -3.037561 -0.539776 -5.464770 0
M  V30 22 C -3.751390 -0.659209 -4.299034 0
M  V30 23 S -5.257521 -1.474554 -4.065077 0
M  V30 24 C -5.016851 -3.188675 -3.635753 0
M  V30 25 C -4.375639 -3.430150 -2.332576 0
M  V30 26 N -4.874455 -3.587248 -1.092634 0
M  V30 27 C -3.844155 -3.783257 -0.255673 0
M  V30 28 C -2.705740 -3.741518 -1.017338 0
M  V30 29 C -1.287332 -3.908499 -0.538277 0
M  V30 30 C -0.732211 -2.572605 -0.169724 0
M  V30 31 C -1.297760 -4.783660 0.699242 0
M  V30 32 C -0.548068 -4.585212 -1.682859 0
M  V30 33 O -3.051787 -3.524301 -2.285842 0
M  V30 34 S -2.666409 0.262788 -3.170528 0
M  V30 35 C 1.199061 2.890368 -2.970867 0
M  V30 36 C 3.621030 1.894142 0.853932 0
M  V30 37 C 3.247686 1.750640 2.175043 0
M  V30 38 H -1.330105 0.152547 4.519452 0
M  V30 39 H -1.653725 0.222712 6.062980 0
M  V30 40 H 0.117464 1.726771 6.683787 0
M  V30 41 H 2.212588 2.989927 4.947148 0
M  V30 42 H 0.999864 4.291725 2.354142 0
M  V30 43 H 1.659859 4.532452 0.048194 0
M  V30 44 H 2.572554 0.560668 -3.749844 0
M  V30 45 H 3.600745 0.668207 -2.325702 0
M  V30 46 H 1.973928 0.070731 -0.842302 0
M  V30 47 H 1.435395 -0.834265 -2.269811 0
M  V30 48 H 0.244366 1.516812 -0.834571 0
M  V30 49 H -0.578940 0.224884 -1.718213 0
M  V30 50 H -0.832094 2.551643 -2.571353 0
M  V30 51 H 0.355758 1.574168 -4.959912 0
M  V30 52 H -3.372829 -0.979034 -6.418770 0
M  V30 53 H -6.043250 -3.657173 -3.602676 0
M  V30 54 H -4.511793 -3.730078 -4.470874 0
M  V30 55 H -3.903325 -3.944328 0.822381 0
M  V30 56 H 0.341866 -2.462325 -0.358461 0
M  V30 57 H -0.894443 -2.408382 0.924788 0
M  V30 58 H -1.357536 -1.782365 -0.663064 0
M  V30 59 H -2.251414 -5.342992 0.817802 0
M  V30 60 H -1.175715 -4.180810 1.633949 0
M  V30 61 H -0.410350 -5.440746 0.625301 0
M  V30 62 H -0.915620 -4.122174 -2.605217 0
M  V30 63 H 0.534808 -4.619335 -1.551263 0
M  V30 64 H -0.937314 -5.643936 -1.675748 0
M  V30 65 H 1.070761 3.757026 -2.290460 0
M  V30 66 H 1.191410 3.323877 -4.013531 0
M  V30 67 H 4.350068 1.254633 0.375184 0
M  V30 68 H 3.671894 0.987421 2.789622 0
M  V30 END ATOM
M  V30 BEGIN BOND
M  V30 1 2 1 2
M  V30 2 1 2 3
M  V30 3 2 3 4
M  V30 4 1 3 5
M  V30 5 1 5 6
M  V30 6 2 6 7
M  V30 7 1 7 8
M  V30 8 2 8 9
M  V30 9 1 9 10
M  V30 10 2 10 11
M  V30 11 2 10 12
M  V30 12 1 10 13
M  V30 13 1 13 14
M  V30 14 1 14 15
M  V30 15 1 15 16
M  V30 16 1 16 17
M  V30 17 1 17 18
M  V30 18 1 18 19
M  V30 19 2 19 20
M  V30 20 1 20 21
M  V30 21 2 21 22
M  V30 22 1 22 23
M  V30 23 1 23 24
M  V30 24 1 24 25
M  V30 25 2 25 26
M  V30 26 1 26 27
M  V30 27 2 27 28
M  V30 28 1 28 29
M  V30 29 1 29 30
M  V30 30 1 29 31
M  V30 31 1 29 32
M  V30 32 1 28 33
M  V30 33 1 22 34
M  V30 34 1 17 35
M  V30 35 1 9 36
M  V30 36 2 36 37
M  V30 37 1 37 6
M  V30 38 1 35 13
M  V30 39 1 34 19
M  V30 40 1 33 25
M  V30 41 1 1 38
M  V30 42 1 1 39
M  V30 43 1 2 40
M  V30 44 1 5 41
M  V30 45 1 7 42
M  V30 46 1 8 43
M  V30 47 1 14 44
M  V30 48 1 14 45
M  V30 49 1 15 46
M  V30 50 1 15 47
M  V30 51 1 16 48
M  V30 52 1 16 49
M  V30 53 1 17 50
M  V30 54 1 18 51
M  V30 55 1 21 52
M  V30 56 1 24 53
M  V30 57 1 24 54
M  V30 58 1 27 55
M  V30 59 1 30 56
M  V30 60 1 30 57
M  V30 61 1 30 58
M  V30 62 1 31 59
M  V30 63 1 31 60
M  V30 64 1 31 61
M  V30 65 1 32 62
M  V30 66 1 32 63
M  V30 67 1 32 64
M  V30 68 1 35 65
M  V30 69 1 35 66
M  V30 70 1 36 67
M  V30 71 1 37 68
M  V30 END BOND
M  V30 END CTAB
M  END
>  <Dataset>  (626) 
ChEMBL_Kinases

>  <Ligand_Instance>  (626) 
nan

>  <PDB_ID>  (626) 
nan

>  <Standardized_SMILES>  (626) 
C=CC(=O)Nc1ccc(S(=O)(=O)N2CCCC(Nc3ncc(SCc4ncc(C(C)(C)C)o4)s3)C2)cc1

>  <Name>  (626) 
nan

>  <Pocket>  (626) 
nan

>  <ATP_Site>  (626) 
nan

>  <Peripheral>  (626) 
nan

>  <Num_H_Atoms_ProtBoundConf>  (626) 
nan

>  <Num_Resolved_Atoms>  (626) 
nan

>  <Num_Not_Resolved_Atoms>  (626) 
nan

$$$$
CHEMBL4756871
     RDKit          3D

  0  0  0  0  0  0  0  0  0  0999 V3000
M  V30 BEGIN CTAB
M  V30 COUNTS 56 61 0 0 0
M  V30 BEGIN ATOM
M  V30 1 O -0.683054 -5.232003 -0.829368 0
M  V30 2 C -1.527852 -5.186649 0.096855 0
M  V30 3 N -1.399065 -4.203462 1.116258 0
M  V30 4 C -0.446300 -3.170309 1.342710 0
M  V30 5 C 0.690205 -3.393068 2.092691 0
M  V30 6 N 1.584117 -2.409101 2.300145 0
M  V30 7 C 1.398376 -1.180524 1.784246 0
M  V30 8 C 0.293560 -0.866576 1.023030 0
M  V30 9 C -0.003506 0.428684 0.418758 0
M  V30 10 C 0.816360 1.526997 0.544302 0
M  V30 11 C 0.553574 2.755274 -0.017546 0
M  V30 12 C 1.252846 3.937962 0.008329 0
M  V30 13 C 2.502216 4.314400 0.627902 0
M  V30 14 C 3.019781 5.603508 0.510663 0
M  V30 15 C 4.200206 5.758702 1.162279 0
M  V30 16 C 5.099301 6.777422 1.361470 0
M  V30 17 N 6.223763 6.621290 2.082536 0
M  V30 18 C 6.461368 5.418126 2.621044 0
M  V30 19 C 5.601401 4.327684 2.468820 0
M  V30 20 C 4.460471 4.528534 1.723188 0
M  V30 21 N 3.437395 3.736215 1.375502 0
M  V30 22 N 0.460928 4.747400 -0.730294 0
M  V30 23 N -0.611586 4.120945 -1.161964 0
M  V30 24 C -0.611828 2.856325 -0.744660 0
M  V30 25 C -1.443740 1.767193 -0.880398 0
M  V30 26 N -1.140266 0.588217 -0.310602 0
M  V30 27 C -0.594075 -1.903509 0.836789 0
M  V30 28 C -2.741831 -6.016809 0.378334 0
M  V30 29 C -3.992632 -5.171697 0.402712 0
M  V30 30 C -4.551281 -4.869978 -0.961679 0
M  V30 31 C -4.533786 -6.020639 -1.912087 0
M  V30 32 C -4.203368 -7.293558 -1.155825 0
M  V30 33 C -2.785201 -7.103162 -0.642115 0
M  V30 34 H -1.986071 -4.003226 1.957578 0
M  V30 35 H 0.837270 -4.400649 2.512637 0
M  V30 36 H 2.121096 -0.396007 1.955577 0
M  V30 37 H 1.693704 1.384676 1.113554 0
M  V30 38 H 2.596299 6.467333 -0.026556 0
M  V30 39 H 4.882820 7.737020 0.915908 0
M  V30 40 H 7.361790 5.268852 3.206467 0
M  V30 41 H 5.779935 3.354037 2.896404 0
M  V30 42 H 3.402454 2.751801 1.679525 0
M  V30 43 H -1.339299 4.584210 -1.748098 0
M  V30 44 H -2.350000 1.880813 -1.457396 0
M  V30 45 H -1.493106 -1.716577 0.239959 0
M  V30 46 H -2.621763 -6.451234 1.395934 0
M  V30 47 H -3.725866 -4.211651 0.898475 0
M  V30 48 H -4.759187 -5.715450 0.989868 0
M  V30 49 H -4.096877 -3.953367 -1.420742 0
M  V30 50 H -5.633121 -4.597675 -0.819278 0
M  V30 51 H -5.482256 -6.193744 -2.458784 0
M  V30 52 H -3.733009 -5.855291 -2.660903 0
M  V30 53 H -4.936609 -7.472260 -0.361009 0
M  V30 54 H -4.138325 -8.114534 -1.901222 0
M  V30 55 H -2.150569 -6.906294 -1.530049 0
M  V30 56 H -2.392304 -8.040484 -0.187027 0
M  V30 END ATOM
M  V30 BEGIN BOND
M  V30 1 2 1 2
M  V30 2 1 2 3
M  V30 3 1 3 4
M  V30 4 2 4 5
M  V30 5 1 5 6
M  V30 6 2 6 7
M  V30 7 1 7 8
M  V30 8 1 8 9
M  V30 9 2 9 10
M  V30 10 1 10 11
M  V30 11 1 11 12
M  V30 12 1 12 13
M  V30 13 2 13 14
M  V30 14 1 14 15
M  V30 15 2 15 16
M  V30 16 1 16 17
M  V30 17 2 17 18
M  V30 18 1 18 19
M  V30 19 2 19 20
M  V30 20 1 20 21
M  V30 21 2 12 22
M  V30 22 1 22 23
M  V30 23 1 23 24
M  V30 24 1 24 25
M  V30 25 2 25 26
M  V30 26 2 8 27
M  V30 27 1 2 28
M  V30 28 1 28 29
M  V30 29 1 29 30
M  V30 30 1 30 31
M  V30 31 1 31 32
M  V30 32 1 32 33
M  V30 33 1 27 4
M  V30 34 1 33 28
M  V30 35 1 26 9
M  V30 36 2 24 11
M  V30 37 1 21 13
M  V30 38 1 20 15
M  V30 39 1 3 34
M  V30 40 1 5 35
M  V30 41 1 7 36
M  V30 42 1 10 37
M  V30 43 1 14 38
M  V30 44 1 16 39
M  V30 45 1 18 40
M  V30 46 1 19 41
M  V30 47 1 21 42
M  V30 48 1 23 43
M  V30 49 1 25 44
M  V30 50 1 27 45
M  V30 51 1 28 46
M  V30 52 1 29 47
M  V30 53 1 29 48
M  V30 54 1 30 49
M  V30 55 1 30 50
M  V30 56 1 31 51
M  V30 57 1 31 52
M  V30 58 1 32 53
M  V30 59 1 32 54
M  V30 60 1 33 55
M  V30 61 1 33 56
M  V30 END BOND
M  V30 END CTAB
M  END
>  <Dataset>  (627) 
ChEMBL_Kinases

>  <Ligand_Instance>  (627) 
nan

>  <PDB_ID>  (627) 
nan

>  <Standardized_SMILES>  (627) 
O=C(Nc1cncc(-c2cc3c(-c4cc5cnccc5[nH]4)n[nH]c3cn2)c1)C1CCCCC1

>  <Name>  (627) 
nan

>  <Pocket>  (627) 
nan

>  <ATP_Site>  (627) 
nan

>  <Peripheral>  (627) 
nan

>  <Num_H_Atoms_ProtBoundConf>  (627) 
nan

>  <Num_Resolved_Atoms>  (627) 
nan

>  <Num_Not_Resolved_Atoms>  (627) 
nan

$$$$
CHEMBL4756681
     RDKit          3D

  0  0  0  0  0  0  0  0  0  0999 V3000
M  V30 BEGIN CTAB
M  V30 COUNTS 62 67 0 0 0
M  V30 BEGIN ATOM
M  V30 1 C 0.885069 0.504653 5.643773 0
M  V30 2 N 1.413086 -0.594603 4.822463 0
M  V30 3 C 1.325170 -1.771722 5.681980 0
M  V30 4 C 0.475985 -0.785297 3.747678 0
M  V30 5 C 0.885443 -1.889469 2.812916 0
M  V30 6 N 2.143108 -1.709973 2.167334 0
M  V30 7 C 2.572303 -0.765769 1.198025 0
M  V30 8 C 3.874797 -0.721934 0.697917 0
M  V30 9 C 4.252839 0.198087 -0.250450 0
M  V30 10 F 5.544707 0.142606 -0.658812 0
M  V30 11 C 3.367999 1.123449 -0.756338 0
M  V30 12 C 2.073698 1.105183 -0.282064 0
M  V30 13 C 1.191758 2.112821 -0.858438 0
M  V30 14 C 1.703812 3.413360 -0.932772 0
M  V30 15 C 1.003274 4.484438 -1.445280 0
M  V30 16 C -0.277378 4.291977 -1.918831 0
M  V30 17 C -0.793984 3.018017 -1.852157 0
M  V30 18 N -1.980404 2.461497 -2.210786 0
M  V30 19 C -2.029632 1.149836 -1.948950 0
M  V30 20 C -3.151455 0.255094 -2.209094 0
M  V30 21 N -4.317553 0.630270 -2.759875 0
M  V30 22 N -5.128508 -0.423590 -2.860435 0
M  V30 23 C -4.453710 -1.471863 -2.363135 0
M  V30 24 C -4.869529 -2.780424 -2.249595 0
M  V30 25 C -3.953070 -3.658566 -1.691338 0
M  V30 26 C -2.702403 -3.272277 -1.270042 0
M  V30 27 C -1.736074 -4.190968 -0.682806 0
M  V30 28 C -0.511967 -3.698820 -0.294832 0
M  V30 29 N 0.423521 -4.520786 0.259239 0
M  V30 30 C 0.196248 -5.833216 0.449716 0
M  V30 31 N -1.001799 -6.314125 0.069838 0
M  V30 32 C -1.954897 -5.537225 -0.481648 0
M  V30 33 N -2.321569 -1.988692 -1.392333 0
M  V30 34 C -3.198473 -1.096608 -1.937638 0
M  V30 35 C -0.812261 0.776090 -1.378057 0
M  V30 36 C -0.091319 1.951264 -1.339742 0
M  V30 37 C 1.730583 0.172440 0.665109 0
M  V30 38 H -0.237441 0.429813 5.687835 0
M  V30 39 H 1.259182 0.447650 6.693442 0
M  V30 40 H 1.199996 1.484974 5.230114 0
M  V30 41 H 1.840463 -1.506512 6.630092 0
M  V30 42 H 0.254122 -1.951726 5.938978 0
M  V30 43 H 1.773838 -2.670517 5.233160 0
M  V30 44 H -0.489371 -1.093628 4.250080 0
M  V30 45 H 0.242385 0.164628 3.243299 0
M  V30 46 H 0.881957 -2.842072 3.377239 0
M  V30 47 H 0.110967 -2.046205 2.007904 0
M  V30 48 H 2.920072 -2.389383 2.440136 0
M  V30 49 H 4.594942 -1.452275 1.089424 0
M  V30 50 H 3.704161 1.830169 -1.500901 0
M  V30 51 H 2.713510 3.656993 -0.579241 0
M  V30 52 H 1.432453 5.475164 -1.486145 0
M  V30 53 H -0.850728 5.099005 -2.323230 0
M  V30 54 H -2.773189 2.985010 -2.642721 0
M  V30 55 H -6.112606 -0.425033 -3.256913 0
M  V30 56 H -5.836145 -3.131471 -2.563925 0
M  V30 57 H -4.261840 -4.687691 -1.594695 0
M  V30 58 H -0.224663 -2.662339 -0.401774 0
M  V30 59 H 0.997643 -6.397051 0.894218 0
M  V30 60 H -2.890813 -5.950357 -0.770354 0
M  V30 61 H -0.524265 -0.210777 -1.051202 0
M  V30 62 H 0.696776 0.256239 0.948346 0
M  V30 END ATOM
M  V30 BEGIN BOND
M  V30 1 1 1 2
M  V30 2 1 2 3
M  V30 3 1 2 4
M  V30 4 1 4 5
M  V30 5 1 5 6
M  V30 6 1 6 7
M  V30 7 2 7 8
M  V30 8 1 8 9
M  V30 9 1 9 10
M  V30 10 2 9 11
M  V30 11 1 11 12
M  V30 12 1 12 13
M  V30 13 2 13 14
M  V30 14 1 14 15
M  V30 15 2 15 16
M  V30 16 1 16 17
M  V30 17 1 17 18
M  V30 18 1 18 19
M  V30 19 1 19 20
M  V30 20 2 20 21
M  V30 21 1 21 22
M  V30 22 1 22 23
M  V30 23 2 23 24
M  V30 24 1 24 25
M  V30 25 2 25 26
M  V30 26 1 26 27
M  V30 27 2 27 28
M  V30 28 1 28 29
M  V30 29 2 29 30
M  V30 30 1 30 31
M  V30 31 2 31 32
M  V30 32 1 26 33
M  V30 33 2 33 34
M  V30 34 2 19 35
M  V30 35 1 35 36
M  V30 36 2 12 37
M  V30 37 1 37 7
M  V30 38 1 36 13
M  V30 39 2 36 17
M  V30 40 1 34 20
M  V30 41 1 34 23
M  V30 42 1 32 27
M  V30 43 1 1 38
M  V30 44 1 1 39
M  V30 45 1 1 40
M  V30 46 1 3 41
M  V30 47 1 3 42
M  V30 48 1 3 43
M  V30 49 1 4 44
M  V30 50 1 4 45
M  V30 51 1 5 46
M  V30 52 1 5 47
M  V30 53 1 6 48
M  V30 54 1 8 49
M  V30 55 1 11 50
M  V30 56 1 14 51
M  V30 57 1 15 52
M  V30 58 1 16 53
M  V30 59 1 18 54
M  V30 60 1 22 55
M  V30 61 1 24 56
M  V30 62 1 25 57
M  V30 63 1 28 58
M  V30 64 1 30 59
M  V30 65 1 32 60
M  V30 66 1 35 61
M  V30 67 1 37 62
M  V30 END BOND
M  V30 END CTAB
M  END
>  <Dataset>  (628) 
ChEMBL_Kinases

>  <Ligand_Instance>  (628) 
nan

>  <PDB_ID>  (628) 
nan

>  <Standardized_SMILES>  (628) 
CN(C)CCNc1cc(F)cc(-c2cccc3[nH]c(-c4n[nH]c5ccc(-c6cncnc6)nc45)cc23)c1

>  <Name>  (628) 
nan

>  <Pocket>  (628) 
nan

>  <ATP_Site>  (628) 
nan

>  <Peripheral>  (628) 
nan

>  <Num_H_Atoms_ProtBoundConf>  (628) 
nan

>  <Num_Resolved_Atoms>  (628) 
nan

>  <Num_Not_Resolved_Atoms>  (628) 
nan

$$$$
CHEMBL4291088
     RDKit          3D

  0  0  0  0  0  0  0  0  0  0999 V3000
M  V30 BEGIN CTAB
M  V30 COUNTS 29 31 0 0 0
M  V30 BEGIN ATOM
M  V30 1 C -1.598517 -3.997548 1.400666 0
M  V30 2 N -0.716409 -3.031004 2.043646 0
M  V30 3 C -0.092206 -1.917169 1.421139 0
M  V30 4 O -0.253872 -1.660826 0.201897 0
M  V30 5 C 0.700900 -1.212855 2.417813 0
M  V30 6 C 1.406121 -0.110575 2.230245 0
M  V30 7 C 1.489431 0.590098 0.956462 0
M  V30 8 C 2.649724 0.905580 0.276560 0
M  V30 9 C 2.627914 1.619841 -0.904471 0
M  V30 10 C 1.384936 2.001809 -1.369368 0
M  V30 11 C 0.191744 1.718903 -0.737758 0
M  V30 12 C 0.247538 0.998058 0.450204 0
M  V30 13 O -0.860053 2.265448 -1.500855 0
M  V30 14 C -0.318835 2.485247 -2.792830 0
M  V30 15 O 1.048550 2.727804 -2.529007 0
M  V30 16 N 0.500103 -1.965555 3.603574 0
M  V30 17 C -0.285647 -2.973209 3.396642 0
M  V30 18 N -0.657502 -3.891325 4.418111 0
M  V30 19 H -1.763779 -4.842392 2.077768 0
M  V30 20 H -1.065772 -4.318031 0.458530 0
M  V30 21 H -2.521600 -3.498999 1.052091 0
M  V30 22 H 1.933391 0.257636 3.087927 0
M  V30 23 H 3.577462 0.558409 0.726539 0
M  V30 24 H 3.555725 1.860728 -1.428943 0
M  V30 25 H -0.733062 0.836303 0.891526 0
M  V30 26 H -0.820599 3.339249 -3.266187 0
M  V30 27 H -0.425803 1.548489 -3.389502 0
M  V30 28 H 0.196909 -4.352694 4.832695 0
M  V30 29 H -1.673894 -3.993819 4.623583 0
M  V30 END ATOM
M  V30 BEGIN BOND
M  V30 1 1 1 2
M  V30 2 1 2 3
M  V30 3 2 3 4
M  V30 4 1 3 5
M  V30 5 2 5 6
M  V30 6 1 6 7
M  V30 7 2 7 8
M  V30 8 1 8 9
M  V30 9 2 9 10
M  V30 10 1 10 11
M  V30 11 2 11 12
M  V30 12 1 11 13
M  V30 13 1 13 14
M  V30 14 1 14 15
M  V30 15 1 5 16
M  V30 16 2 16 17
M  V30 17 1 17 18
M  V30 18 1 17 2
M  V30 19 1 12 7
M  V30 20 1 15 10
M  V30 21 1 1 19
M  V30 22 1 1 20
M  V30 23 1 1 21
M  V30 24 1 6 22
M  V30 25 1 8 23
M  V30 26 1 9 24
M  V30 27 1 12 25
M  V30 28 1 14 26
M  V30 29 1 14 27
M  V30 30 1 18 28
M  V30 31 1 18 29
M  V30 END BOND
M  V30 END CTAB
M  END
>  <Dataset>  (629) 
ChEMBL_Kinases

>  <Ligand_Instance>  (629) 
nan

>  <PDB_ID>  (629) 
nan

>  <Standardized_SMILES>  (629) 
CN1C(=O)/C(=C\c2ccc3c(c2)OCO3)N=C1N

>  <Name>  (629) 
nan

>  <Pocket>  (629) 
nan

>  <ATP_Site>  (629) 
nan

>  <Peripheral>  (629) 
nan

>  <Num_H_Atoms_ProtBoundConf>  (629) 
nan

>  <Num_Resolved_Atoms>  (629) 
nan

>  <Num_Not_Resolved_Atoms>  (629) 
nan

$$$$
CHEMBL4756656
     RDKit          3D

  0  0  0  0  0  0  0  0  0  0999 V3000
M  V30 BEGIN CTAB
M  V30 COUNTS 58 62 0 0 0
M  V30 BEGIN ATOM
M  V30 1 C 3.701371 -6.557391 4.835379 0
M  V30 2 N 3.498834 -5.844732 3.574563 0
M  V30 3 C 4.524058 -5.196440 2.981596 0
M  V30 4 C 4.092123 -4.605750 1.815793 0
M  V30 5 C 4.661008 -3.796792 0.749843 0
M  V30 6 C 4.009482 -2.681316 0.269044 0
M  V30 7 C 4.490177 -1.870187 -0.737813 0
M  V30 8 C 4.102421 -0.733684 -1.417991 0
M  V30 9 C 2.848612 -0.039145 -1.132738 0
M  V30 10 O 2.098639 -0.502401 -0.229145 0
M  V30 11 N 2.413704 1.127631 -1.806157 0
M  V30 12 C 1.135175 1.522992 -1.254505 0
M  V30 13 C 1.141464 2.401265 -0.166148 0
M  V30 14 C -0.101454 2.760456 0.340066 0
M  V30 15 C -1.251968 2.250651 -0.235547 0
M  V30 16 O -2.469343 2.655466 0.326048 0
M  V30 17 C -3.683841 2.160797 -0.227847 0
M  V30 18 C -4.912687 2.673331 0.467868 0
M  V30 19 N -6.143068 2.179525 -0.084356 0
M  V30 20 C -7.280996 2.707135 0.626830 0
M  V30 21 C -7.838118 1.579513 1.459898 0
M  V30 22 C -7.560346 0.377390 0.584644 0
M  V30 23 C -6.248790 0.744436 -0.074100 0
M  V30 24 C -1.231689 1.383603 -1.311417 0
M  V30 25 C -0.008140 1.006481 -1.838901 0
M  V30 26 N 5.033747 -0.406644 -2.331840 0
M  V30 27 N 6.035538 -1.298696 -2.278196 0
M  V30 28 C 5.723467 -2.205171 -1.307848 0
M  V30 29 C 6.408729 -3.330472 -0.842110 0
M  V30 30 C 5.883133 -4.123491 0.180509 0
M  V30 31 F 6.561728 -5.213656 0.621069 0
M  V30 32 C 2.738150 -4.935260 1.735834 0
M  V30 33 N 2.439802 -5.677493 2.815487 0
M  V30 34 H 4.358994 -7.454028 4.669117 0
M  V30 35 H 4.114023 -5.916147 5.631330 0
M  V30 36 H 2.706654 -6.899790 5.177285 0
M  V30 37 H 5.583226 -5.054840 3.234185 0
M  V30 38 H 3.055708 -2.417626 0.705826 0
M  V30 39 H 3.100059 1.450598 -2.548586 0
M  V30 40 H 2.104650 2.740127 0.206794 0
M  V30 41 H -0.091757 3.441169 1.183856 0
M  V30 42 H -3.669815 2.492499 -1.286509 0
M  V30 43 H -3.703820 1.042521 -0.147940 0
M  V30 44 H -4.934086 3.775130 0.390444 0
M  V30 45 H -4.904671 2.422876 1.548407 0
M  V30 46 H -7.060118 3.612776 1.197692 0
M  V30 47 H -8.111583 2.990496 -0.083871 0
M  V30 48 H -8.933088 1.704640 1.641952 0
M  V30 49 H -7.286368 1.449435 2.412429 0
M  V30 50 H -8.384856 0.281509 -0.149795 0
M  V30 51 H -7.453208 -0.551690 1.200016 0
M  V30 52 H -5.461545 0.233950 0.496285 0
M  V30 53 H -6.302290 0.409768 -1.139238 0
M  V30 54 H -2.130929 0.990154 -1.754908 0
M  V30 55 H 0.110555 0.333803 -2.678583 0
M  V30 56 H 6.907564 -1.305343 -2.872955 0
M  V30 57 H 7.373542 -3.595383 -1.285608 0
M  V30 58 H 1.946846 -4.726406 1.031827 0
M  V30 END ATOM
M  V30 BEGIN BOND
M  V30 1 1 1 2
M  V30 2 1 2 3
M  V30 3 2 3 4
M  V30 4 1 4 5
M  V30 5 2 5 6
M  V30 6 1 6 7
M  V30 7 1 7 8
M  V30 8 1 8 9
M  V30 9 2 9 10
M  V30 10 1 9 11
M  V30 11 1 11 12
M  V30 12 2 12 13
M  V30 13 1 13 14
M  V30 14 2 14 15
M  V30 15 1 15 16
M  V30 16 1 16 17
M  V30 17 1 17 18
M  V30 18 1 18 19
M  V30 19 1 19 20
M  V30 20 1 20 21
M  V30 21 1 21 22
M  V30 22 1 22 23
M  V30 23 1 15 24
M  V30 24 2 24 25
M  V30 25 2 8 26
M  V30 26 1 26 27
M  V30 27 1 27 28
M  V30 28 1 28 29
M  V30 29 2 29 30
M  V30 30 1 30 31
M  V30 31 1 4 32
M  V30 32 2 32 33
M  V30 33 1 33 2
M  V30 34 1 30 5
M  V30 35 2 28 7
M  V30 36 1 25 12
M  V30 37 1 23 19
M  V30 38 1 1 34
M  V30 39 1 1 35
M  V30 40 1 1 36
M  V30 41 1 3 37
M  V30 42 1 6 38
M  V30 43 1 11 39
M  V30 44 1 13 40
M  V30 45 1 14 41
M  V30 46 1 17 42
M  V30 47 1 17 43
M  V30 48 1 18 44
M  V30 49 1 18 45
M  V30 50 1 20 46
M  V30 51 1 20 47
M  V30 52 1 21 48
M  V30 53 1 21 49
M  V30 54 1 22 50
M  V30 55 1 22 51
M  V30 56 1 23 52
M  V30 57 1 23 53
M  V30 58 1 24 54
M  V30 59 1 25 55
M  V30 60 1 27 56
M  V30 61 1 29 57
M  V30 62 1 32 58
M  V30 END BOND
M  V30 END CTAB
M  END
>  <Dataset>  (630) 
ChEMBL_Kinases

>  <Ligand_Instance>  (630) 
nan

>  <PDB_ID>  (630) 
nan

>  <Standardized_SMILES>  (630) 
Cn1cc(-c2cc3c(C(=O)Nc4ccc(OCCN5CCCC5)cc4)n[nH]c3cc2F)cn1

>  <Name>  (630) 
nan

>  <Pocket>  (630) 
nan

>  <ATP_Site>  (630) 
nan

>  <Peripheral>  (630) 
nan

>  <Num_H_Atoms_ProtBoundConf>  (630) 
nan

>  <Num_Resolved_Atoms>  (630) 
nan

>  <Num_Not_Resolved_Atoms>  (630) 
nan

$$$$
CHEMBL4759166
     RDKit          3D

  0  0  0  0  0  0  0  0  0  0999 V3000
M  V30 BEGIN CTAB
M  V30 COUNTS 61 66 0 0 0
M  V30 BEGIN ATOM
M  V30 1 C 4.030826 -0.607963 7.953407 0
M  V30 2 C 4.580864 -0.732017 6.556737 0
M  V30 3 C 3.834962 -0.912378 5.409622 0
M  V30 4 N 4.620874 -0.984771 4.316847 0
M  V30 5 C 4.192472 -1.168654 2.971799 0
M  V30 6 C 5.007200 -1.710720 1.993034 0
M  V30 7 C 4.480770 -1.850382 0.715300 0
M  V30 8 N 3.215154 -1.485517 0.375346 0
M  V30 9 C 2.403729 -0.960467 1.291164 0
M  V30 10 N 1.146029 -0.493140 1.361618 0
M  V30 11 C 0.825082 -0.059497 2.604456 0
M  V30 12 C -0.387850 0.508634 3.160776 0
M  V30 13 N -0.561046 0.898612 4.456483 0
M  V30 14 N -1.757678 1.378095 4.628840 0
M  V30 15 C -2.407608 1.318563 3.454105 0
M  V30 16 C -3.670395 1.676751 3.030584 0
M  V30 17 C -4.032896 1.475825 1.694437 0
M  V30 18 C -3.160402 0.924020 0.770599 0
M  V30 19 C -3.676861 0.768907 -0.588765 0
M  V30 20 C -4.913669 1.112698 -1.046145 0
M  V30 21 N -5.224437 0.902971 -2.343709 0
M  V30 22 C -4.349703 0.361177 -3.213440 0
M  V30 23 C -3.082380 -0.002283 -2.788861 0
M  V30 24 N -2.241619 -0.563025 -3.790350 0
M  V30 25 C -2.325937 -1.974252 -3.917469 0
M  V30 26 O -3.086280 -2.698870 -3.204290 0
M  V30 27 C -1.559935 -2.824913 -4.880082 0
M  V30 28 C -1.943877 -4.262318 -4.702442 0
M  V30 29 C -1.857082 -2.427117 -6.307413 0
M  V30 30 C -0.066385 -2.621918 -4.642099 0
M  V30 31 C -2.753086 0.206787 -1.466568 0
M  V30 32 N -1.947413 0.594559 1.234923 0
M  V30 33 C -1.565275 0.769948 2.497250 0
M  V30 34 N 1.954641 -0.279762 3.316514 0
M  V30 35 C 2.920879 -0.819587 2.560042 0
M  V30 36 C 5.871871 -0.847868 4.788841 0
M  V30 37 N 5.852656 -0.695295 6.139733 0
M  V30 38 H 3.937809 -1.587852 8.426344 0
M  V30 39 H 4.587395 0.129471 8.551921 0
M  V30 40 H 2.988472 -0.179981 7.872910 0
M  V30 41 H 2.736697 -0.981433 5.446534 0
M  V30 42 H 6.002488 -2.001277 2.250059 0
M  V30 43 H 5.163032 -2.282530 -0.015637 0
M  V30 44 H 0.482778 -0.459449 0.571294 0
M  V30 45 H -2.157373 1.747670 5.520081 0
M  V30 46 H -4.306069 2.103039 3.804678 0
M  V30 47 H -5.048427 1.811841 1.550762 0
M  V30 48 H -5.609156 1.547813 -0.345918 0
M  V30 49 H -4.708852 0.236798 -4.241942 0
M  V30 50 H -1.573190 -0.079816 -4.438257 0
M  V30 51 H -1.018335 -4.864667 -4.796638 0
M  V30 52 H -2.593900 -4.608733 -5.557523 0
M  V30 53 H -2.418816 -4.473547 -3.738981 0
M  V30 54 H -2.577110 -3.149116 -6.788480 0
M  V30 55 H -0.906456 -2.368190 -6.909552 0
M  V30 56 H -2.275890 -1.403882 -6.357301 0
M  V30 57 H 0.444583 -3.582098 -4.760436 0
M  V30 58 H 0.366907 -1.886333 -5.354292 0
M  V30 59 H 0.035644 -2.271608 -3.602339 0
M  V30 60 H -1.733063 -0.118064 -1.249847 0
M  V30 61 H 6.786820 -0.853507 4.207167 0
M  V30 END ATOM
M  V30 BEGIN BOND
M  V30 1 1 1 2
M  V30 2 2 2 3
M  V30 3 1 3 4
M  V30 4 1 4 5
M  V30 5 2 5 6
M  V30 6 1 6 7
M  V30 7 2 7 8
M  V30 8 1 8 9
M  V30 9 1 9 10
M  V30 10 1 10 11
M  V30 11 1 11 12
M  V30 12 2 12 13
M  V30 13 1 13 14
M  V30 14 1 14 15
M  V30 15 2 15 16
M  V30 16 1 16 17
M  V30 17 2 17 18
M  V30 18 1 18 19
M  V30 19 2 19 20
M  V30 20 1 20 21
M  V30 21 2 21 22
M  V30 22 1 22 23
M  V30 23 1 23 24
M  V30 24 1 24 25
M  V30 25 2 25 26
M  V30 26 1 25 27
M  V30 27 1 27 28
M  V30 28 1 27 29
M  V30 29 1 27 30
M  V30 30 2 23 31
M  V30 31 1 18 32
M  V30 32 2 32 33
M  V30 33 2 11 34
M  V30 34 1 34 35
M  V30 35 1 4 36
M  V30 36 2 36 37
M  V30 37 1 37 2
M  V30 38 1 35 5
M  V30 39 2 35 9
M  V30 40 1 33 12
M  V30 41 1 33 15
M  V30 42 1 31 19
M  V30 43 1 1 38
M  V30 44 1 1 39
M  V30 45 1 1 40
M  V30 46 1 3 41
M  V30 47 1 6 42
M  V30 48 1 7 43
M  V30 49 1 10 44
M  V30 50 1 14 45
M  V30 51 1 16 46
M  V30 52 1 17 47
M  V30 53 1 20 48
M  V30 54 1 22 49
M  V30 55 1 24 50
M  V30 56 1 28 51
M  V30 57 1 28 52
M  V30 58 1 28 53
M  V30 59 1 29 54
M  V30 60 1 29 55
M  V30 61 1 29 56
M  V30 62 1 30 57
M  V30 63 1 30 58
M  V30 64 1 30 59
M  V30 65 1 31 60
M  V30 66 1 36 61
M  V30 END BOND
M  V30 END CTAB
M  END
>  <Dataset>  (631) 
ChEMBL_Kinases

>  <Ligand_Instance>  (631) 
nan

>  <PDB_ID>  (631) 
nan

>  <Standardized_SMILES>  (631) 
Cc1cn(-c2ccnc3[nH]c(-c4n[nH]c5ccc(-c6cncc(NC(=O)C(C)(C)C)c6)nc45)nc23)cn1

>  <Name>  (631) 
nan

>  <Pocket>  (631) 
nan

>  <ATP_Site>  (631) 
nan

>  <Peripheral>  (631) 
nan

>  <Num_H_Atoms_ProtBoundConf>  (631) 
nan

>  <Num_Resolved_Atoms>  (631) 
nan

>  <Num_Not_Resolved_Atoms>  (631) 
nan

$$$$
CHEMBL300422
     RDKit          3D

  0  0  0  0  0  0  0  0  0  0999 V3000
M  V30 BEGIN CTAB
M  V30 COUNTS 59 62 0 0 0
M  V30 BEGIN ATOM
M  V30 1 O 1.267737 -1.914581 3.255495 0
M  V30 2 C 0.606288 -1.200038 2.457478 0
M  V30 3 O 0.930108 0.145568 2.327886 0
M  V30 4 C 1.984731 0.640800 3.098696 0
M  V30 5 C 1.656595 1.873314 3.888256 0
M  V30 6 N 2.956634 2.487283 4.134709 0
M  V30 7 C 3.837816 2.016769 3.090111 0
M  V30 8 C 2.987113 1.221312 2.116141 0
M  V30 9 C 3.793078 0.158381 1.409287 0
M  V30 10 C 4.717195 0.877506 0.493457 0
M  V30 11 C 4.326154 1.171868 -0.817285 0
M  V30 12 C 5.078649 1.827632 -1.762161 0
M  V30 13 C 6.351331 2.224429 -1.339603 0
M  V30 14 O 7.126192 2.892739 -2.292865 0
M  V30 15 C 6.790145 1.967087 -0.075764 0
M  V30 16 C 5.995588 1.302543 0.842852 0
M  V30 17 C -0.485123 -1.772734 1.678271 0
M  V30 18 C -0.743698 -3.109338 1.862144 0
M  V30 19 C -1.780404 -3.719371 1.144184 0
M  V30 20 O -1.972859 -5.075452 1.391398 0
M  V30 21 C -2.541492 -2.993567 0.258089 0
M  V30 22 C -3.550098 -3.640259 -0.537997 0
M  V30 23 O -3.212714 -4.866910 -0.599440 0
M  V30 24 C -4.755037 -3.411178 -1.267244 0
M  V30 25 C -4.951152 -4.266564 -2.360126 0
M  V30 26 O -4.044705 -5.270053 -2.752606 0
M  V30 27 C -6.077496 -4.209962 -3.180247 0
M  V30 28 C -7.004086 -3.257944 -2.859983 0
M  V30 29 C -6.901262 -2.381526 -1.812123 0
M  V30 30 C -5.763188 -2.505526 -1.052951 0
M  V30 31 C -5.757372 -1.675153 0.170062 0
M  V30 32 O -5.088038 -1.531701 1.219906 0
M  V30 33 O -6.678265 -0.695604 0.447260 0
M  V30 34 C -2.198597 -1.639690 0.139908 0
M  V30 35 O -2.893716 -0.786698 -0.741107 0
M  V30 36 C -1.197638 -0.978592 0.811821 0
M  V30 37 H 2.483069 -0.070723 3.753123 0
M  V30 38 H 1.074004 2.616580 3.309687 0
M  V30 39 H 1.210763 1.633045 4.870843 0
M  V30 40 H 2.917105 3.534142 4.022944 0
M  V30 41 H 4.438320 2.802154 2.619680 0
M  V30 42 H 4.517289 1.254541 3.565899 0
M  V30 43 H 2.487900 1.855844 1.370227 0
M  V30 44 H 4.296433 -0.514214 2.106920 0
M  V30 45 H 3.075769 -0.395395 0.760533 0
M  V30 46 H 3.336488 0.845237 -1.094608 0
M  V30 47 H 4.680270 2.002600 -2.743127 0
M  V30 48 H 6.785944 3.694540 -2.802458 0
M  V30 49 H 7.788730 2.292148 0.216855 0
M  V30 50 H 6.316165 1.085244 1.849266 0
M  V30 51 H -0.164948 -3.685740 2.544052 0
M  V30 52 H -1.572146 -5.788477 0.810545 0
M  V30 53 H -4.309896 -6.256042 -2.632663 0
M  V30 54 H -6.230720 -4.866695 -4.021671 0
M  V30 55 H -7.884688 -3.190587 -3.481028 0
M  V30 56 H -7.661269 -1.644932 -1.598008 0
M  V30 57 H -6.436552 0.285351 0.642583 0
M  V30 58 H -2.318866 -0.475899 -1.536759 0
M  V30 59 H -0.968711 0.067551 0.690807 0
M  V30 END ATOM
M  V30 BEGIN BOND
M  V30 1 2 1 2
M  V30 2 1 2 3
M  V30 3 1 3 4
M  V30 4 1 4 5
M  V30 5 1 5 6
M  V30 6 1 6 7
M  V30 7 1 7 8
M  V30 8 1 8 9
M  V30 9 1 9 10
M  V30 10 2 10 11
M  V30 11 1 11 12
M  V30 12 2 12 13
M  V30 13 1 13 14
M  V30 14 1 13 15
M  V30 15 2 15 16
M  V30 16 1 2 17
M  V30 17 2 17 18
M  V30 18 1 18 19
M  V30 19 1 19 20
M  V30 20 2 19 21
M  V30 21 1 21 22
M  V30 22 2 22 23
M  V30 23 1 22 24
M  V30 24 2 24 25
M  V30 25 1 25 26
M  V30 26 1 25 27
M  V30 27 2 27 28
M  V30 28 1 28 29
M  V30 29 2 29 30
M  V30 30 1 30 31
M  V30 31 2 31 32
M  V30 32 1 31 33
M  V30 33 1 21 34
M  V30 34 1 34 35
M  V30 35 2 34 36
M  V30 36 1 8 4
M  V30 37 1 16 10
M  V30 38 1 36 17
M  V30 39 1 30 24
M  V30 40 1 4 37
M  V30 41 1 5 38
M  V30 42 1 5 39
M  V30 43 1 6 40
M  V30 44 1 7 41
M  V30 45 1 7 42
M  V30 46 1 8 43
M  V30 47 1 9 44
M  V30 48 1 9 45
M  V30 49 1 11 46
M  V30 50 1 12 47
M  V30 51 1 14 48
M  V30 52 1 15 49
M  V30 53 1 16 50
M  V30 54 1 18 51
M  V30 55 1 20 52
M  V30 56 1 26 53
M  V30 57 1 27 54
M  V30 58 1 28 55
M  V30 59 1 29 56
M  V30 60 1 33 57
M  V30 61 1 35 58
M  V30 62 1 36 59
M  V30 END BOND
M  V30 END CTAB
M  END
>  <Dataset>  (632) 
ChEMBL_Kinases

>  <Ligand_Instance>  (632) 
nan

>  <PDB_ID>  (632) 
nan

>  <Standardized_SMILES>  (632) 
O=C(OC1CNCC1Cc1ccc(O)cc1)c1cc(O)c(C(=O)c2c(O)cccc2C(=O)O)c(O)c1

>  <Name>  (632) 
nan

>  <Pocket>  (632) 
nan

>  <ATP_Site>  (632) 
nan

>  <Peripheral>  (632) 
nan

>  <Num_H_Atoms_ProtBoundConf>  (632) 
nan

>  <Num_Resolved_Atoms>  (632) 
nan

>  <Num_Not_Resolved_Atoms>  (632) 
nan

$$$$
CHEMBL4291517
     RDKit          3D

  0  0  0  0  0  0  0  0  0  0999 V3000
M  V30 BEGIN CTAB
M  V30 COUNTS 55 62 0 0 0
M  V30 BEGIN ATOM
M  V30 1 C 1.791596 -1.121432 4.518595 0
M  V30 2 C 1.466511 -0.992731 3.026936 0 CFG=2
M  V30 3 O 1.618840 -2.207050 2.451831 0
M  V30 4 C 1.838455 -2.275005 1.112407 0 CFG=2
M  V30 5 C 2.582142 -1.161053 0.489975 0
M  V30 6 C 2.236542 0.215391 1.005479 0 CFG=2
M  V30 7 O 3.253258 1.063205 0.526050 0
M  V30 8 C 2.261381 0.125314 2.490108 0 CFG=1
M  V30 9 O 1.915198 1.316595 3.121276 0
M  V30 10 N 1.008498 0.714327 0.439085 0
M  V30 11 C 0.681247 1.994896 0.179050 0
M  V30 12 C 1.366647 3.174706 0.376563 0
M  V30 13 C 0.865240 4.415780 0.044685 0
M  V30 14 C -0.391750 4.489346 -0.516640 0
M  V30 15 C -1.109878 3.329821 -0.730211 0
M  V30 16 C -0.568953 2.115005 -0.383247 0
M  V30 17 C -1.072675 0.856674 -0.490815 0
M  V30 18 C -2.248068 0.310464 -0.961993 0
M  V30 19 C -2.434835 -1.047557 -0.922334 0
M  V30 20 C -1.463272 -1.854543 -0.418920 0
M  V30 21 C -1.418666 -3.206237 -0.269655 0
M  V30 22 C -2.182826 -4.307916 -0.505242 0
M  V30 23 C -1.837704 -5.610083 -0.226458 0
M  V30 24 O -2.663806 -6.697147 -0.491086 0
M  V30 25 C -0.587018 -5.845867 0.354408 0
M  V30 26 C 0.221459 -4.747907 0.610128 0
M  V30 27 C -0.189172 -3.447273 0.302250 0
M  V30 28 N 0.516038 -2.300448 0.507123 0
M  V30 29 C -0.288507 -1.322575 0.053280 0
M  V30 30 C -0.078971 0.040174 0.022007 0
M  V30 31 C -3.724363 -1.268199 -1.473809 0
M  V30 32 O -4.428564 -2.259469 -1.696524 0
M  V30 33 N -4.302618 -0.029687 -1.841600 0
M  V30 34 C -3.403193 1.065809 -1.541688 0
M  V30 35 H 1.764672 -0.077039 4.919418 0
M  V30 36 H 2.823495 -1.492251 4.674555 0
M  V30 37 H 1.012294 -1.683812 5.052674 0
M  V30 38 H 0.391027 -0.714753 2.986258 0
M  V30 39 H 2.308498 -3.250802 0.838969 0
M  V30 40 H 3.681036 -1.288798 0.594778 0
M  V30 41 H 2.424550 -1.100120 -0.626215 0
M  V30 42 H 3.394594 0.888329 -0.445970 0
M  V30 43 H 3.334099 -0.052798 2.776304 0
M  V30 44 H 2.630998 1.977937 2.908205 0
M  V30 45 H 2.352901 3.152767 0.816983 0
M  V30 46 H 1.460789 5.302542 0.228510 0
M  V30 47 H -0.813344 5.463501 -0.789549 0
M  V30 48 H -2.094344 3.395276 -1.170513 0
M  V30 49 H -3.144875 -4.215534 -0.943611 0
M  V30 50 H -3.557574 -6.535073 -0.906960 0
M  V30 51 H -0.267938 -6.846522 0.592685 0
M  V30 52 H 1.165753 -4.969645 1.052873 0
M  V30 53 H -5.189120 0.266597 -2.260968 0
M  V30 54 H -3.113999 1.523677 -2.515631 0
M  V30 55 H -3.846644 1.790257 -0.836562 0
M  V30 END ATOM
M  V30 BEGIN BOND
M  V30 1 1 1 2
M  V30 2 1 2 3
M  V30 3 1 3 4
M  V30 4 1 4 5
M  V30 5 1 5 6
M  V30 6 1 6 7 CFG=3
M  V30 7 1 6 8
M  V30 8 1 8 9
M  V30 9 1 6 10
M  V30 10 1 10 11
M  V30 11 2 11 12
M  V30 12 1 12 13
M  V30 13 2 13 14
M  V30 14 1 14 15
M  V30 15 2 15 16
M  V30 16 1 16 17
M  V30 17 2 17 18
M  V30 18 1 18 19
M  V30 19 2 19 20
M  V30 20 1 20 21
M  V30 21 2 21 22
M  V30 22 1 22 23
M  V30 23 1 23 24
M  V30 24 2 23 25
M  V30 25 1 25 26
M  V30 26 2 26 27
M  V30 27 1 27 28
M  V30 28 1 28 29
M  V30 29 2 29 30
M  V30 30 1 19 31
M  V30 31 2 31 32
M  V30 32 1 31 33
M  V30 33 1 33 34
M  V30 34 1 8 2
M  V30 35 1 30 10
M  V30 36 1 28 4
M  V30 37 1 16 11
M  V30 38 1 30 17
M  V30 39 1 34 18
M  V30 40 1 29 20
M  V30 41 1 27 21
M  V30 42 1 1 35
M  V30 43 1 1 36
M  V30 44 1 1 37
M  V30 45 1 2 38 CFG=1
M  V30 46 1 4 39 CFG=1
M  V30 47 1 5 40
M  V30 48 1 5 41
M  V30 49 1 7 42
M  V30 50 1 8 43 CFG=1
M  V30 51 1 9 44
M  V30 52 1 12 45
M  V30 53 1 13 46
M  V30 54 1 14 47
M  V30 55 1 15 48
M  V30 56 1 22 49
M  V30 57 1 24 50
M  V30 58 1 25 51
M  V30 59 1 26 52
M  V30 60 1 33 53
M  V30 61 1 34 54
M  V30 62 1 34 55
M  V30 END BOND
M  V30 END CTAB
M  END
>  <Dataset>  (633) 
ChEMBL_Kinases

>  <Ligand_Instance>  (633) 
nan

>  <PDB_ID>  (633) 
nan

>  <Standardized_SMILES>  (633) 
C[C@@H]1O[C@@H]2C[C@](O)([C@H]1O)n1c3ccccc3c3c4c(c5c6cc(O)ccc6n2c5c31)C(=O)NC4

>  <Name>  (633) 
nan

>  <Pocket>  (633) 
nan

>  <ATP_Site>  (633) 
nan

>  <Peripheral>  (633) 
nan

>  <Num_H_Atoms_ProtBoundConf>  (633) 
nan

>  <Num_Resolved_Atoms>  (633) 
nan

>  <Num_Not_Resolved_Atoms>  (633) 
nan

$$$$
CHEMBL295806
     RDKit          3D

  0  0  0  0  0  0  0  0  0  0999 V3000
M  V30 BEGIN CTAB
M  V30 COUNTS 60 63 0 0 0
M  V30 BEGIN ATOM
M  V30 1 O -1.062096 -0.889121 3.165873 0
M  V30 2 C -0.789281 -0.330288 2.097132 0
M  V30 3 O -0.385774 0.965386 2.088444 0
M  V30 4 C -0.204556 1.856019 3.127394 0
M  V30 5 C -0.925426 3.142547 3.079235 0
M  V30 6 C -0.031290 3.956149 2.134843 0
M  V30 7 C 1.270999 3.769900 2.889628 0
M  V30 8 C 1.242056 2.272343 3.142218 0
M  V30 9 C 2.013020 1.877262 4.348180 0
M  V30 10 C 2.079229 0.418379 4.580305 0
M  V30 11 C 3.152905 -0.166371 3.895221 0
M  V30 12 C 3.421852 -1.520635 3.967633 0
M  V30 13 C 2.640609 -2.351235 4.719905 0
M  V30 14 O 2.813325 -3.722052 4.867466 0
M  V30 15 C 1.577969 -1.766749 5.396980 0
M  V30 16 C 1.298120 -0.418452 5.334085 0
M  V30 17 C -0.892494 -1.040381 0.830202 0
M  V30 18 C -1.305217 -2.349625 0.895371 0
M  V30 19 C -1.432425 -3.101582 -0.270666 0
M  V30 20 O -1.860890 -4.433353 -0.107960 0
M  V30 21 C -1.156201 -2.575160 -1.509870 0
M  V30 22 C -1.202810 -3.360259 -2.700943 0
M  V30 23 O -1.040390 -4.572153 -2.306415 0
M  V30 24 C -1.351424 -3.300432 -4.102023 0
M  V30 25 C -0.691458 -4.316327 -4.808907 0
M  V30 26 O 0.091298 -5.327814 -4.212738 0
M  V30 27 C -0.732265 -4.446687 -6.202871 0
M  V30 28 C -1.471732 -3.504687 -6.866274 0
M  V30 29 C -2.152701 -2.478609 -6.264816 0
M  V30 30 C -2.053947 -2.435659 -4.891501 0
M  V30 31 C -2.935617 -1.430338 -4.259812 0
M  V30 32 O -3.345576 -1.071299 -3.148273 0
M  V30 33 O -3.642533 -0.465464 -4.939561 0
M  V30 34 C -0.741164 -1.237001 -1.479418 0
M  V30 35 O -0.406040 -0.532692 -2.642926 0
M  V30 36 C -0.594664 -0.437501 -0.370001 0
M  V30 37 H -0.434886 1.374576 4.095407 0
M  V30 38 H -0.807063 3.631111 4.070983 0
M  V30 39 H -1.968836 3.166573 2.820538 0
M  V30 40 H -0.351381 5.014234 2.105479 0
M  V30 41 H 0.043177 3.460287 1.162065 0
M  V30 42 H 2.162023 4.072110 2.327834 0
M  V30 43 H 1.237339 4.340946 3.843933 0
M  V30 44 H 1.800882 1.848130 2.253626 0
M  V30 45 H 1.441079 2.295724 5.232904 0
M  V30 46 H 3.040191 2.327924 4.369025 0
M  V30 47 H 3.857519 0.361411 3.261445 0
M  V30 48 H 4.241035 -1.998075 3.451218 0
M  V30 49 H 3.647092 -4.219787 4.584737 0
M  V30 50 H 0.910585 -2.351448 6.014445 0
M  V30 51 H 0.503059 0.079733 5.835056 0
M  V30 52 H -1.535774 -2.813524 1.842268 0
M  V30 53 H -2.859731 -4.561460 0.017802 0
M  V30 54 H -0.401963 -6.155596 -3.919394 0
M  V30 55 H -0.234062 -5.214667 -6.748077 0
M  V30 56 H -1.522945 -3.572603 -7.940510 0
M  V30 57 H -2.724295 -1.757932 -6.832121 0
M  V30 58 H -3.576467 0.552814 -4.806297 0
M  V30 59 H 0.577435 -0.479380 -2.901047 0
M  V30 60 H -0.280750 0.577877 -0.351589 0
M  V30 END ATOM
M  V30 BEGIN BOND
M  V30 1 2 1 2
M  V30 2 1 2 3
M  V30 3 1 3 4
M  V30 4 1 4 5
M  V30 5 1 5 6
M  V30 6 1 6 7
M  V30 7 1 7 8
M  V30 8 1 8 9
M  V30 9 1 9 10
M  V30 10 2 10 11
M  V30 11 1 11 12
M  V30 12 2 12 13
M  V30 13 1 13 14
M  V30 14 1 13 15
M  V30 15 2 15 16
M  V30 16 1 2 17
M  V30 17 2 17 18
M  V30 18 1 18 19
M  V30 19 1 19 20
M  V30 20 2 19 21
M  V30 21 1 21 22
M  V30 22 2 22 23
M  V30 23 1 22 24
M  V30 24 2 24 25
M  V30 25 1 25 26
M  V30 26 1 25 27
M  V30 27 2 27 28
M  V30 28 1 28 29
M  V30 29 2 29 30
M  V30 30 1 30 31
M  V30 31 2 31 32
M  V30 32 1 31 33
M  V30 33 1 21 34
M  V30 34 1 34 35
M  V30 35 2 34 36
M  V30 36 1 8 4
M  V30 37 1 16 10
M  V30 38 1 36 17
M  V30 39 1 30 24
M  V30 40 1 4 37
M  V30 41 1 5 38
M  V30 42 1 5 39
M  V30 43 1 6 40
M  V30 44 1 6 41
M  V30 45 1 7 42
M  V30 46 1 7 43
M  V30 47 1 8 44
M  V30 48 1 9 45
M  V30 49 1 9 46
M  V30 50 1 11 47
M  V30 51 1 12 48
M  V30 52 1 14 49
M  V30 53 1 15 50
M  V30 54 1 16 51
M  V30 55 1 18 52
M  V30 56 1 20 53
M  V30 57 1 26 54
M  V30 58 1 27 55
M  V30 59 1 28 56
M  V30 60 1 29 57
M  V30 61 1 33 58
M  V30 62 1 35 59
M  V30 63 1 36 60
M  V30 END BOND
M  V30 END CTAB
M  END
>  <Dataset>  (634) 
ChEMBL_Kinases

>  <Ligand_Instance>  (634) 
nan

>  <PDB_ID>  (634) 
nan

>  <Standardized_SMILES>  (634) 
O=C(OC1CCCC1Cc1ccc(O)cc1)c1cc(O)c(C(=O)c2c(O)cccc2C(=O)O)c(O)c1

>  <Name>  (634) 
nan

>  <Pocket>  (634) 
nan

>  <ATP_Site>  (634) 
nan

>  <Peripheral>  (634) 
nan

>  <Num_H_Atoms_ProtBoundConf>  (634) 
nan

>  <Num_Resolved_Atoms>  (634) 
nan

>  <Num_Not_Resolved_Atoms>  (634) 
nan

$$$$
CHEMBL293776
     RDKit          3D

  0  0  0  0  0  0  0  0  0  0999 V3000
M  V30 BEGIN CTAB
M  V30 COUNTS 34 36 0 0 0
M  V30 BEGIN ATOM
M  V30 1 C -1.239922 -5.334433 3.364854 0
M  V30 2 O -0.493721 -5.131529 2.182828 0
M  V30 3 C -0.180252 -3.852740 1.754215 0
M  V30 4 C 0.984471 -3.198835 2.145770 0
M  V30 5 O 1.840365 -3.896508 3.004015 0
M  V30 6 C 1.274176 -1.923707 1.704478 0
M  V30 7 C 0.349854 -1.331009 0.855463 0
M  V30 8 O 0.670722 -0.099968 0.454466 0
M  V30 9 C -0.092036 0.586436 -0.341688 0
M  V30 10 C 0.335374 1.925025 -0.729980 0
M  V30 11 C 1.535974 2.371698 -0.216222 0
M  V30 12 C 2.005663 3.647989 -0.548650 0
M  V30 13 C 1.292367 4.499905 -1.394918 0
M  V30 14 O 1.814215 5.749600 -1.682754 0
M  V30 15 C 0.082381 4.016664 -1.896672 0
M  V30 16 C -0.381887 2.753457 -1.567285 0
M  V30 17 C -1.262537 -0.009215 -0.764971 0
M  V30 18 C -1.649287 -1.278396 -0.385566 0
M  V30 19 O -2.708805 -1.802350 -0.776084 0
M  V30 20 C -0.807896 -1.970799 0.461311 0
M  V30 21 C -1.091856 -3.250622 0.908372 0
M  V30 22 O -2.273693 -3.835426 0.472949 0
M  V30 23 H -2.161372 -5.894373 3.049107 0
M  V30 24 H -0.627940 -5.957300 4.050638 0
M  V30 25 H -1.557390 -4.392274 3.846048 0
M  V30 26 H 1.468329 -4.199909 3.899023 0
M  V30 27 H 2.185586 -1.439321 2.024095 0
M  V30 28 H 2.154543 1.778890 0.446975 0
M  V30 29 H 2.955976 3.987969 -0.135434 0
M  V30 30 H 2.232711 6.357836 -0.991164 0
M  V30 31 H -0.473753 4.676554 -2.554400 0
M  V30 32 H -1.311868 2.411475 -1.967181 0
M  V30 33 H -1.913931 0.541302 -1.427610 0
M  V30 34 H -2.956167 -4.049570 1.214215 0
M  V30 END ATOM
M  V30 BEGIN BOND
M  V30 1 1 1 2
M  V30 2 1 2 3
M  V30 3 2 3 4
M  V30 4 1 4 5
M  V30 5 1 4 6
M  V30 6 2 6 7
M  V30 7 1 7 8
M  V30 8 1 8 9
M  V30 9 1 9 10
M  V30 10 2 10 11
M  V30 11 1 11 12
M  V30 12 2 12 13
M  V30 13 1 13 14
M  V30 14 1 13 15
M  V30 15 2 15 16
M  V30 16 2 9 17
M  V30 17 1 17 18
M  V30 18 2 18 19
M  V30 19 1 18 20
M  V30 20 2 20 21
M  V30 21 1 21 22
M  V30 22 1 21 3
M  V30 23 1 20 7
M  V30 24 1 16 10
M  V30 25 1 1 23
M  V30 26 1 1 24
M  V30 27 1 1 25
M  V30 28 1 5 26
M  V30 29 1 6 27
M  V30 30 1 11 28
M  V30 31 1 12 29
M  V30 32 1 14 30
M  V30 33 1 15 31
M  V30 34 1 16 32
M  V30 35 1 17 33
M  V30 36 1 22 34
M  V30 END BOND
M  V30 END CTAB
M  END
>  <Dataset>  (635) 
ChEMBL_Kinases

>  <Ligand_Instance>  (635) 
nan

>  <PDB_ID>  (635) 
nan

>  <Standardized_SMILES>  (635) 
COc1c(O)cc2oc(-c3ccc(O)cc3)cc(=O)c2c1O

>  <Name>  (635) 
HISPIDULIN

>  <Pocket>  (635) 
nan

>  <ATP_Site>  (635) 
nan

>  <Peripheral>  (635) 
nan

>  <Num_H_Atoms_ProtBoundConf>  (635) 
nan

>  <Num_Resolved_Atoms>  (635) 
nan

>  <Num_Not_Resolved_Atoms>  (635) 
nan

$$$$
CHEMBL293722
     RDKit          3D

  0  0  0  0  0  0  0  0  0  0999 V3000
M  V30 BEGIN CTAB
M  V30 COUNTS 81 85 0 0 0
M  V30 BEGIN ATOM
M  V30 1 C 7.481514 1.202727 2.023005 0
M  V30 2 C 6.685221 1.802681 0.911509 0
M  V30 3 C 7.492540 1.542062 -0.376854 0
M  V30 4 C 6.551487 3.283715 1.034071 0
M  V30 5 C 5.396325 1.092521 0.701059 0
M  V30 6 O 4.824226 0.110666 1.195819 0
M  V30 7 O 4.727131 1.765067 -0.337616 0
M  V30 8 C 3.485153 1.382999 -0.834812 0
M  V30 9 N 2.405368 1.365835 0.104098 0
M  V30 10 N 2.140648 0.251942 0.804720 0
M  V30 11 N 1.105889 0.488715 1.574053 0
M  V30 12 N 0.723462 1.716379 1.365367 0
M  V30 13 C 1.524172 2.316216 0.436378 0
M  V30 14 C 1.318664 3.674521 -0.023356 0
M  V30 15 C 2.404202 4.440032 -0.460932 0
M  V30 16 C 2.247618 5.752119 -0.830192 0
M  V30 17 C 1.037897 6.403870 -0.796372 0
M  V30 18 C -0.052737 5.624807 -0.355726 0
M  V30 19 O -1.270653 6.304746 -0.330611 0
M  V30 20 C 0.080260 4.279395 0.022502 0
M  V30 21 C -1.172953 3.707898 0.421913 0
M  V30 22 O -1.993104 4.478023 1.041518 0
M  V30 23 C -1.765873 2.411350 0.278678 0
M  V30 24 C -2.685548 1.733613 1.006352 0
M  V30 25 O -3.056851 2.294894 2.194845 0
M  V30 26 C -3.228718 0.544204 0.595692 0
M  V30 27 C -2.813248 0.013456 -0.616329 0
M  V30 28 C -3.418368 -1.235103 -1.003632 0
M  V30 29 O -2.922878 -1.707721 -2.080607 0
M  V30 30 O -4.277160 -2.233671 -0.832040 0
M  V30 31 C -4.500348 -3.366249 -1.580062 0 CFG=2
M  V30 32 C -5.914964 -3.255864 -2.185712 0
M  V30 33 C -6.048569 -4.624997 -2.813195 0
M  V30 34 C -5.218226 -5.537371 -1.962384 0
M  V30 35 C -4.674002 -4.642354 -0.823245 0 CFG=1
M  V30 36 N -3.493569 -5.262454 -0.356280 0
M  V30 37 C -3.492161 -5.691634 0.975884 0
M  V30 38 O -4.550384 -5.488557 1.649811 0
M  V30 39 C -2.392295 -6.342487 1.642380 0
M  V30 40 C -2.472929 -6.720680 2.955518 0
M  V30 41 C -1.528295 -7.338459 3.739371 0
M  V30 42 C -0.361079 -7.575301 3.017208 0
M  V30 43 O 0.699466 -8.208674 3.684020 0
M  V30 44 C -0.103392 -7.257514 1.673093 0
M  V30 45 C -1.185716 -6.638218 1.061002 0
M  V30 46 C -1.871736 0.648944 -1.419401 0
M  V30 47 C -1.361333 1.854448 -0.948682 0
M  V30 48 O -0.447679 2.339161 -1.895003 0
M  V30 49 H 8.538463 1.550252 1.910963 0
M  V30 50 H 7.551724 0.102441 1.790970 0
M  V30 51 H 7.075948 1.411819 3.021172 0
M  V30 52 H 7.012898 2.019286 -1.252011 0
M  V30 53 H 7.518188 0.441615 -0.554264 0
M  V30 54 H 8.499376 1.954649 -0.253987 0
M  V30 55 H 6.341625 3.637326 2.081050 0
M  V30 56 H 5.766310 3.700056 0.377673 0
M  V30 57 H 7.529646 3.771973 0.758305 0
M  V30 58 H 3.264411 2.063590 -1.706636 0
M  V30 59 H 3.564777 0.355382 -1.314296 0
M  V30 60 H 3.413636 4.087558 -0.534846 0
M  V30 61 H 3.081423 6.362717 -1.182036 0
M  V30 62 H 0.923815 7.426592 -1.083474 0
M  V30 63 H -1.271113 7.279055 -0.055852 0
M  V30 64 H -3.426663 3.216908 2.273296 0
M  V30 65 H -3.959999 0.082356 1.252260 0
M  V30 66 H -3.860153 -3.500376 -2.476233 0
M  V30 67 H -5.972865 -2.433857 -2.913280 0
M  V30 68 H -6.614950 -3.173053 -1.328755 0
M  V30 69 H -7.117635 -4.966620 -2.863436 0
M  V30 70 H -5.660004 -4.553537 -3.872123 0
M  V30 71 H -5.809383 -6.379977 -1.552159 0
M  V30 72 H -4.358983 -5.894706 -2.587500 0
M  V30 73 H -5.462176 -4.537879 -0.094342 0
M  V30 74 H -2.636768 -5.414996 -0.940486 0
M  V30 75 H -3.419998 -6.509885 3.486109 0
M  V30 76 H -1.624907 -7.621649 4.765909 0
M  V30 77 H 0.802053 -7.988795 4.684976 0
M  V30 78 H 0.831948 -7.482986 1.225130 0
M  V30 79 H -1.024170 -6.369484 0.007834 0
M  V30 80 H -1.589309 0.175341 -2.365929 0
M  V30 81 H -0.803160 3.062253 -2.519651 0
M  V30 END ATOM
M  V30 BEGIN BOND
M  V30 1 1 1 2
M  V30 2 1 2 3
M  V30 3 1 2 4
M  V30 4 1 2 5
M  V30 5 2 5 6
M  V30 6 1 5 7
M  V30 7 1 7 8
M  V30 8 1 8 9
M  V30 9 1 9 10
M  V30 10 2 10 11
M  V30 11 1 11 12
M  V30 12 2 12 13
M  V30 13 1 13 14
M  V30 14 2 14 15
M  V30 15 1 15 16
M  V30 16 2 16 17
M  V30 17 1 17 18
M  V30 18 1 18 19
M  V30 19 2 18 20
M  V30 20 1 20 21
M  V30 21 2 21 22
M  V30 22 1 21 23
M  V30 23 2 23 24
M  V30 24 1 24 25
M  V30 25 1 24 26
M  V30 26 2 26 27
M  V30 27 1 27 28
M  V30 28 2 28 29
M  V30 29 1 28 30
M  V30 30 1 30 31
M  V30 31 1 31 32
M  V30 32 1 32 33
M  V30 33 1 33 34
M  V30 34 1 34 35
M  V30 35 1 35 36
M  V30 36 1 36 37
M  V30 37 2 37 38
M  V30 38 1 37 39
M  V30 39 2 39 40
M  V30 40 1 40 41
M  V30 41 2 41 42
M  V30 42 1 42 43
M  V30 43 1 42 44
M  V30 44 2 44 45
M  V30 45 1 27 46
M  V30 46 2 46 47
M  V30 47 1 47 48
M  V30 48 1 13 9
M  V30 49 1 20 14
M  V30 50 1 47 23
M  V30 51 1 35 31
M  V30 52 1 45 39
M  V30 53 1 1 49
M  V30 54 1 1 50
M  V30 55 1 1 51
M  V30 56 1 3 52
M  V30 57 1 3 53
M  V30 58 1 3 54
M  V30 59 1 4 55
M  V30 60 1 4 56
M  V30 61 1 4 57
M  V30 62 1 8 58
M  V30 63 1 8 59
M  V30 64 1 15 60
M  V30 65 1 16 61
M  V30 66 1 17 62
M  V30 67 1 19 63
M  V30 68 1 25 64
M  V30 69 1 26 65
M  V30 70 1 31 66 CFG=3
M  V30 71 1 32 67
M  V30 72 1 32 68
M  V30 73 1 33 69
M  V30 74 1 33 70
M  V30 75 1 34 71
M  V30 76 1 34 72
M  V30 77 1 35 73 CFG=1
M  V30 78 1 36 74
M  V30 79 1 40 75
M  V30 80 1 41 76
M  V30 81 1 43 77
M  V30 82 1 44 78
M  V30 83 1 45 79
M  V30 84 1 46 80
M  V30 85 1 48 81
M  V30 END BOND
M  V30 END CTAB
M  END
>  <Dataset>  (636) 
ChEMBL_Kinases

>  <Ligand_Instance>  (636) 
nan

>  <PDB_ID>  (636) 
nan

>  <Standardized_SMILES>  (636) 
CC(C)(C)C(=O)OCn1nnnc1-c1cccc(O)c1C(=O)c1c(O)cc(C(=O)O[C@@H]2CCC[C@H]2NC(=O)c2ccc(O)cc2)cc1O

>  <Name>  (636) 
nan

>  <Pocket>  (636) 
nan

>  <ATP_Site>  (636) 
nan

>  <Peripheral>  (636) 
nan

>  <Num_H_Atoms_ProtBoundConf>  (636) 
nan

>  <Num_Resolved_Atoms>  (636) 
nan

>  <Num_Not_Resolved_Atoms>  (636) 
nan

$$$$
CHEMBL4756589
     RDKit          3D

  0  0  0  0  0  0  0  0  0  0999 V3000
M  V30 BEGIN CTAB
M  V30 COUNTS 48 53 0 0 0
M  V30 BEGIN ATOM
M  V30 1 N 4.388881 -2.373920 -0.719392 0
M  V30 2 C 4.430817 -1.024215 -0.270983 0
M  V30 3 C 5.659073 -0.588167 0.178297 0
M  V30 4 N 5.785072 0.686379 0.622875 0
M  V30 5 C 4.736928 1.532583 0.634314 0
M  V30 6 C 3.523711 1.087934 0.186040 0
M  V30 7 C 2.401914 2.018269 0.205503 0
M  V30 8 C 2.698632 3.357212 0.005238 0
M  V30 9 N 1.647416 4.229550 0.024527 0
M  V30 10 C 0.392866 3.797569 0.228731 0
M  V30 11 N -0.792303 4.430313 0.293403 0
M  V30 12 N -1.760771 3.561976 0.516319 0
M  V30 13 C -1.293605 2.325126 0.612302 0
M  V30 14 C -2.099729 1.151098 0.852991 0
M  V30 15 C -1.895002 -0.194036 0.993673 0
M  V30 16 C -3.059180 -0.892769 1.219482 0
M  V30 17 C -3.354484 -2.225252 1.419149 0
M  V30 18 C -2.262160 -3.202456 1.407718 0
M  V30 19 C -1.956364 -3.763795 0.174700 0
M  V30 20 C -0.946507 -4.699557 0.027757 0
M  V30 21 C -0.218362 -5.090363 1.136528 0
M  V30 22 C -0.518861 -4.531500 2.378376 0
M  V30 23 C -1.522984 -3.609549 2.487620 0
M  V30 24 F -1.844496 -3.043177 3.681338 0
M  V30 25 C -4.648323 -2.654793 1.627741 0
M  V30 26 C -5.565279 -1.638546 1.613149 0
M  V30 27 N -5.300303 -0.344553 1.421889 0
M  V30 28 C -4.049635 0.066920 1.220640 0
M  V30 29 N -3.440707 1.246680 1.002416 0
M  V30 30 C 0.055900 2.478023 0.431389 0
M  V30 31 C 1.108489 1.590337 0.413703 0
M  V30 32 C 3.332883 -0.194528 -0.277319 0
M  V30 33 H 4.519156 -3.003993 0.103469 0
M  V30 34 H 4.267927 -2.900956 -1.614342 0
M  V30 35 H 6.580800 -1.157277 0.224612 0
M  V30 36 H 4.929662 2.536447 1.008567 0
M  V30 37 H 3.710750 3.704340 -0.158999 0
M  V30 38 H -0.937455 5.458448 0.184784 0
M  V30 39 H -0.947380 -0.677354 0.939586 0
M  V30 40 H -2.523830 -3.466584 -0.718722 0
M  V30 41 H -0.757841 -5.097690 -0.955943 0
M  V30 42 H 0.569614 -5.821789 1.017689 0
M  V30 43 H 0.027422 -4.814191 3.256204 0
M  V30 44 H -4.923431 -3.681954 1.787517 0
M  V30 45 H -6.636664 -1.832497 1.766298 0
M  V30 46 H -4.063439 2.101474 0.971809 0
M  V30 47 H 0.914186 0.554054 0.565089 0
M  V30 48 H 2.381022 -0.556485 -0.633009 0
M  V30 END ATOM
M  V30 BEGIN BOND
M  V30 1 1 1 2
M  V30 2 2 2 3
M  V30 3 1 3 4
M  V30 4 2 4 5
M  V30 5 1 5 6
M  V30 6 1 6 7
M  V30 7 2 7 8
M  V30 8 1 8 9
M  V30 9 2 9 10
M  V30 10 1 10 11
M  V30 11 1 11 12
M  V30 12 2 12 13
M  V30 13 1 13 14
M  V30 14 2 14 15
M  V30 15 1 15 16
M  V30 16 2 16 17
M  V30 17 1 17 18
M  V30 18 2 18 19
M  V30 19 1 19 20
M  V30 20 2 20 21
M  V30 21 1 21 22
M  V30 22 2 22 23
M  V30 23 1 23 24
M  V30 24 1 17 25
M  V30 25 2 25 26
M  V30 26 1 26 27
M  V30 27 2 27 28
M  V30 28 1 28 29
M  V30 29 1 13 30
M  V30 30 2 30 31
M  V30 31 2 6 32
M  V30 32 1 32 2
M  V30 33 1 31 7
M  V30 34 1 30 10
M  V30 35 1 29 14
M  V30 36 1 28 16
M  V30 37 1 23 18
M  V30 38 1 1 33
M  V30 39 1 1 34
M  V30 40 1 3 35
M  V30 41 1 5 36
M  V30 42 1 8 37
M  V30 43 1 11 38
M  V30 44 1 15 39
M  V30 45 1 19 40
M  V30 46 1 20 41
M  V30 47 1 21 42
M  V30 48 1 22 43
M  V30 49 1 25 44
M  V30 50 1 26 45
M  V30 51 1 29 46
M  V30 52 1 31 47
M  V30 53 1 32 48
M  V30 END BOND
M  V30 END CTAB
M  END
>  <Dataset>  (637) 
ChEMBL_Kinases

>  <Ligand_Instance>  (637) 
nan

>  <PDB_ID>  (637) 
nan

>  <Standardized_SMILES>  (637) 
Nc1cncc(-c2cnc3[nH]nc(-c4cc5c(-c6ccccc6F)ccnc5[nH]4)c3c2)c1

>  <Name>  (637) 
nan

>  <Pocket>  (637) 
nan

>  <ATP_Site>  (637) 
nan

>  <Peripheral>  (637) 
nan

>  <Num_H_Atoms_ProtBoundConf>  (637) 
nan

>  <Num_Resolved_Atoms>  (637) 
nan

>  <Num_Not_Resolved_Atoms>  (637) 
nan

$$$$
CHEMBL4756587
     RDKit          3D

  0  0  0  0  0  0  0  0  0  0999 V3000
M  V30 BEGIN CTAB
M  V30 COUNTS 51 54 0 0 0
M  V30 BEGIN ATOM
M  V30 1 O -0.848883 -0.519116 1.547043 0
M  V30 2 C -1.647814 -0.324161 2.499674 0
M  V30 3 N -1.351510 0.894037 3.172235 0
M  V30 4 C -0.231277 1.563586 2.586072 0
M  V30 5 C -0.336331 2.485379 1.564348 0
M  V30 6 C 0.812888 3.070875 1.073606 0
M  V30 7 C 2.093877 2.785526 1.552331 0
M  V30 8 C 3.244665 3.467300 0.959046 0
M  V30 9 N 3.851764 2.841720 -0.160012 0
M  V30 10 C 4.384453 1.544350 0.011083 0
M  V30 11 C 3.740784 0.632346 -1.007836 0
M  V30 12 C 2.880916 1.506022 -1.861438 0
M  V30 13 C 3.160604 2.918568 -1.401156 0
M  V30 14 C 2.122722 1.856402 2.572251 0
M  V30 15 C 1.007584 1.239788 3.101433 0
M  V30 16 C -2.754845 -1.169533 2.932903 0
M  V30 17 N -3.612215 -0.948209 3.965100 0
M  V30 18 N -4.444003 -1.976612 3.977795 0
M  V30 19 C -4.192782 -2.879093 3.009162 0
M  V30 20 C -3.106323 -2.361332 2.336029 0
M  V30 21 C -2.452389 -2.981721 1.189611 0
M  V30 22 C -2.884070 -4.131039 0.706513 0
M  V30 23 C -2.342971 -4.873190 -0.424051 0
M  V30 24 C -2.876774 -6.079383 -0.851076 0
M  V30 25 C -2.320641 -6.731235 -1.924759 0
M  V30 26 C -1.233642 -6.253644 -2.629537 0
M  V30 27 N -0.724139 -5.068714 -2.195164 0
M  V30 28 C -1.264557 -4.424977 -1.143649 0
M  V30 29 H -1.916280 1.229656 4.002865 0
M  V30 30 H -1.316587 2.712385 1.188511 0
M  V30 31 H 0.621025 3.786988 0.265752 0
M  V30 32 H 2.888129 4.474558 0.600728 0
M  V30 33 H 4.027309 3.711631 1.706409 0
M  V30 34 H 4.317454 1.082090 0.990318 0
M  V30 35 H 5.473789 1.579454 -0.261806 0
M  V30 36 H 4.502848 0.046973 -1.599929 0
M  V30 37 H 3.104784 -0.162058 -0.547711 0
M  V30 38 H 1.804652 1.320035 -1.659502 0
M  V30 39 H 3.093653 1.381984 -2.951146 0
M  V30 40 H 3.882125 3.340849 -2.161006 0
M  V30 41 H 2.291443 3.576840 -1.443445 0
M  V30 42 H 3.093232 1.603302 2.977463 0
M  V30 43 H 1.144341 0.515292 3.911570 0
M  V30 44 H -5.225357 -2.055985 4.694813 0
M  V30 45 H -4.748795 -3.790102 2.839867 0
M  V30 46 H -1.615421 -2.555076 0.693152 0
M  V30 47 H -3.750525 -4.578084 1.216195 0
M  V30 48 H -3.727842 -6.474141 -0.315854 0
M  V30 49 H -2.778502 -7.659357 -2.206311 0
M  V30 50 H -0.821510 -6.793841 -3.470619 0
M  V30 51 H -0.771350 -3.504041 -0.903213 0
M  V30 END ATOM
M  V30 BEGIN BOND
M  V30 1 2 1 2
M  V30 2 1 2 3
M  V30 3 1 3 4
M  V30 4 2 4 5
M  V30 5 1 5 6
M  V30 6 2 6 7
M  V30 7 1 7 8
M  V30 8 1 8 9
M  V30 9 1 9 10
M  V30 10 1 10 11
M  V30 11 1 11 12
M  V30 12 1 12 13
M  V30 13 1 7 14
M  V30 14 2 14 15
M  V30 15 1 2 16
M  V30 16 2 16 17
M  V30 17 1 17 18
M  V30 18 1 18 19
M  V30 19 2 19 20
M  V30 20 1 20 21
M  V30 21 2 21 22
M  V30 22 1 22 23
M  V30 23 2 23 24
M  V30 24 1 24 25
M  V30 25 2 25 26
M  V30 26 1 26 27
M  V30 27 2 27 28
M  V30 28 1 15 4
M  V30 29 1 20 16
M  V30 30 1 28 23
M  V30 31 1 13 9
M  V30 32 1 3 29
M  V30 33 1 5 30
M  V30 34 1 6 31
M  V30 35 1 8 32
M  V30 36 1 8 33
M  V30 37 1 10 34
M  V30 38 1 10 35
M  V30 39 1 11 36
M  V30 40 1 11 37
M  V30 41 1 12 38
M  V30 42 1 12 39
M  V30 43 1 13 40
M  V30 44 1 13 41
M  V30 45 1 14 42
M  V30 46 1 15 43
M  V30 47 1 18 44
M  V30 48 1 19 45
M  V30 49 1 21 46
M  V30 50 1 22 47
M  V30 51 1 24 48
M  V30 52 1 25 49
M  V30 53 1 26 50
M  V30 54 1 28 51
M  V30 END BOND
M  V30 END CTAB
M  END
>  <Dataset>  (638) 
ChEMBL_Kinases

>  <Ligand_Instance>  (638) 
nan

>  <PDB_ID>  (638) 
nan

>  <Standardized_SMILES>  (638) 
O=C(Nc1ccc(CN2CCCC2)cc1)c1n[nH]cc1/C=C/c1cccnc1

>  <Name>  (638) 
nan

>  <Pocket>  (638) 
nan

>  <ATP_Site>  (638) 
nan

>  <Peripheral>  (638) 
nan

>  <Num_H_Atoms_ProtBoundConf>  (638) 
nan

>  <Num_Resolved_Atoms>  (638) 
nan

>  <Num_Not_Resolved_Atoms>  (638) 
nan

$$$$
CHEMBL4756586
     RDKit          3D

  0  0  0  0  0  0  0  0  0  0999 V3000
M  V30 BEGIN CTAB
M  V30 COUNTS 77 80 0 0 0
M  V30 BEGIN ATOM
M  V30 1 C -1.450485 -3.485633 2.877467 0
M  V30 2 C -2.914266 -3.669481 3.040918 0
M  V30 3 N -3.747881 -2.787244 2.291897 0
M  V30 4 C -3.752534 -1.415070 2.427076 0
M  V30 5 O -2.865421 -1.061687 3.343515 0
M  V30 6 C -3.837603 0.061058 2.493497 0 CFG=2
M  V30 7 C -3.983385 0.657202 1.140044 0
M  V30 8 C -2.877085 0.411854 0.189805 0
M  V30 9 C -3.117060 1.057746 -1.155884 0
M  V30 10 C -4.325648 0.554695 -1.885715 0
M  V30 11 C -3.963408 -0.151541 -3.179711 0
M  V30 12 C -2.677377 -0.932671 -3.091962 0
M  V30 13 C -1.508744 -0.023668 -2.791063 0
M  V30 14 C -1.870737 1.167775 -1.991753 0
M  V30 15 N -2.856031 0.538810 3.368351 0
M  V30 16 C -1.873552 1.022662 4.262857 0
M  V30 17 O -2.628009 1.146699 5.296884 0
M  V30 18 C -0.427134 1.289389 4.055571 0
M  V30 19 C 0.524234 0.944772 4.970913 0
M  V30 20 C 1.805171 1.235706 4.581080 0
M  V30 21 C 2.187517 1.828493 3.381248 0
M  V30 22 C 3.653791 2.016151 3.042778 0
M  V30 23 N 4.085883 0.795864 2.342154 0
M  V30 24 C 3.798932 0.598918 0.982448 0
M  V30 25 O 3.195978 1.430772 0.215788 0
M  V30 26 C 4.107471 -0.565152 0.184467 0
M  V30 27 C 4.710649 -1.741620 0.657063 0
M  V30 28 N 4.801314 -2.645827 -0.339180 0
M  V30 29 N 4.284736 -2.120100 -1.450542 0
M  V30 30 C 4.204607 -2.851073 -2.651262 0
M  V30 31 C 3.130477 -2.586750 -3.497745 0
M  V30 32 C 2.926093 -3.266313 -4.704902 0
M  V30 33 C 3.818197 -4.261490 -5.114250 0
M  V30 34 C 4.854532 -4.477421 -4.240761 0
M  V30 35 C 5.093418 -3.849408 -3.066268 0
M  V30 36 C 3.888885 -0.899841 -1.114394 0
M  V30 37 N 3.300058 -0.031616 -2.047970 0
M  V30 38 C 1.165121 2.140639 2.534953 0
M  V30 39 C -0.183968 1.895413 2.807365 0
M  V30 40 H -1.162527 -2.455949 2.561057 0
M  V30 41 H -0.959769 -3.614100 3.865371 0
M  V30 42 H -0.972899 -4.257602 2.232687 0
M  V30 43 H -3.156956 -3.454319 4.127299 0
M  V30 44 H -3.191019 -4.713048 2.902558 0
M  V30 45 H -4.507151 -2.656495 1.542355 0
M  V30 46 H -4.840542 0.267844 3.006038 0
M  V30 47 H -4.895509 0.179900 0.728642 0
M  V30 48 H -4.285900 1.740368 1.209878 0
M  V30 49 H -1.850885 0.600805 0.557522 0
M  V30 50 H -2.884758 -0.706737 -0.020928 0
M  V30 51 H -3.378216 2.155165 -0.947306 0
M  V30 52 H -5.077110 1.318289 -2.137158 0
M  V30 53 H -4.845344 -0.174369 -1.226069 0
M  V30 54 H -4.781449 -0.894571 -3.371989 0
M  V30 55 H -3.985072 0.552883 -4.034953 0
M  V30 56 H -2.515645 -1.398386 -4.076892 0
M  V30 57 H -2.742274 -1.655128 -2.276075 0
M  V30 58 H -1.093198 0.318200 -3.769261 0
M  V30 59 H -0.717084 -0.668312 -2.363494 0
M  V30 60 H -1.956770 2.071690 -2.650507 0
M  V30 61 H -1.040415 1.411169 -1.302031 0
M  V30 62 H -2.156419 0.424768 2.534114 0
M  V30 63 H 0.215913 0.487277 5.889231 0
M  V30 64 H 2.628751 0.992491 5.267905 0
M  V30 65 H 4.213461 2.210473 3.940128 0
M  V30 66 H 3.675949 2.829640 2.302270 0
M  V30 67 H 4.623689 -0.026444 2.734324 0
M  V30 68 H 5.058132 -1.914623 1.674812 0
M  V30 69 H 2.363741 -1.865999 -3.327883 0
M  V30 70 H 2.080230 -3.060080 -5.370578 0
M  V30 71 H 3.635907 -4.758181 -6.042030 0
M  V30 72 H 5.543411 -5.260013 -4.572771 0
M  V30 73 H 5.905103 -4.030216 -2.397955 0
M  V30 74 H 2.892131 0.395678 -2.876902 0
M  V30 75 H 2.960583 0.942124 -2.086995 0
M  V30 76 H 1.336056 2.622151 1.601066 0
M  V30 77 H -0.951143 2.159654 2.115419 0
M  V30 END ATOM
M  V30 BEGIN BOND
M  V30 1 1 1 2
M  V30 2 1 2 3
M  V30 3 1 3 4
M  V30 4 2 4 5
M  V30 5 1 4 6
M  V30 6 1 6 7
M  V30 7 1 7 8
M  V30 8 1 8 9
M  V30 9 1 9 10
M  V30 10 1 10 11
M  V30 11 1 11 12
M  V30 12 1 12 13
M  V30 13 1 13 14
M  V30 14 1 6 15
M  V30 15 1 15 16
M  V30 16 2 16 17
M  V30 17 1 16 18
M  V30 18 2 18 19
M  V30 19 1 19 20
M  V30 20 2 20 21
M  V30 21 1 21 22
M  V30 22 1 22 23
M  V30 23 1 23 24
M  V30 24 2 24 25
M  V30 25 1 24 26
M  V30 26 1 26 27
M  V30 27 2 27 28
M  V30 28 1 28 29
M  V30 29 1 29 30
M  V30 30 2 30 31
M  V30 31 1 31 32
M  V30 32 2 32 33
M  V30 33 1 33 34
M  V30 34 2 34 35
M  V30 35 1 29 36
M  V30 36 1 36 37
M  V30 37 1 21 38
M  V30 38 2 38 39
M  V30 39 1 14 9
M  V30 40 1 39 18
M  V30 41 2 36 26
M  V30 42 1 35 30
M  V30 43 1 1 40
M  V30 44 1 1 41
M  V30 45 1 1 42
M  V30 46 1 2 43
M  V30 47 1 2 44
M  V30 48 1 3 45
M  V30 49 1 6 46 CFG=1
M  V30 50 1 7 47
M  V30 51 1 7 48
M  V30 52 1 8 49
M  V30 53 1 8 50
M  V30 54 1 9 51
M  V30 55 1 10 52
M  V30 56 1 10 53
M  V30 57 1 11 54
M  V30 58 1 11 55
M  V30 59 1 12 56
M  V30 60 1 12 57
M  V30 61 1 13 58
M  V30 62 1 13 59
M  V30 63 1 14 60
M  V30 64 1 14 61
M  V30 65 1 15 62
M  V30 66 1 19 63
M  V30 67 1 20 64
M  V30 68 1 22 65
M  V30 69 1 22 66
M  V30 70 1 23 67
M  V30 71 1 27 68
M  V30 72 1 31 69
M  V30 73 1 32 70
M  V30 74 1 33 71
M  V30 75 1 34 72
M  V30 76 1 35 73
M  V30 77 1 37 74
M  V30 78 1 37 75
M  V30 79 1 38 76
M  V30 80 1 39 77
M  V30 END BOND
M  V30 END CTAB
M  END
>  <Dataset>  (639) 
ChEMBL_Kinases

>  <Ligand_Instance>  (639) 
nan

>  <PDB_ID>  (639) 
nan

>  <Standardized_SMILES>  (639) 
CCNC(=O)[C@H](CCC1CCCCC1)NC(=O)c1ccc(CNC(=O)c2cnn(-c3ccccc3)c2N)cc1

>  <Name>  (639) 
nan

>  <Pocket>  (639) 
nan

>  <ATP_Site>  (639) 
nan

>  <Peripheral>  (639) 
nan

>  <Num_H_Atoms_ProtBoundConf>  (639) 
nan

>  <Num_Resolved_Atoms>  (639) 
nan

>  <Num_Not_Resolved_Atoms>  (639) 
nan

$$$$
CHEMBL4756490
     RDKit          3D

  0  0  0  0  0  0  0  0  0  0999 V3000
M  V30 BEGIN CTAB
M  V30 COUNTS 37 40 0 0 0
M  V30 BEGIN ATOM
M  V30 1 F -0.351354 -6.846292 1.503515 0
M  V30 2 C 0.353186 -5.703313 1.299800 0
M  V30 3 C -0.326751 -4.493064 1.167741 0
M  V30 4 C 0.428704 -3.352815 0.961426 0
M  V30 5 C 1.802660 -3.461406 0.896256 0
M  V30 6 C 2.565123 -2.235213 0.677333 0
M  V30 7 N 3.869354 -1.961610 0.561877 0
M  V30 8 N 4.050685 -0.673166 0.368245 0
M  V30 9 C 2.847592 -0.079481 0.354588 0
M  V30 10 C 2.842366 1.360190 0.150428 0
M  V30 11 N 3.884410 2.185346 -0.027945 0
M  V30 12 N 3.522380 3.427447 -0.183090 0
M  V30 13 C 2.199880 3.483632 -0.113415 0
M  V30 14 C 1.737506 2.174595 0.099643 0
M  V30 15 C 0.314218 1.998914 0.208159 0
M  V30 16 C -0.611549 1.121822 0.387087 0
M  V30 17 C -2.064542 1.116115 0.473203 0
M  V30 18 C -2.721088 -0.069125 0.680121 0
M  V30 19 C -4.095157 0.023474 0.747586 0
M  V30 20 C -4.818299 1.190838 0.624156 0
M  V30 21 N -4.105495 2.314020 0.422756 0
M  V30 22 C -2.762581 2.297242 0.346349 0
M  V30 23 O 2.051171 -1.060800 0.540729 0
M  V30 24 C 2.484714 -4.655244 1.025858 0
M  V30 25 C 1.728055 -5.809337 1.234210 0
M  V30 26 H -1.409104 -4.497658 1.231897 0
M  V30 27 H -0.083791 -2.402652 0.856490 0
M  V30 28 H 4.250057 4.146754 -0.327964 0
M  V30 29 H 1.753189 4.476138 -0.228139 0
M  V30 30 H -0.349014 2.884757 0.121293 0
M  V30 31 H -0.120146 0.167599 0.493776 0
M  V30 32 H -2.222982 -1.032023 0.787706 0
M  V30 33 H -4.628090 -0.921335 0.913085 0
M  V30 34 H -5.893095 1.114695 0.698034 0
M  V30 35 H -2.328412 3.266104 0.183220 0
M  V30 36 H 3.572549 -4.687820 0.966676 0
M  V30 37 H 2.231299 -6.763752 1.340283 0
M  V30 END ATOM
M  V30 BEGIN BOND
M  V30 1 1 1 2
M  V30 2 2 2 3
M  V30 3 1 3 4
M  V30 4 2 4 5
M  V30 5 1 5 6
M  V30 6 2 6 7
M  V30 7 1 7 8
M  V30 8 2 8 9
M  V30 9 1 9 10
M  V30 10 2 10 11
M  V30 11 1 11 12
M  V30 12 1 12 13
M  V30 13 2 13 14
M  V30 14 1 14 15
M  V30 15 2 15 16
M  V30 16 1 16 17
M  V30 17 2 17 18
M  V30 18 1 18 19
M  V30 19 2 19 20
M  V30 20 1 20 21
M  V30 21 2 21 22
M  V30 22 1 9 23
M  V30 23 1 5 24
M  V30 24 2 24 25
M  V30 25 1 25 2
M  V30 26 1 23 6
M  V30 27 1 14 10
M  V30 28 1 22 17
M  V30 29 1 3 26
M  V30 30 1 4 27
M  V30 31 1 12 28
M  V30 32 1 13 29
M  V30 33 1 15 30
M  V30 34 1 16 31
M  V30 35 1 18 32
M  V30 36 1 19 33
M  V30 37 1 20 34
M  V30 38 1 22 35
M  V30 39 1 24 36
M  V30 40 1 25 37
M  V30 END BOND
M  V30 END CTAB
M  END
>  <Dataset>  (640) 
ChEMBL_Kinases

>  <Ligand_Instance>  (640) 
nan

>  <PDB_ID>  (640) 
nan

>  <Standardized_SMILES>  (640) 
Fc1ccc(-c2nnc(-c3n[nH]cc3/C=C/c3cccnc3)o2)cc1

>  <Name>  (640) 
nan

>  <Pocket>  (640) 
nan

>  <ATP_Site>  (640) 
nan

>  <Peripheral>  (640) 
nan

>  <Num_H_Atoms_ProtBoundConf>  (640) 
nan

>  <Num_Resolved_Atoms>  (640) 
nan

>  <Num_Not_Resolved_Atoms>  (640) 
nan

$$$$
CHEMBL4756460
     RDKit          3D

  0  0  0  0  0  0  0  0  0  0999 V3000
M  V30 BEGIN CTAB
M  V30 COUNTS 55 61 0 0 0
M  V30 BEGIN ATOM
M  V30 1 O 4.083746 -2.944025 1.592741 0
M  V30 2 C 4.216570 -3.337945 0.396087 0
M  V30 3 N 4.614441 -2.403536 -0.608338 0
M  V30 4 C 4.830707 -1.070879 -0.152138 0
M  V30 5 C 6.012577 -0.533449 0.300162 0
M  V30 6 N 6.071148 0.754792 0.705434 0
M  V30 7 C 5.003314 1.581947 0.695228 0
M  V30 8 C 3.801217 1.100294 0.255014 0
M  V30 9 C 2.582798 1.927913 0.207254 0
M  V30 10 C 2.689943 3.278414 -0.038320 0
M  V30 11 N 1.554071 4.003428 -0.073550 0
M  V30 12 C 0.344807 3.449257 0.121531 0
M  V30 13 N -0.919392 3.903858 0.143443 0
M  V30 14 N -1.758079 2.918823 0.383914 0
M  V30 15 C -1.126675 1.738603 0.540288 0
M  V30 16 C -1.767253 0.468691 0.814184 0
M  V30 17 N -3.102029 0.362801 0.938310 0
M  V30 18 C -3.481800 -0.875491 1.185263 0
M  V30 19 C -4.717032 -1.475894 1.387224 0
M  V30 20 C -5.930016 -0.669982 1.342717 0
M  V30 21 C -6.043055 0.549248 1.980109 0
M  V30 22 C -7.196782 1.313446 1.935480 0
M  V30 23 C -8.249541 0.778726 1.203806 0
M  V30 24 N -8.140167 -0.413687 0.579996 0
M  V30 25 C -7.013487 -1.146425 0.631199 0
M  V30 26 C -4.799297 -2.842336 1.632135 0
M  V30 27 N -3.649254 -3.572140 1.669090 0
M  V30 28 C -2.447874 -2.995494 1.474013 0
M  V30 29 C -2.359070 -1.660210 1.233915 0
M  V30 30 N -1.365894 -0.790123 1.002899 0
M  V30 31 C 0.188701 2.102460 0.370459 0
M  V30 32 C 1.349707 1.365341 0.405796 0
M  V30 33 C 3.717462 -0.230188 -0.169245 0
M  V30 34 C 3.971053 -4.758311 -0.016729 0
M  V30 35 C 3.349059 -4.914428 -1.400056 0
M  V30 36 C 4.766776 -5.294786 -1.180674 0
M  V30 37 H 4.748271 -2.651906 -1.631646 0
M  V30 38 H 6.860233 -1.202087 0.304907 0
M  V30 39 H 5.095105 2.585332 1.022564 0
M  V30 40 H 3.657859 3.774719 -0.204006 0
M  V30 41 H -1.234595 4.887640 -0.003948 0
M  V30 42 H -5.218444 0.944493 2.540212 0
M  V30 43 H -7.285195 2.265707 2.433216 0
M  V30 44 H -9.167414 1.370548 1.159133 0
M  V30 45 H -6.988334 -2.109590 0.101888 0
M  V30 46 H -5.785442 -3.295037 1.788736 0
M  V30 47 H -1.525658 -3.556627 1.500058 0
M  V30 48 H -0.378863 -1.102575 0.979474 0
M  V30 49 H 1.322802 0.328864 0.589536 0
M  V30 50 H 2.759345 -0.604440 -0.517695 0
M  V30 51 H 3.659081 -5.441723 0.782179 0
M  V30 52 H 2.603223 -5.722475 -1.544594 0
M  V30 53 H 3.161355 -4.007610 -2.011577 0
M  V30 54 H 4.968042 -6.402213 -1.175777 0
M  V30 55 H 5.612311 -4.670669 -1.494054 0
M  V30 END ATOM
M  V30 BEGIN BOND
M  V30 1 2 1 2
M  V30 2 1 2 3
M  V30 3 1 3 4
M  V30 4 2 4 5
M  V30 5 1 5 6
M  V30 6 2 6 7
M  V30 7 1 7 8
M  V30 8 1 8 9
M  V30 9 2 9 10
M  V30 10 1 10 11
M  V30 11 2 11 12
M  V30 12 1 12 13
M  V30 13 1 13 14
M  V30 14 2 14 15
M  V30 15 1 15 16
M  V30 16 2 16 17
M  V30 17 1 17 18
M  V30 18 2 18 19
M  V30 19 1 19 20
M  V30 20 2 20 21
M  V30 21 1 21 22
M  V30 22 2 22 23
M  V30 23 1 23 24
M  V30 24 2 24 25
M  V30 25 1 19 26
M  V30 26 2 26 27
M  V30 27 1 27 28
M  V30 28 2 28 29
M  V30 29 1 29 30
M  V30 30 1 15 31
M  V30 31 2 31 32
M  V30 32 2 8 33
M  V30 33 1 2 34
M  V30 34 1 34 35
M  V30 35 1 35 36
M  V30 36 1 33 4
M  V30 37 1 36 34
M  V30 38 1 32 9
M  V30 39 1 31 12
M  V30 40 1 30 16
M  V30 41 1 29 18
M  V30 42 1 25 20
M  V30 43 1 3 37
M  V30 44 1 5 38
M  V30 45 1 7 39
M  V30 46 1 10 40
M  V30 47 1 13 41
M  V30 48 1 21 42
M  V30 49 1 22 43
M  V30 50 1 23 44
M  V30 51 1 25 45
M  V30 52 1 26 46
M  V30 53 1 28 47
M  V30 54 1 30 48
M  V30 55 1 32 49
M  V30 56 1 33 50
M  V30 57 1 34 51
M  V30 58 1 35 52
M  V30 59 1 35 53
M  V30 60 1 36 54
M  V30 61 1 36 55
M  V30 END BOND
M  V30 END CTAB
M  END
>  <Dataset>  (641) 
ChEMBL_Kinases

>  <Ligand_Instance>  (641) 
nan

>  <PDB_ID>  (641) 
nan

>  <Standardized_SMILES>  (641) 
O=C(Nc1cncc(-c2cnc3[nH]nc(-c4nc5c(-c6cccnc6)cncc5[nH]4)c3c2)c1)C1CC1

>  <Name>  (641) 
nan

>  <Pocket>  (641) 
nan

>  <ATP_Site>  (641) 
nan

>  <Peripheral>  (641) 
nan

>  <Num_H_Atoms_ProtBoundConf>  (641) 
nan

>  <Num_Resolved_Atoms>  (641) 
nan

>  <Num_Not_Resolved_Atoms>  (641) 
nan

$$$$
CHEMBL4756438
     RDKit          3D

  0  0  0  0  0  0  0  0  0  0999 V3000
M  V30 BEGIN CTAB
M  V30 COUNTS 47 52 0 0 0
M  V30 BEGIN ATOM
M  V30 1 C 0.352432 -0.455748 -3.915274 0
M  V30 2 C 1.476455 -0.037564 -3.061963 0
M  V30 3 C 2.758566 0.419223 -3.388549 0
M  V30 4 C 3.572579 0.731681 -2.358866 0
M  V30 5 C 3.100560 0.584908 -1.056975 0
M  V30 6 C 3.877742 0.887271 0.149468 0
M  V30 7 C 5.168416 1.352333 0.101917 0
M  V30 8 N 5.840935 1.615880 1.250263 0
M  V30 9 C 5.283970 1.436674 2.458347 0
M  V30 10 C 3.970162 0.962974 2.490138 0
M  V30 11 N 3.154163 0.687023 3.520383 0
M  V30 12 C 1.959532 0.247865 3.083856 0
M  V30 13 C 0.855920 -0.134783 3.957210 0
M  V30 14 N 0.894037 -0.096937 5.290906 0
M  V30 15 N -0.257010 -0.503184 5.807492 0
M  V30 16 C -1.058349 -0.810832 4.792138 0
M  V30 17 C -2.364931 -1.284505 4.684341 0
M  V30 18 N -2.913348 -1.504164 3.484759 0
M  V30 19 C -2.274440 -1.294777 2.305936 0
M  V30 20 C -2.941645 -1.558317 1.049485 0
M  V30 21 C -2.376276 -1.376393 -0.179535 0
M  V30 22 N -3.046139 -1.638660 -1.313745 0
M  V30 23 C -4.310567 -2.094259 -1.267002 0
M  V30 24 C -4.972975 -2.312058 -0.084764 0
M  V30 25 N -6.297547 -2.787401 0.071329 0
M  V30 26 C -4.241140 -2.027393 1.050969 0
M  V30 27 C -0.998507 -0.832459 2.397730 0
M  V30 28 C -0.390826 -0.591586 3.587275 0
M  V30 29 N 2.012423 0.242664 1.740209 0
M  V30 30 C 3.224150 0.672925 1.343354 0
M  V30 31 S 1.496751 0.003531 -1.196482 0
M  V30 32 H 0.597391 -1.449264 -4.340807 0
M  V30 33 H -0.612748 -0.417888 -3.376196 0
M  V30 34 H 0.280694 0.264870 -4.753321 0
M  V30 35 H 2.976696 0.478795 -4.443908 0
M  V30 36 H 4.593622 1.096629 -2.556402 0
M  V30 37 H 5.654084 1.510202 -0.862289 0
M  V30 38 H 5.810620 1.643342 3.373120 0
M  V30 39 H 3.451337 0.812416 4.522089 0
M  V30 40 H -0.596915 -0.608200 6.787936 0
M  V30 41 H -2.913887 -1.466108 5.603341 0
M  V30 42 H -1.372601 -1.015415 -0.253419 0
M  V30 43 H -4.878357 -2.315753 -2.183422 0
M  V30 44 H -6.584903 -3.784194 0.005889 0
M  V30 45 H -7.236095 -2.377594 0.264892 0
M  V30 46 H -4.713577 -2.180337 2.026881 0
M  V30 47 H -0.420367 -0.639705 1.512864 0
M  V30 END ATOM
M  V30 BEGIN BOND
M  V30 1 1 1 2
M  V30 2 2 2 3
M  V30 3 1 3 4
M  V30 4 2 4 5
M  V30 5 1 5 6
M  V30 6 2 6 7
M  V30 7 1 7 8
M  V30 8 2 8 9
M  V30 9 1 9 10
M  V30 10 1 10 11
M  V30 11 1 11 12
M  V30 12 1 12 13
M  V30 13 2 13 14
M  V30 14 1 14 15
M  V30 15 1 15 16
M  V30 16 2 16 17
M  V30 17 1 17 18
M  V30 18 2 18 19
M  V30 19 1 19 20
M  V30 20 2 20 21
M  V30 21 1 21 22
M  V30 22 2 22 23
M  V30 23 1 23 24
M  V30 24 1 24 25
M  V30 25 2 24 26
M  V30 26 1 19 27
M  V30 27 2 27 28
M  V30 28 2 12 29
M  V30 29 1 29 30
M  V30 30 1 5 31
M  V30 31 1 31 2
M  V30 32 1 30 6
M  V30 33 2 30 10
M  V30 34 1 28 13
M  V30 35 1 28 16
M  V30 36 1 26 20
M  V30 37 1 1 32
M  V30 38 1 1 33
M  V30 39 1 1 34
M  V30 40 1 3 35
M  V30 41 1 4 36
M  V30 42 1 7 37
M  V30 43 1 9 38
M  V30 44 1 11 39
M  V30 45 1 15 40
M  V30 46 1 17 41
M  V30 47 1 21 42
M  V30 48 1 23 43
M  V30 49 1 25 44
M  V30 50 1 25 45
M  V30 51 1 26 46
M  V30 52 1 27 47
M  V30 END BOND
M  V30 END CTAB
M  END
>  <Dataset>  (642) 
ChEMBL_Kinases

>  <Ligand_Instance>  (642) 
nan

>  <PDB_ID>  (642) 
nan

>  <Standardized_SMILES>  (642) 
Cc1ccc(-c2cncc3[nH]c(-c4n[nH]c5cnc(-c6cncc(N)c6)cc45)nc23)s1

>  <Name>  (642) 
nan

>  <Pocket>  (642) 
nan

>  <ATP_Site>  (642) 
nan

>  <Peripheral>  (642) 
nan

>  <Num_H_Atoms_ProtBoundConf>  (642) 
nan

>  <Num_Resolved_Atoms>  (642) 
nan

>  <Num_Not_Resolved_Atoms>  (642) 
nan

$$$$
CHEMBL4292295
     RDKit          3D

  0  0  0  0  0  0  0  0  0  0999 V3000
M  V30 BEGIN CTAB
M  V30 COUNTS 134 137 0 0 0
M  V30 BEGIN ATOM
M  V30 1 C -6.468775 -5.100487 -3.429789 0
M  V30 2 C -5.481102 -4.916254 -2.332766 0
M  V30 3 O -6.081002 -5.075033 -1.221373 0
M  V30 4 N -4.099988 -4.612709 -2.585424 0
M  V30 5 C -3.371585 -4.422253 -3.843599 0
M  V30 6 C -1.966070 -4.864230 -3.518026 0
M  V30 7 C -1.801446 -4.756645 -2.025148 0
M  V30 8 C -3.153826 -4.434096 -1.488471 0 CFG=1
M  V30 9 C -3.252178 -3.069750 -0.931986 0
M  V30 10 O -4.151022 -2.730705 -1.785070 0
M  V30 11 N -2.738928 -2.211910 0.068247 0
M  V30 12 C -3.257449 -0.845764 0.157268 0 CFG=1
M  V30 13 C -3.734133 -0.689957 1.581374 0
M  V30 14 C -4.828693 -1.693217 1.896144 0
M  V30 15 C -5.242557 -1.512748 3.341761 0
M  V30 16 C -6.025707 -1.364107 1.017172 0
M  V30 17 C -2.209011 0.165035 -0.121767 0
M  V30 18 O -2.208064 1.415911 -0.256236 0
M  V30 19 N -0.872124 -0.319775 -0.289365 0
M  V30 20 C 0.362191 0.338334 -0.588696 0 CFG=1
M  V30 21 C 1.191676 0.672154 0.641882 0
M  V30 22 C 0.573356 1.849240 1.276767 0
M  V30 23 C 0.837702 2.914033 0.381905 0
M  V30 24 N 0.310180 4.090406 0.854381 0 CHG=1 VAL=4
M  V30 25 C -0.277308 3.786459 2.022548 0
M  V30 26 N -0.101306 2.466221 2.235713 0
M  V30 27 C -0.550554 1.717952 3.421623 0
M  V30 28 C 0.466323 1.816976 4.515245 0
M  V30 29 C -0.016507 1.046627 5.739998 0
M  V30 30 C -1.307210 1.532922 6.257269 0
M  V30 31 C -1.864363 1.002459 7.522596 0
M  V30 32 C -2.105700 -0.423318 7.738481 0
M  V30 33 C -0.898006 -1.308301 7.808685 0
M  V30 34 C 0.002077 -0.835186 8.961411 0
M  V30 35 C 1.213515 -1.680508 9.105226 0
M  V30 36 C 2.390988 -1.382747 8.436811 0
M  V30 37 C 3.528858 -2.139709 8.549775 0
M  V30 38 C 3.483095 -3.253805 9.377142 0
M  V30 39 C 2.320399 -3.588246 10.066183 0
M  V30 40 C 1.194876 -2.781295 9.912096 0
M  V30 41 C 0.533966 5.271894 -0.003085 0
M  V30 42 C -0.065376 5.075619 -1.351299 0
M  V30 43 C 0.156530 6.122016 -2.361924 0
M  V30 44 C 1.572737 6.387754 -2.789794 0
M  V30 45 N 2.199789 5.190625 -3.295747 0
M  V30 46 C 3.386002 4.764880 -3.884742 0
M  V30 47 O 3.725896 5.963883 -3.806121 0
M  V30 48 C 4.140730 3.656235 -4.422787 0 CFG=2
M  V30 49 C 4.043067 3.830328 -5.963504 0 CFG=1
M  V30 50 C 2.606420 3.906628 -6.385796 0
M  V30 51 O 4.630644 5.062898 -6.219001 0
M  V30 52 P 5.853936 4.749336 -7.373669 0
M  V30 53 O 5.189422 4.281880 -8.673738 0
M  V30 54 O 6.741125 6.112120 -7.745220 0
M  V30 55 O 6.891275 3.522890 -6.879509 0
M  V30 56 N 3.571679 2.399783 -4.046624 0
M  V30 57 C 3.737429 1.006721 -3.974013 0
M  V30 58 O 4.822663 1.054755 -4.590455 0
M  V30 59 C 3.119155 -0.225503 -3.495213 0 CFG=2
M  V30 60 C 2.349679 -0.828779 -4.736239 0
M  V30 61 O 3.345436 -1.078307 -5.669821 0
M  V30 62 N 2.125253 0.055316 -2.486634 0
M  V30 63 C 1.065109 -0.350415 -1.651650 0
M  V30 64 O 1.066328 -1.440531 -2.250596 0
M  V30 65 H -7.187556 -4.232188 -3.391671 0
M  V30 66 H -5.915551 -5.080446 -4.380494 0
M  V30 67 H -6.998257 -6.054693 -3.372618 0
M  V30 68 H -3.805469 -5.078919 -4.611482 0
M  V30 69 H -3.411352 -3.360833 -4.151899 0
M  V30 70 H -1.230434 -4.251957 -4.079158 0
M  V30 71 H -1.834912 -5.919264 -3.884761 0
M  V30 72 H -1.038518 -3.992239 -1.757518 0
M  V30 73 H -1.467682 -5.769150 -1.669863 0
M  V30 74 H -3.430651 -5.207236 -0.715628 0
M  V30 75 H -2.054067 -2.819712 0.540210 0
M  V30 76 H -4.041668 -0.738347 -0.584944 0
M  V30 77 H -2.907167 -0.816171 2.302139 0
M  V30 78 H -4.172285 0.324445 1.765058 0
M  V30 79 H -4.449197 -2.692954 1.687272 0
M  V30 80 H -5.334113 -0.452258 3.597614 0
M  V30 81 H -6.235574 -2.026328 3.438004 0
M  V30 82 H -4.515898 -2.055779 3.990625 0
M  V30 83 H -6.879259 -2.036793 1.277165 0
M  V30 84 H -6.417244 -0.339287 1.263411 0
M  V30 85 H -5.825030 -1.488512 -0.059696 0
M  V30 86 H -0.682089 -1.363753 -0.180552 0
M  V30 87 H 0.102997 1.396118 -0.975136 0
M  V30 88 H 2.219152 0.863350 0.304906 0
M  V30 89 H 1.252885 -0.199863 1.332101 0
M  V30 90 H 1.376352 2.934483 -0.572331 0
M  V30 91 H -0.778079 4.514855 2.622439 0
M  V30 92 H -1.466190 2.245678 3.734844 0
M  V30 93 H -0.700526 0.651869 3.186589 0
M  V30 94 H 0.689842 2.845095 4.808545 0
M  V30 95 H 1.395768 1.295000 4.193047 0
M  V30 96 H 0.775882 0.959434 6.494639 0
M  V30 97 H -0.166598 0.001465 5.298683 0
M  V30 98 H -1.221745 2.666122 6.418702 0
M  V30 99 H -2.093179 1.497948 5.432176 0
M  V30 100 H -1.185060 1.380535 8.347933 0
M  V30 101 H -2.838293 1.542314 7.783978 0
M  V30 102 H -2.831406 -0.863747 6.991345 0
M  V30 103 H -2.650849 -0.598563 8.720145 0
M  V30 104 H -0.278812 -1.422092 6.939698 0
M  V30 105 H -1.242210 -2.366815 8.055125 0
M  V30 106 H 0.347445 0.198370 8.753084 0
M  V30 107 H -0.570792 -0.894258 9.885631 0
M  V30 108 H 2.394276 -0.498448 7.794346 0
M  V30 109 H 4.406876 -1.853995 8.002579 0
M  V30 110 H 4.394952 -3.863275 9.470019 0
M  V30 111 H 2.276443 -4.457057 10.714194 0
M  V30 112 H 0.298575 -3.040097 10.445475 0
M  V30 113 H 1.586623 5.607440 0.013937 0
M  V30 114 H -0.033584 6.100556 0.525484 0
M  V30 115 H -1.195489 5.012638 -1.223623 0
M  V30 116 H 0.174046 4.041386 -1.712576 0
M  V30 117 H -0.345653 7.056950 -2.062062 0
M  V30 118 H -0.382778 5.796772 -3.297977 0
M  V30 119 H 1.507803 7.161969 -3.586010 0
M  V30 120 H 2.219354 6.771476 -2.001461 0
M  V30 121 H 1.753850 4.247774 -3.299953 0
M  V30 122 H 5.213273 3.744273 -4.242179 0
M  V30 123 H 4.577899 3.076918 -6.514595 0
M  V30 124 H 2.285190 4.959918 -6.613200 0
M  V30 125 H 1.938446 3.400622 -5.684226 0
M  V30 126 H 2.512419 3.372728 -7.365611 0
M  V30 127 H 6.159164 6.877150 -8.051357 0
M  V30 128 H 7.821848 3.627975 -7.160698 0
M  V30 129 H 2.620517 2.391195 -3.641386 0
M  V30 130 H 3.833377 -1.002342 -3.285287 0
M  V30 131 H 1.880038 -1.752089 -4.412229 0
M  V30 132 H 1.690714 -0.046603 -5.142173 0
M  V30 133 H 3.938439 -1.786961 -5.261106 0
M  V30 134 H 2.177433 1.051072 -2.188695 0
M  V30 END ATOM
M  V30 BEGIN BOND
M  V30 1 1 1 2
M  V30 2 2 2 3
M  V30 3 1 2 4
M  V30 4 1 4 5
M  V30 5 1 5 6
M  V30 6 1 6 7
M  V30 7 1 7 8
M  V30 8 1 8 9
M  V30 9 2 9 10
M  V30 10 1 9 11
M  V30 11 1 11 12
M  V30 12 1 12 13
M  V30 13 1 13 14
M  V30 14 1 14 15
M  V30 15 1 14 16
M  V30 16 1 12 17
M  V30 17 2 17 18
M  V30 18 1 17 19
M  V30 19 1 19 20
M  V30 20 1 20 21
M  V30 21 1 21 22
M  V30 22 2 22 23
M  V30 23 1 23 24
M  V30 24 2 24 25
M  V30 25 1 25 26
M  V30 26 1 26 27
M  V30 27 1 27 28
M  V30 28 1 28 29
M  V30 29 1 29 30
M  V30 30 1 30 31
M  V30 31 1 31 32
M  V30 32 1 32 33
M  V30 33 1 33 34
M  V30 34 1 34 35
M  V30 35 2 35 36
M  V30 36 1 36 37
M  V30 37 2 37 38
M  V30 38 1 38 39
M  V30 39 2 39 40
M  V30 40 1 24 41
M  V30 41 1 41 42
M  V30 42 1 42 43
M  V30 43 1 43 44
M  V30 44 1 44 45
M  V30 45 1 45 46
M  V30 46 2 46 47
M  V30 47 1 46 48
M  V30 48 1 48 49
M  V30 49 1 49 50
M  V30 50 1 49 51
M  V30 51 1 51 52
M  V30 52 2 52 53
M  V30 53 1 52 54
M  V30 54 1 52 55
M  V30 55 1 48 56
M  V30 56 1 56 57
M  V30 57 2 57 58
M  V30 58 1 57 59
M  V30 59 1 59 60
M  V30 60 1 60 61
M  V30 61 1 59 62
M  V30 62 1 62 63
M  V30 63 2 63 64
M  V30 64 1 8 4
M  V30 65 1 63 20
M  V30 66 1 26 22
M  V30 67 1 40 35
M  V30 68 1 1 65
M  V30 69 1 1 66
M  V30 70 1 1 67
M  V30 71 1 5 68
M  V30 72 1 5 69
M  V30 73 1 6 70
M  V30 74 1 6 71
M  V30 75 1 7 72
M  V30 76 1 7 73
M  V30 77 1 8 74 CFG=1
M  V30 78 1 11 75
M  V30 79 1 12 76 CFG=3
M  V30 80 1 13 77
M  V30 81 1 13 78
M  V30 82 1 14 79
M  V30 83 1 15 80
M  V30 84 1 15 81
M  V30 85 1 15 82
M  V30 86 1 16 83
M  V30 87 1 16 84
M  V30 88 1 16 85
M  V30 89 1 19 86
M  V30 90 1 20 87 CFG=3
M  V30 91 1 21 88
M  V30 92 1 21 89
M  V30 93 1 23 90
M  V30 94 1 25 91
M  V30 95 1 27 92
M  V30 96 1 27 93
M  V30 97 1 28 94
M  V30 98 1 28 95
M  V30 99 1 29 96
M  V30 100 1 29 97
M  V30 101 1 30 98
M  V30 102 1 30 99
M  V30 103 1 31 100
M  V30 104 1 31 101
M  V30 105 1 32 102
M  V30 106 1 32 103
M  V30 107 1 33 104
M  V30 108 1 33 105
M  V30 109 1 34 106
M  V30 110 1 34 107
M  V30 111 1 36 108
M  V30 112 1 37 109
M  V30 113 1 38 110
M  V30 114 1 39 111
M  V30 115 1 40 112
M  V30 116 1 41 113
M  V30 117 1 41 114
M  V30 118 1 42 115
M  V30 119 1 42 116
M  V30 120 1 43 117
M  V30 121 1 43 118
M  V30 122 1 44 119
M  V30 123 1 44 120
M  V30 124 1 45 121
M  V30 125 1 48 122 CFG=1
M  V30 126 1 49 123 CFG=3
M  V30 127 1 50 124
M  V30 128 1 50 125
M  V30 129 1 50 126
M  V30 130 1 54 127
M  V30 131 1 55 128
M  V30 132 1 56 129
M  V30 133 1 59 130 CFG=1
M  V30 134 1 60 131
M  V30 135 1 60 132
M  V30 136 1 61 133
M  V30 137 1 62 134
M  V30 END BOND
M  V30 END CTAB
M  END
>  <Dataset>  (643) 
ChEMBL_Kinases

>  <Ligand_Instance>  (643) 
nan

>  <PDB_ID>  (643) 
nan

>  <Standardized_SMILES>  (643) 
CC(=O)N1CCC[C@H]1C(=O)N[C@@H](CC(C)C)C(=O)N[C@H]1Cc2c[n+](cn2CCCCCCCCc2ccccc2)CCCCNC(=O)[C@H]([C@@H](C)OP(=O)(O)O)NC(=O)[C@H](CO)NC1=O

>  <Name>  (643) 
nan

>  <Pocket>  (643) 
nan

>  <ATP_Site>  (643) 
nan

>  <Peripheral>  (643) 
nan

>  <Num_H_Atoms_ProtBoundConf>  (643) 
nan

>  <Num_Resolved_Atoms>  (643) 
nan

>  <Num_Not_Resolved_Atoms>  (643) 
nan

$$$$
CHEMBL4756353
     RDKit          3D

  0  0  0  0  0  0  0  0  0  0999 V3000
M  V30 BEGIN CTAB
M  V30 COUNTS 63 65 0 0 0
M  V30 BEGIN ATOM
M  V30 1 C 8.811227 0.339964 -1.887061 0
M  V30 2 N 7.431009 0.705404 -1.624610 0
M  V30 3 C 6.519576 -0.384919 -1.847723 0
M  V30 4 C 7.264313 1.326884 -0.330245 0
M  V30 5 C 5.899267 1.699825 0.016607 0
M  V30 6 C 5.394356 2.882864 0.313130 0
M  V30 7 C 3.973463 2.911563 0.615688 0
M  V30 8 O 3.270373 1.866603 0.583807 0
M  V30 9 N 3.199435 4.042072 0.973483 0
M  V30 10 C 1.870143 3.519788 1.157093 0
M  V30 11 C 1.172923 3.629306 -0.054239 0
M  V30 12 C -0.146710 3.170567 -0.135428 0
M  V30 13 C -0.708028 2.619217 1.013623 0
M  V30 14 C -2.094615 2.099919 1.034689 0
M  V30 15 O -2.585227 1.456765 2.009077 0
M  V30 16 N -2.966927 2.299109 -0.055075 0
M  V30 17 C -4.320817 1.695903 0.156703 0
M  V30 18 N -5.353006 1.893386 0.593904 0
M  V30 19 C -6.407835 1.119918 0.616193 0
M  V30 20 C -6.257302 -0.112424 0.028350 0
M  V30 21 S -7.541258 -1.408228 -0.094262 0
M  V30 22 C -6.893629 -2.817072 -1.001686 0
M  V30 23 C -5.786711 -3.525324 -0.311386 0
M  V30 24 N -4.545023 -3.051976 -0.586158 0
M  V30 25 C -3.630059 -3.750765 0.078434 0
M  V30 26 C -4.350827 -4.684678 0.783309 0
M  V30 27 C -3.787115 -5.724435 1.695183 0
M  V30 28 C -2.286565 -5.538586 1.695678 0
M  V30 29 C -4.090825 -7.111433 1.205020 0
M  V30 30 C -4.401680 -5.535634 3.056293 0
M  V30 31 O -5.621807 -4.503867 0.514284 0
M  V30 32 S -4.539657 -0.081726 -0.542338 0
M  V30 33 C -0.002285 2.521547 2.198338 0
M  V30 34 C 1.297886 2.972849 2.281244 0
M  V30 35 H 9.415454 1.264580 -1.786653 0
M  V30 36 H 9.206847 -0.400127 -1.170165 0
M  V30 37 H 8.952261 -0.043700 -2.904047 0
M  V30 38 H 6.185035 -0.761836 -0.850810 0
M  V30 39 H 7.123015 -1.248451 -2.256740 0
M  V30 40 H 5.720737 -0.193388 -2.564864 0
M  V30 41 H 7.654031 0.634818 0.449565 0
M  V30 42 H 7.907347 2.248803 -0.239612 0
M  V30 43 H 5.274982 0.824839 0.003462 0
M  V30 44 H 6.085705 3.688942 0.299622 0
M  V30 45 H 3.721476 4.968090 1.028628 0
M  V30 46 H 1.528923 4.040937 -0.986611 0
M  V30 47 H -0.728391 3.231575 -1.055042 0
M  V30 48 H -2.701659 2.803519 -0.900925 0
M  V30 49 H -7.348489 1.440747 1.077765 0
M  V30 50 H -7.734773 -3.567897 -1.041141 0
M  V30 51 H -6.679612 -2.603200 -2.071735 0
M  V30 52 H -2.561339 -3.581599 0.036453 0
M  V30 53 H -2.040397 -4.599844 2.272910 0
M  V30 54 H -1.878583 -5.378085 0.697563 0
M  V30 55 H -1.808492 -6.386539 2.213869 0
M  V30 56 H -4.357402 -7.134605 0.119884 0
M  V30 57 H -3.220358 -7.759312 1.372823 0
M  V30 58 H -4.979693 -7.550619 1.723835 0
M  V30 59 H -3.694990 -5.846459 3.871129 0
M  V30 60 H -5.338250 -6.150964 3.122940 0
M  V30 61 H -4.725457 -4.483481 3.145156 0
M  V30 62 H -0.382817 2.105638 3.129310 0
M  V30 63 H 1.963360 2.962664 3.133804 0
M  V30 END ATOM
M  V30 BEGIN BOND
M  V30 1 1 1 2
M  V30 2 1 2 3
M  V30 3 1 2 4
M  V30 4 1 4 5
M  V30 5 2 5 6
M  V30 6 1 6 7
M  V30 7 2 7 8
M  V30 8 1 7 9
M  V30 9 1 9 10
M  V30 10 2 10 11
M  V30 11 1 11 12
M  V30 12 2 12 13
M  V30 13 1 13 14
M  V30 14 2 14 15
M  V30 15 1 14 16
M  V30 16 1 16 17
M  V30 17 2 17 18
M  V30 18 1 18 19
M  V30 19 2 19 20
M  V30 20 1 20 21
M  V30 21 1 21 22
M  V30 22 1 22 23
M  V30 23 2 23 24
M  V30 24 1 24 25
M  V30 25 2 25 26
M  V30 26 1 26 27
M  V30 27 1 27 28
M  V30 28 1 27 29
M  V30 29 1 27 30
M  V30 30 1 26 31
M  V30 31 1 20 32
M  V30 32 1 13 33
M  V30 33 2 33 34
M  V30 34 1 34 10
M  V30 35 1 32 17
M  V30 36 1 31 23
M  V30 37 1 1 35
M  V30 38 1 1 36
M  V30 39 1 1 37
M  V30 40 1 3 38
M  V30 41 1 3 39
M  V30 42 1 3 40
M  V30 43 1 4 41
M  V30 44 1 4 42
M  V30 45 1 5 43
M  V30 46 1 6 44
M  V30 47 1 9 45
M  V30 48 1 11 46
M  V30 49 1 12 47
M  V30 50 1 16 48
M  V30 51 1 19 49
M  V30 52 1 22 50
M  V30 53 1 22 51
M  V30 54 1 25 52
M  V30 55 1 28 53
M  V30 56 1 28 54
M  V30 57 1 28 55
M  V30 58 1 29 56
M  V30 59 1 29 57
M  V30 60 1 29 58
M  V30 61 1 30 59
M  V30 62 1 30 60
M  V30 63 1 30 61
M  V30 64 1 33 62
M  V30 65 1 34 63
M  V30 END BOND
M  V30 END CTAB
M  END
>  <Dataset>  (644) 
ChEMBL_Kinases

>  <Ligand_Instance>  (644) 
nan

>  <PDB_ID>  (644) 
nan

>  <Standardized_SMILES>  (644) 
CN(C)C/C=C/C(=O)Nc1ccc(C(=O)Nc2ncc(SCc3ncc(C(C)(C)C)o3)s2)cc1

>  <Name>  (644) 
nan

>  <Pocket>  (644) 
nan

>  <ATP_Site>  (644) 
nan

>  <Peripheral>  (644) 
nan

>  <Num_H_Atoms_ProtBoundConf>  (644) 
nan

>  <Num_Resolved_Atoms>  (644) 
nan

>  <Num_Not_Resolved_Atoms>  (644) 
nan

$$$$
CHEMBL4756198
     RDKit          3D

  0  0  0  0  0  0  0  0  0  0999 V3000
M  V30 BEGIN CTAB
M  V30 COUNTS 71 75 0 0 0
M  V30 BEGIN ATOM
M  V30 1 C -0.271028 -3.125630 6.400685 0
M  V30 2 C 0.993529 -3.938015 6.304924 0
M  V30 3 C 0.659448 -5.402481 6.424677 0
M  V30 4 C 1.741829 -3.648110 5.011738 0
M  V30 5 C 2.114740 -2.216122 4.929221 0
M  V30 6 O 1.730858 -1.550882 5.924526 0
M  V30 7 N 2.823703 -1.700691 3.833459 0
M  V30 8 C 3.131913 -0.305622 3.849755 0
M  V30 9 C 4.292362 0.142156 4.441246 0
M  V30 10 C 4.581645 1.486270 4.449210 0
M  V30 11 N 3.735900 2.361165 3.882073 0
M  V30 12 C 2.581946 1.979050 3.286580 0
M  V30 13 C 2.277330 0.634114 3.270232 0
M  V30 14 N 1.074143 0.238842 2.638936 0
M  V30 15 C -0.195121 0.110027 3.183634 0
M  V30 16 O -0.105951 0.420847 4.415090 0
M  V30 17 C -1.484893 -0.274472 2.672179 0
M  V30 18 N -2.497253 -0.318880 3.558200 0
M  V30 19 N -3.615504 -0.690752 2.917477 0
M  V30 20 C -3.403627 -0.904421 1.611918 0
M  V30 21 C -4.149029 -1.283101 0.517901 0
M  V30 22 C -3.513107 -1.386235 -0.709236 0
M  V30 23 C -2.159141 -1.115068 -0.834272 0
M  V30 24 C -1.460538 -1.216666 -2.136735 0
M  V30 25 C -0.121796 -1.584770 -2.100842 0
M  V30 26 N 0.622284 -1.709473 -3.215388 0
M  V30 27 C 0.059148 -1.469884 -4.433559 0
M  V30 28 C -1.282109 -1.098276 -4.510144 0
M  V30 29 C -1.901795 -0.835925 -5.835050 0
M  V30 30 N -1.791547 0.526366 -6.227123 0
M  V30 31 C -2.411848 1.460810 -5.352599 0
M  V30 32 C -2.201308 2.899424 -5.768363 0
M  V30 33 C -0.734819 3.180723 -5.715659 0
M  V30 34 C 0.084678 1.902119 -5.707522 0
M  V30 35 C -0.529919 0.958463 -6.716645 0
M  V30 36 C -2.042752 -0.970157 -3.380280 0
M  V30 37 C -1.436185 -0.739088 0.272260 0
M  V30 38 C -2.064224 -0.637650 1.482863 0
M  V30 39 H -1.098066 -3.732817 6.863613 0
M  V30 40 H -0.654128 -2.806016 5.400065 0
M  V30 41 H -0.154156 -2.260854 7.094664 0
M  V30 42 H 1.673878 -3.615859 7.141352 0
M  V30 43 H 1.469333 -5.899468 6.979192 0
M  V30 44 H 0.498451 -5.810634 5.413461 0
M  V30 45 H -0.271975 -5.530731 7.017047 0
M  V30 46 H 1.091508 -3.884610 4.144901 0
M  V30 47 H 2.649018 -4.263627 4.925084 0
M  V30 48 H 3.121495 -2.303338 3.028867 0
M  V30 49 H 4.996655 -0.516044 4.905551 0
M  V30 50 H 5.499869 1.843326 4.917118 0
M  V30 51 H 1.916664 2.696454 2.837162 0
M  V30 52 H 1.158539 0.018551 1.649482 0
M  V30 53 H -4.538956 -0.796864 3.400957 0
M  V30 54 H -5.190192 -1.483076 0.660448 0
M  V30 55 H -4.078540 -1.683885 -1.592503 0
M  V30 56 H 0.447576 -1.803512 -1.206601 0
M  V30 57 H 0.689001 -1.579919 -5.315674 0
M  V30 58 H -2.932108 -1.228621 -5.860267 0
M  V30 59 H -1.326460 -1.469782 -6.571875 0
M  V30 60 H -3.517914 1.318588 -5.277680 0
M  V30 61 H -1.951905 1.357283 -4.339999 0
M  V30 62 H -2.737663 3.512111 -5.016857 0
M  V30 63 H -2.657002 3.120946 -6.753756 0
M  V30 64 H -0.386148 3.824870 -6.558330 0
M  V30 65 H -0.514677 3.735061 -4.780665 0
M  V30 66 H 1.153398 2.103814 -5.925518 0
M  V30 67 H 0.046385 1.410631 -4.717790 0
M  V30 68 H -0.586870 1.527197 -7.675792 0
M  V30 69 H 0.163691 0.119842 -6.929278 0
M  V30 70 H -3.072850 -0.690201 -3.367953 0
M  V30 71 H -0.400542 -0.536248 0.145806 0
M  V30 END ATOM
M  V30 BEGIN BOND
M  V30 1 1 1 2
M  V30 2 1 2 3
M  V30 3 1 2 4
M  V30 4 1 4 5
M  V30 5 2 5 6
M  V30 6 1 5 7
M  V30 7 1 7 8
M  V30 8 2 8 9
M  V30 9 1 9 10
M  V30 10 2 10 11
M  V30 11 1 11 12
M  V30 12 2 12 13
M  V30 13 1 13 14
M  V30 14 1 14 15
M  V30 15 2 15 16
M  V30 16 1 15 17
M  V30 17 2 17 18
M  V30 18 1 18 19
M  V30 19 1 19 20
M  V30 20 2 20 21
M  V30 21 1 21 22
M  V30 22 2 22 23
M  V30 23 1 23 24
M  V30 24 2 24 25
M  V30 25 1 25 26
M  V30 26 2 26 27
M  V30 27 1 27 28
M  V30 28 1 28 29
M  V30 29 1 29 30
M  V30 30 1 30 31
M  V30 31 1 31 32
M  V30 32 1 32 33
M  V30 33 1 33 34
M  V30 34 1 34 35
M  V30 35 2 28 36
M  V30 36 1 23 37
M  V30 37 2 37 38
M  V30 38 1 13 8
M  V30 39 1 38 17
M  V30 40 1 38 20
M  V30 41 1 36 24
M  V30 42 1 35 30
M  V30 43 1 1 39
M  V30 44 1 1 40
M  V30 45 1 1 41
M  V30 46 1 2 42
M  V30 47 1 3 43
M  V30 48 1 3 44
M  V30 49 1 3 45
M  V30 50 1 4 46
M  V30 51 1 4 47
M  V30 52 1 7 48
M  V30 53 1 9 49
M  V30 54 1 10 50
M  V30 55 1 12 51
M  V30 56 1 14 52
M  V30 57 1 19 53
M  V30 58 1 21 54
M  V30 59 1 22 55
M  V30 60 1 25 56
M  V30 61 1 27 57
M  V30 62 1 29 58
M  V30 63 1 29 59
M  V30 64 1 31 60
M  V30 65 1 31 61
M  V30 66 1 32 62
M  V30 67 1 32 63
M  V30 68 1 33 64
M  V30 69 1 33 65
M  V30 70 1 34 66
M  V30 71 1 34 67
M  V30 72 1 35 68
M  V30 73 1 35 69
M  V30 74 1 36 70
M  V30 75 1 37 71
M  V30 END BOND
M  V30 END CTAB
M  END
>  <Dataset>  (645) 
ChEMBL_Kinases

>  <Ligand_Instance>  (645) 
nan

>  <PDB_ID>  (645) 
nan

>  <Standardized_SMILES>  (645) 
CC(C)CC(=O)Nc1ccncc1NC(=O)c1n[nH]c2ccc(-c3cncc(CN4CCCCC4)c3)cc12

>  <Name>  (645) 
nan

>  <Pocket>  (645) 
nan

>  <ATP_Site>  (645) 
nan

>  <Peripheral>  (645) 
nan

>  <Num_H_Atoms_ProtBoundConf>  (645) 
nan

>  <Num_Resolved_Atoms>  (645) 
nan

>  <Num_Not_Resolved_Atoms>  (645) 
nan

$$$$
CHEMBL4756183
     RDKit          3D

  0  0  0  0  0  0  0  0  0  0999 V3000
M  V30 BEGIN CTAB
M  V30 COUNTS 41 44 0 0 0
M  V30 BEGIN ATOM
M  V30 1 C 3.486609 -7.938522 1.634912 0
M  V30 2 C 3.310586 -6.508504 1.721165 0
M  V30 3 N 3.690493 -5.543090 2.379239 0
M  V30 4 C 3.267927 -4.311627 2.127629 0
M  V30 5 C 2.340029 -4.010627 1.074379 0
M  V30 6 N 1.900808 -2.703927 0.819467 0
M  V30 7 C 2.572387 -1.845459 -0.068441 0
M  V30 8 O 3.564896 -2.520127 -0.511011 0
M  V30 9 C 2.397202 -0.497357 -0.540434 0
M  V30 10 N 3.305224 -0.041071 -1.428031 0
M  V30 11 N 3.000438 1.211538 -1.759678 0
M  V30 12 C 1.899585 1.652592 -1.128856 0
M  V30 13 C 1.153286 2.809907 -1.085546 0
M  V30 14 C 0.040021 2.860674 -0.270524 0
M  V30 15 C -0.301892 1.749851 0.484249 0
M  V30 16 C -1.489880 1.783908 1.362949 0
M  V30 17 C -1.424665 1.289894 2.657810 0
M  V30 18 N -2.634277 1.441209 3.234078 0
M  V30 19 C -3.446290 2.019585 2.319716 0
M  V30 20 C -4.887032 2.384960 2.500740 0
M  V30 21 N -2.748105 2.225301 1.187336 0
M  V30 22 C -3.177504 2.810426 -0.058324 0
M  V30 23 C 0.442106 0.590768 0.443461 0
M  V30 24 C 1.540625 0.560211 -0.369522 0
M  V30 25 S 2.099782 -5.775520 0.417676 0
M  V30 26 H 2.588038 -8.477591 1.270102 0
M  V30 27 H 4.360716 -8.189380 1.022231 0
M  V30 28 H 3.631377 -8.328901 2.683092 0
M  V30 29 H 3.693686 -3.557335 2.796868 0
M  V30 30 H 1.064592 -2.271257 1.251308 0
M  V30 31 H 3.564696 1.771139 -2.434890 0
M  V30 32 H 1.478387 3.632915 -1.698771 0
M  V30 33 H -0.551463 3.755588 -0.226203 0
M  V30 34 H -0.578781 0.844859 3.180583 0
M  V30 35 H -5.546295 1.841944 1.769563 0
M  V30 36 H -5.052443 3.489026 2.454542 0
M  V30 37 H -5.205231 2.021690 3.504325 0
M  V30 38 H -3.103612 3.926594 -0.013636 0
M  V30 39 H -4.242409 2.580542 -0.265477 0
M  V30 40 H -2.599100 2.410757 -0.920407 0
M  V30 41 H 0.148318 -0.241635 1.037412 0
M  V30 END ATOM
M  V30 BEGIN BOND
M  V30 1 1 1 2
M  V30 2 2 2 3
M  V30 3 1 3 4
M  V30 4 2 4 5
M  V30 5 1 5 6
M  V30 6 1 6 7
M  V30 7 2 7 8
M  V30 8 1 7 9
M  V30 9 2 9 10
M  V30 10 1 10 11
M  V30 11 1 11 12
M  V30 12 2 12 13
M  V30 13 1 13 14
M  V30 14 2 14 15
M  V30 15 1 15 16
M  V30 16 2 16 17
M  V30 17 1 17 18
M  V30 18 2 18 19
M  V30 19 1 19 20
M  V30 20 1 19 21
M  V30 21 1 21 22
M  V30 22 1 15 23
M  V30 23 2 23 24
M  V30 24 1 5 25
M  V30 25 1 25 2
M  V30 26 1 24 9
M  V30 27 1 24 12
M  V30 28 1 21 16
M  V30 29 1 1 26
M  V30 30 1 1 27
M  V30 31 1 1 28
M  V30 32 1 4 29
M  V30 33 1 6 30
M  V30 34 1 11 31
M  V30 35 1 13 32
M  V30 36 1 14 33
M  V30 37 1 17 34
M  V30 38 1 20 35
M  V30 39 1 20 36
M  V30 40 1 20 37
M  V30 41 1 22 38
M  V30 42 1 22 39
M  V30 43 1 22 40
M  V30 44 1 23 41
M  V30 END BOND
M  V30 END CTAB
M  END
>  <Dataset>  (646) 
ChEMBL_Kinases

>  <Ligand_Instance>  (646) 
nan

>  <PDB_ID>  (646) 
nan

>  <Standardized_SMILES>  (646) 
Cc1ncc(NC(=O)c2n[nH]c3ccc(-c4cnc(C)n4C)cc23)s1

>  <Name>  (646) 
nan

>  <Pocket>  (646) 
nan

>  <ATP_Site>  (646) 
nan

>  <Peripheral>  (646) 
nan

>  <Num_H_Atoms_ProtBoundConf>  (646) 
nan

>  <Num_Resolved_Atoms>  (646) 
nan

>  <Num_Not_Resolved_Atoms>  (646) 
nan

$$$$
CHEMBL300658
     RDKit          3D

  0  0  0  0  0  0  0  0  0  0999 V3000
M  V30 BEGIN CTAB
M  V30 COUNTS 81 85 0 0 0
M  V30 BEGIN ATOM
M  V30 1 C 2.736722 -0.563007 -4.107956 0
M  V30 2 C 3.627927 0.640355 -4.406006 0
M  V30 3 C 2.922404 1.516710 -5.388556 0
M  V30 4 C 4.886028 0.130305 -5.030399 0
M  V30 5 C 3.951130 1.377908 -3.132566 0
M  V30 6 O 5.099954 1.628722 -2.672591 0
M  V30 7 O 2.801805 1.781187 -2.469089 0
M  V30 8 C 2.975065 2.486855 -1.256456 0
M  V30 9 N 1.711761 2.834776 -0.646681 0
M  V30 10 N 1.229405 1.914293 0.185706 0
M  V30 11 N 0.085559 2.362463 0.660481 0
M  V30 12 C -0.226733 3.571624 0.170897 0
M  V30 13 C -1.307900 4.552438 0.281759 0
M  V30 14 C -1.124478 5.829478 -0.226703 0
M  V30 15 C -2.084880 6.768919 -0.035122 0
M  V30 16 C -3.247779 6.546424 0.637697 0
M  V30 17 C -3.396784 5.240558 1.133818 0
M  V30 18 O -4.613681 5.076802 1.814914 0
M  V30 19 C -2.450368 4.217845 0.973064 0
M  V30 20 C -2.854611 2.995846 1.593990 0
M  V30 21 O -3.555632 3.183010 2.657582 0
M  V30 22 C -2.760125 1.590074 1.448039 0
M  V30 23 C -2.902032 0.724537 2.507799 0
M  V30 24 O -3.061553 1.186034 3.811192 0
M  V30 25 C -2.894124 -0.661891 2.336762 0
M  V30 26 C -2.741950 -1.200733 1.084024 0
M  V30 27 C -2.721245 -2.644601 0.893815 0
M  V30 28 O -2.602805 -3.266794 -0.192109 0
M  V30 29 O -2.826514 -3.632154 1.861719 0
M  V30 30 C -2.799784 -4.988706 1.628654 0 CFG=2
M  V30 31 C -3.855027 -5.836814 2.233784 0
M  V30 32 C -3.279890 -7.236606 1.964277 0
M  V30 33 C -1.772786 -7.021224 1.775271 0
M  V30 34 C -1.570981 -5.606854 2.317242 0 CFG=1
M  V30 35 N -0.339433 -5.025151 1.891203 0
M  V30 36 C 0.701854 -4.524237 2.715964 0
M  V30 37 O 0.467401 -4.624457 3.941192 0
M  V30 38 C 1.939947 -3.940849 2.248871 0
M  V30 39 C 2.814767 -3.507964 3.250390 0
M  V30 40 C 4.032024 -2.935865 2.882770 0
M  V30 41 C 4.335513 -2.814596 1.525061 0
M  V30 42 O 5.565677 -2.236178 1.161414 0
M  V30 43 C 3.455195 -3.250231 0.537286 0
M  V30 44 C 2.236673 -3.822651 0.910301 0
M  V30 45 C -2.595128 -0.408405 -0.033103 0
M  V30 46 C -2.612297 0.949663 0.205584 0
M  V30 47 O -2.465442 1.686308 -0.970301 0
M  V30 48 N 0.824997 3.789511 -0.624584 0
M  V30 49 H 2.429532 -0.990265 -5.073929 0
M  V30 50 H 3.283009 -1.253487 -3.441028 0
M  V30 51 H 1.822315 -0.130290 -3.611906 0
M  V30 52 H 1.857039 1.613465 -5.205069 0
M  V30 53 H 3.458993 2.488822 -5.455437 0
M  V30 54 H 3.034598 1.059092 -6.413714 0
M  V30 55 H 5.171187 0.799663 -5.860908 0
M  V30 56 H 4.727847 -0.884543 -5.489440 0
M  V30 57 H 5.719408 0.009471 -4.307363 0
M  V30 58 H 3.670458 1.940054 -0.626651 0
M  V30 59 H 3.533185 3.424986 -1.563115 0
M  V30 60 H -0.224407 6.075165 -0.772379 0
M  V30 61 H -1.890566 7.745197 -0.452245 0
M  V30 62 H -3.974613 7.317596 0.765394 0
M  V30 63 H -5.438717 5.146606 1.227584 0
M  V30 64 H -2.823149 0.625787 4.623247 0
M  V30 65 H -3.006991 -1.298477 3.193463 0
M  V30 66 H -2.686331 -5.283237 0.565396 0
M  V30 67 H -3.875697 -5.755615 3.358029 0
M  V30 68 H -4.841908 -5.711783 1.785703 0
M  V30 69 H -3.398301 -7.912191 2.811208 0
M  V30 70 H -3.687071 -7.618916 0.997103 0
M  V30 71 H -1.164708 -7.773633 2.270832 0
M  V30 72 H -1.569989 -6.912681 0.668615 0
M  V30 73 H -1.694247 -5.663731 3.399575 0
M  V30 74 H -0.204653 -4.970360 0.847869 0
M  V30 75 H 2.599785 -3.592268 4.291686 0
M  V30 76 H 4.777599 -2.567780 3.581469 0
M  V30 77 H 5.984269 -1.558129 1.772964 0
M  V30 78 H 3.751442 -3.128190 -0.516617 0
M  V30 79 H 1.558829 -4.157888 0.144484 0
M  V30 80 H -2.480968 -0.861568 -0.992640 0
M  V30 81 H -2.994542 2.519516 -1.141305 0
M  V30 END ATOM
M  V30 BEGIN BOND
M  V30 1 1 1 2
M  V30 2 1 2 3
M  V30 3 1 2 4
M  V30 4 1 2 5
M  V30 5 2 5 6
M  V30 6 1 5 7
M  V30 7 1 7 8
M  V30 8 1 8 9
M  V30 9 1 9 10
M  V30 10 2 10 11
M  V30 11 1 11 12
M  V30 12 1 12 13
M  V30 13 2 13 14
M  V30 14 1 14 15
M  V30 15 2 15 16
M  V30 16 1 16 17
M  V30 17 1 17 18
M  V30 18 2 17 19
M  V30 19 1 19 20
M  V30 20 2 20 21
M  V30 21 1 20 22
M  V30 22 2 22 23
M  V30 23 1 23 24
M  V30 24 1 23 25
M  V30 25 2 25 26
M  V30 26 1 26 27
M  V30 27 2 27 28
M  V30 28 1 27 29
M  V30 29 1 29 30
M  V30 30 1 30 31
M  V30 31 1 31 32
M  V30 32 1 32 33
M  V30 33 1 33 34
M  V30 34 1 34 35
M  V30 35 1 35 36
M  V30 36 2 36 37
M  V30 37 1 36 38
M  V30 38 2 38 39
M  V30 39 1 39 40
M  V30 40 2 40 41
M  V30 41 1 41 42
M  V30 42 1 41 43
M  V30 43 2 43 44
M  V30 44 1 26 45
M  V30 45 2 45 46
M  V30 46 1 46 47
M  V30 47 2 12 48
M  V30 48 1 48 9
M  V30 49 1 19 13
M  V30 50 1 46 22
M  V30 51 1 34 30
M  V30 52 1 44 38
M  V30 53 1 1 49
M  V30 54 1 1 50
M  V30 55 1 1 51
M  V30 56 1 3 52
M  V30 57 1 3 53
M  V30 58 1 3 54
M  V30 59 1 4 55
M  V30 60 1 4 56
M  V30 61 1 4 57
M  V30 62 1 8 58
M  V30 63 1 8 59
M  V30 64 1 14 60
M  V30 65 1 15 61
M  V30 66 1 16 62
M  V30 67 1 18 63
M  V30 68 1 24 64
M  V30 69 1 25 65
M  V30 70 1 30 66 CFG=3
M  V30 71 1 31 67
M  V30 72 1 31 68
M  V30 73 1 32 69
M  V30 74 1 32 70
M  V30 75 1 33 71
M  V30 76 1 33 72
M  V30 77 1 34 73 CFG=1
M  V30 78 1 35 74
M  V30 79 1 39 75
M  V30 80 1 40 76
M  V30 81 1 42 77
M  V30 82 1 43 78
M  V30 83 1 44 79
M  V30 84 1 45 80
M  V30 85 1 47 81
M  V30 END BOND
M  V30 END CTAB
M  END
>  <Dataset>  (647) 
ChEMBL_Kinases

>  <Ligand_Instance>  (647) 
nan

>  <PDB_ID>  (647) 
nan

>  <Standardized_SMILES>  (647) 
CC(C)(C)C(=O)OCn1nnc(-c2cccc(O)c2C(=O)c2c(O)cc(C(=O)O[C@@H]3CCC[C@H]3NC(=O)c3ccc(O)cc3)cc2O)n1

>  <Name>  (647) 
nan

>  <Pocket>  (647) 
nan

>  <ATP_Site>  (647) 
nan

>  <Peripheral>  (647) 
nan

>  <Num_H_Atoms_ProtBoundConf>  (647) 
nan

>  <Num_Resolved_Atoms>  (647) 
nan

>  <Num_Not_Resolved_Atoms>  (647) 
nan

$$$$
CHEMBL1873475
     RDKit          3D

  0  0  0  0  0  0  0  0  0  0999 V3000
M  V30 BEGIN CTAB
M  V30 COUNTS 57 61 0 0 0
M  V30 BEGIN ATOM
M  V30 1 C 6.359131 -0.552879 2.863050 0
M  V30 2 C 6.500029 -1.056861 1.653652 0
M  V30 3 C 5.695895 -1.835249 0.727312 0
M  V30 4 O 6.274994 -2.092616 -0.358055 0
M  V30 5 N 4.374938 -2.264965 1.024099 0
M  V30 6 C 3.538179 -2.070920 2.217367 0
M  V30 7 C 2.854386 -3.414583 2.502221 0
M  V30 8 C 1.758841 -3.529950 1.486691 0
M  V30 9 C 2.201379 -3.051689 0.135764 0 CFG=1
M  V30 10 N 1.571366 -1.802260 -0.223040 0
M  V30 11 N 0.294087 -1.534012 -0.011484 0
M  V30 12 C 0.005328 -0.294620 -0.454769 0
M  V30 13 C -1.360410 0.189952 -0.304031 0
M  V30 14 C -1.933848 0.054271 0.966280 0
M  V30 15 C -3.215875 0.436588 1.301661 0
M  V30 16 C -3.986730 0.994616 0.304099 0
M  V30 17 O -5.293165 1.431230 0.474658 0
M  V30 18 C -6.380479 0.578286 0.257814 0
M  V30 19 C -7.686484 1.000978 0.424146 0
M  V30 20 C -8.709958 0.094886 0.189318 0
M  V30 21 C -8.461306 -1.202629 -0.201588 0
M  V30 22 C -7.156556 -1.665095 -0.379467 0
M  V30 23 C -6.172092 -0.729639 -0.134723 0
M  V30 24 C -3.475759 1.153092 -0.966578 0
M  V30 25 C -2.188660 0.754324 -1.249512 0
M  V30 26 C 1.198489 0.180093 -0.953228 0
M  V30 27 C 1.383987 1.425864 -1.511220 0
M  V30 28 N 0.376793 2.400959 -1.644308 0
M  V30 29 N 2.652554 1.692200 -1.937643 0
M  V30 30 C 3.617813 0.739078 -1.786812 0
M  V30 31 N 3.429288 -0.475377 -1.239897 0
M  V30 32 C 2.189043 -0.768028 -0.809553 0
M  V30 33 C 3.686760 -3.027188 0.015517 0
M  V30 34 H 6.832636 0.015795 3.644637 0
M  V30 35 H 5.857990 -0.333847 3.793552 0
M  V30 36 H 7.502811 -0.713110 1.465552 0
M  V30 37 H 4.110704 -1.807403 3.104867 0
M  V30 38 H 2.725092 -1.361068 1.976785 0
M  V30 39 H 2.416628 -3.350093 3.499358 0
M  V30 40 H 3.569471 -4.256225 2.473859 0
M  V30 41 H 0.929886 -2.876059 1.834962 0
M  V30 42 H 1.364073 -4.561096 1.456865 0
M  V30 43 H 1.831205 -3.817290 -0.609640 0
M  V30 44 H -1.360452 -0.378745 1.773588 0
M  V30 45 H -3.629076 0.322459 2.276550 0
M  V30 46 H -7.903629 2.008524 0.728550 0
M  V30 47 H -9.741109 0.412259 0.315721 0
M  V30 48 H -9.277694 -1.900619 -0.381842 0
M  V30 49 H -6.895144 -2.666535 -0.683305 0
M  V30 50 H -5.140783 -1.055890 -0.263616 0
M  V30 51 H -4.053359 1.586344 -1.769659 0
M  V30 52 H -1.785422 0.859230 -2.235222 0
M  V30 53 H -0.020368 2.858682 -2.502219 0
M  V30 54 H 0.081382 2.593404 -0.653782 0
M  V30 55 H 4.615137 0.995961 -2.141885 0
M  V30 56 H 4.024464 -4.094387 0.173948 0
M  V30 57 H 4.065614 -2.751901 -0.964276 0
M  V30 END ATOM
M  V30 BEGIN BOND
M  V30 1 2 1 2
M  V30 2 1 2 3
M  V30 3 2 3 4
M  V30 4 1 3 5
M  V30 5 1 5 6
M  V30 6 1 6 7
M  V30 7 1 7 8
M  V30 8 1 8 9
M  V30 9 1 9 10
M  V30 10 1 10 11
M  V30 11 2 11 12
M  V30 12 1 12 13
M  V30 13 2 13 14
M  V30 14 1 14 15
M  V30 15 2 15 16
M  V30 16 1 16 17
M  V30 17 1 17 18
M  V30 18 2 18 19
M  V30 19 1 19 20
M  V30 20 2 20 21
M  V30 21 1 21 22
M  V30 22 2 22 23
M  V30 23 1 16 24
M  V30 24 2 24 25
M  V30 25 1 12 26
M  V30 26 2 26 27
M  V30 27 1 27 28
M  V30 28 1 27 29
M  V30 29 2 29 30
M  V30 30 1 30 31
M  V30 31 2 31 32
M  V30 32 1 9 33
M  V30 33 1 33 5
M  V30 34 1 32 10
M  V30 35 1 25 13
M  V30 36 1 32 26
M  V30 37 1 23 18
M  V30 38 1 1 34
M  V30 39 1 1 35
M  V30 40 1 2 36
M  V30 41 1 6 37
M  V30 42 1 6 38
M  V30 43 1 7 39
M  V30 44 1 7 40
M  V30 45 1 8 41
M  V30 46 1 8 42
M  V30 47 1 9 43 CFG=3
M  V30 48 1 14 44
M  V30 49 1 15 45
M  V30 50 1 19 46
M  V30 51 1 20 47
M  V30 52 1 21 48
M  V30 53 1 22 49
M  V30 54 1 23 50
M  V30 55 1 24 51
M  V30 56 1 25 52
M  V30 57 1 28 53
M  V30 58 1 28 54
M  V30 59 1 30 55
M  V30 60 1 33 56
M  V30 61 1 33 57
M  V30 END BOND
M  V30 END CTAB
M  END
>  <Dataset>  (648) 
ChEMBL_Kinases

>  <Ligand_Instance>  (648) 
nan

>  <PDB_ID>  (648) 
nan

>  <Standardized_SMILES>  (648) 
C=CC(=O)N1CCC[C@@H](n2nc(-c3ccc(Oc4ccccc4)cc3)c3c(N)ncnc32)C1

>  <Name>  (648) 
IBRUTINIB

>  <Pocket>  (648) 
nan

>  <ATP_Site>  (648) 
nan

>  <Peripheral>  (648) 
nan

>  <Num_H_Atoms_ProtBoundConf>  (648) 
nan

>  <Num_Resolved_Atoms>  (648) 
nan

>  <Num_Not_Resolved_Atoms>  (648) 
nan

$$$$
CHEMBL4759161
     RDKit          3D

  0  0  0  0  0  0  0  0  0  0999 V3000
M  V30 BEGIN CTAB
M  V30 COUNTS 77 82 0 0 0
M  V30 BEGIN ATOM
M  V30 1 C 0.755611 -6.142261 1.747345 0
M  V30 2 C 1.114110 -5.868579 0.288343 0
M  V30 3 C 1.597774 -4.458725 0.133442 0
M  V30 4 C 1.981482 -4.133667 -1.299636 0
M  V30 5 C 2.436001 -2.722630 -1.293174 0
M  V30 6 O 2.073718 -2.403179 -0.147068 0
M  V30 7 N 3.090676 -1.918597 -2.252284 0
M  V30 8 C 3.436704 -0.572541 -2.021778 0
M  V30 9 C 4.356352 -0.109031 -2.932816 0
M  V30 10 N 4.809904 1.163850 -2.825503 0
M  V30 11 C 4.352824 1.941330 -1.836945 0
M  V30 12 C 3.438288 1.561253 -0.891791 0
M  V30 13 C 3.012143 2.389404 0.213024 0
M  V30 14 C 3.700035 3.562511 0.392572 0
M  V30 15 C 3.450335 4.406596 1.480203 0
M  V30 16 C 2.467277 4.034874 2.404890 0
M  V30 17 N 1.981193 4.571045 3.529414 0
M  V30 18 N 1.044430 3.770802 4.002853 0
M  V30 19 C 0.895317 2.700307 3.205231 0
M  V30 20 C -0.089282 1.661932 3.452171 0
M  V30 21 N -0.459758 0.585713 2.718765 0
M  V30 22 C -1.487297 -0.036243 3.318411 0
M  V30 23 C -2.293504 -1.124174 3.083870 0
M  V30 24 C -2.123491 -1.900941 1.889556 0
M  V30 25 C -2.189005 -3.277556 1.887860 0
M  V30 26 C -2.044948 -3.953264 0.707137 0
M  V30 27 F -2.108160 -5.322286 0.638639 0
M  V30 28 C -1.834954 -3.302317 -0.485048 0
M  V30 29 C -1.755850 -1.910844 -0.562856 0
M  V30 30 N -1.527697 -1.246574 -1.776763 0
M  V30 31 C -1.436514 0.140386 -2.109063 0
M  V30 32 C -2.700894 0.918999 -1.977933 0
M  V30 33 N -3.713473 0.360758 -2.854784 0
M  V30 34 C -4.953633 1.109649 -2.741977 0
M  V30 35 C -3.251245 0.291732 -4.228391 0
M  V30 36 C -1.910420 -1.290931 0.668340 0
M  V30 37 C -3.325263 -1.538632 3.899707 0
M  V30 38 N -3.579413 -0.822561 5.031208 0
M  V30 39 C -2.830095 0.255656 5.320410 0
M  V30 40 C -1.790997 0.654909 4.477457 0
M  V30 41 N -0.917603 1.683236 4.524143 0
M  V30 42 C 1.799540 2.850699 2.182404 0
M  V30 43 N 2.085100 2.083918 1.122328 0
M  V30 44 C 2.988999 0.254854 -1.022848 0
M  V30 45 H 0.187852 -7.090504 1.819933 0
M  V30 46 H 0.162364 -5.286283 2.096734 0
M  V30 47 H 1.704495 -6.275665 2.310520 0
M  V30 48 H 1.940603 -6.568012 0.008533 0
M  V30 49 H 0.275022 -6.108080 -0.379250 0
M  V30 50 H 0.832947 -3.750236 0.460587 0
M  V30 51 H 2.535708 -4.319000 0.720581 0
M  V30 52 H 2.764425 -4.822683 -1.664531 0
M  V30 53 H 1.105921 -4.289747 -1.986131 0
M  V30 54 H 3.255863 -2.466743 -3.102471 0
M  V30 55 H 4.772126 -0.689096 -3.765965 0
M  V30 56 H 4.771336 2.932220 -1.837328 0
M  V30 57 H 4.477730 4.014483 -0.196050 0
M  V30 58 H 3.924339 5.340146 1.719796 0
M  V30 59 H 2.290583 5.477310 3.965773 0
M  V30 60 H -2.351261 -3.837854 2.793869 0
M  V30 61 H -1.723589 -3.874106 -1.414087 0
M  V30 62 H -1.398603 -1.892012 -2.615092 0
M  V30 63 H -0.917513 0.294479 -3.068531 0
M  V30 64 H -0.726887 0.586462 -1.339886 0
M  V30 65 H -2.465196 1.978860 -2.205557 0
M  V30 66 H -3.095534 0.859350 -0.965423 0
M  V30 67 H -5.509608 1.031376 -3.707783 0
M  V30 68 H -5.606500 0.574126 -2.005780 0
M  V30 69 H -4.812151 2.159023 -2.454454 0
M  V30 70 H -2.483371 -0.480235 -4.308193 0
M  V30 71 H -2.944445 1.283004 -4.618452 0
M  V30 72 H -4.114729 -0.027221 -4.847513 0
M  V30 73 H -1.855359 -0.212093 0.710220 0
M  V30 74 H -3.942660 -2.399212 3.691075 0
M  V30 75 H -3.044845 0.815604 6.224051 0
M  V30 76 H -0.961564 2.360799 5.339231 0
M  V30 77 H 2.269922 -0.130331 -0.331819 0
M  V30 END ATOM
M  V30 BEGIN BOND
M  V30 1 1 1 2
M  V30 2 1 2 3
M  V30 3 1 3 4
M  V30 4 1 4 5
M  V30 5 2 5 6
M  V30 6 1 5 7
M  V30 7 1 7 8
M  V30 8 2 8 9
M  V30 9 1 9 10
M  V30 10 2 10 11
M  V30 11 1 11 12
M  V30 12 1 12 13
M  V30 13 2 13 14
M  V30 14 1 14 15
M  V30 15 2 15 16
M  V30 16 1 16 17
M  V30 17 1 17 18
M  V30 18 2 18 19
M  V30 19 1 19 20
M  V30 20 2 20 21
M  V30 21 1 21 22
M  V30 22 2 22 23
M  V30 23 1 23 24
M  V30 24 2 24 25
M  V30 25 1 25 26
M  V30 26 1 26 27
M  V30 27 2 26 28
M  V30 28 1 28 29
M  V30 29 1 29 30
M  V30 30 1 30 31
M  V30 31 1 31 32
M  V30 32 1 32 33
M  V30 33 1 33 34
M  V30 34 1 33 35
M  V30 35 2 29 36
M  V30 36 1 23 37
M  V30 37 2 37 38
M  V30 38 1 38 39
M  V30 39 2 39 40
M  V30 40 1 40 41
M  V30 41 1 19 42
M  V30 42 2 42 43
M  V30 43 2 12 44
M  V30 44 1 44 8
M  V30 45 1 43 13
M  V30 46 1 42 16
M  V30 47 1 41 20
M  V30 48 1 40 22
M  V30 49 1 36 24
M  V30 50 1 1 45
M  V30 51 1 1 46
M  V30 52 1 1 47
M  V30 53 1 2 48
M  V30 54 1 2 49
M  V30 55 1 3 50
M  V30 56 1 3 51
M  V30 57 1 4 52
M  V30 58 1 4 53
M  V30 59 1 7 54
M  V30 60 1 9 55
M  V30 61 1 11 56
M  V30 62 1 14 57
M  V30 63 1 15 58
M  V30 64 1 17 59
M  V30 65 1 25 60
M  V30 66 1 28 61
M  V30 67 1 30 62
M  V30 68 1 31 63
M  V30 69 1 31 64
M  V30 70 1 32 65
M  V30 71 1 32 66
M  V30 72 1 34 67
M  V30 73 1 34 68
M  V30 74 1 34 69
M  V30 75 1 35 70
M  V30 76 1 35 71
M  V30 77 1 35 72
M  V30 78 1 36 73
M  V30 79 1 37 74
M  V30 80 1 39 75
M  V30 81 1 41 76
M  V30 82 1 44 77
M  V30 END BOND
M  V30 END CTAB
M  END
>  <Dataset>  (649) 
ChEMBL_Kinases

>  <Ligand_Instance>  (649) 
nan

>  <PDB_ID>  (649) 
nan

>  <Standardized_SMILES>  (649) 
CCCCC(=O)Nc1cncc(-c2ccc3[nH]nc(-c4nc5c(-c6cc(F)cc(NCCN(C)C)c6)cncc5[nH]4)c3n2)c1

>  <Name>  (649) 
nan

>  <Pocket>  (649) 
nan

>  <ATP_Site>  (649) 
nan

>  <Peripheral>  (649) 
nan

>  <Num_H_Atoms_ProtBoundConf>  (649) 
nan

>  <Num_Resolved_Atoms>  (649) 
nan

>  <Num_Not_Resolved_Atoms>  (649) 
nan

$$$$
CHEMBL4759093
     RDKit          3D

  0  0  0  0  0  0  0  0  0  0999 V3000
M  V30 BEGIN CTAB
M  V30 COUNTS 49 54 0 0 0
M  V30 BEGIN ATOM
M  V30 1 C 0.291091 -5.897116 2.418849 0
M  V30 2 C 1.285389 -5.101089 1.649544 0
M  V30 3 N 2.614537 -5.254697 1.737058 0
M  V30 4 C 3.243547 -4.390135 0.919599 0
M  V30 5 C 2.237977 -3.653456 0.284812 0
M  V30 6 C 2.429759 -2.583304 -0.703465 0
M  V30 7 C 3.351107 -2.784538 -1.733033 0
M  V30 8 N 3.521970 -1.786930 -2.644266 0
M  V30 9 C 2.827234 -0.640697 -2.560095 0
M  V30 10 N 2.787438 0.479287 -3.289092 0
M  V30 11 N 1.923055 1.326242 -2.781281 0
M  V30 12 C 1.326377 0.835773 -1.682440 0
M  V30 13 C 0.329084 1.536841 -0.904438 0
M  V30 14 C -0.412913 1.281677 0.215286 0
M  V30 15 C -1.246678 2.328582 0.544836 0
M  V30 16 C -2.149516 2.495448 1.577541 0
M  V30 17 C -2.374448 1.454030 2.576665 0
M  V30 18 C -2.584610 0.095948 2.462297 0
M  V30 19 C -2.764113 -0.645360 3.592405 0
M  V30 20 N -2.745708 -0.108169 4.826446 0
M  V30 21 C -2.543370 1.216197 4.983397 0
M  V30 22 C -2.354545 2.017447 3.858641 0
M  V30 23 C -2.848392 3.700717 1.629331 0
M  V30 24 N -2.610099 4.627652 0.681823 0
M  V30 25 C -1.727349 4.446599 -0.315779 0
M  V30 26 C -1.002457 3.275670 -0.424319 0
M  V30 27 N -0.074088 2.770462 -1.251336 0
M  V30 28 C 1.910208 -0.399109 -1.564103 0
M  V30 29 C 1.731978 -1.402058 -0.639796 0
M  V30 30 N 1.044895 -4.119033 0.759252 0
M  V30 31 C -0.243517 -3.625302 0.358476 0
M  V30 32 H -0.627257 -5.948411 1.791328 0
M  V30 33 H 0.673562 -6.900983 2.677893 0
M  V30 34 H 0.078596 -5.347316 3.365608 0
M  V30 35 H 4.305089 -4.218406 0.719705 0
M  V30 36 H 3.933672 -3.677824 -1.850876 0
M  V30 37 H 3.337176 0.711743 -4.148765 0
M  V30 38 H -0.364360 0.380235 0.784489 0
M  V30 39 H -2.580027 -0.208928 1.433228 0
M  V30 40 H -2.925425 -1.715720 3.424674 0
M  V30 41 H -2.539979 1.584956 5.999579 0
M  V30 42 H -2.204123 3.055811 4.132403 0
M  V30 43 H -3.579629 3.892807 2.426482 0
M  V30 44 H -1.563920 5.206538 -1.052086 0
M  V30 45 H 0.213769 3.387550 -2.046429 0
M  V30 46 H 1.039099 -1.279501 0.154468 0
M  V30 47 H -0.551710 -2.829661 1.068111 0
M  V30 48 H -0.221957 -3.264469 -0.693901 0
M  V30 49 H -1.003521 -4.433455 0.476876 0
M  V30 END ATOM
M  V30 BEGIN BOND
M  V30 1 1 1 2
M  V30 2 2 2 3
M  V30 3 1 3 4
M  V30 4 2 4 5
M  V30 5 1 5 6
M  V30 6 2 6 7
M  V30 7 1 7 8
M  V30 8 2 8 9
M  V30 9 1 9 10
M  V30 10 1 10 11
M  V30 11 2 11 12
M  V30 12 1 12 13
M  V30 13 2 13 14
M  V30 14 1 14 15
M  V30 15 2 15 16
M  V30 16 1 16 17
M  V30 17 2 17 18
M  V30 18 1 18 19
M  V30 19 2 19 20
M  V30 20 1 20 21
M  V30 21 2 21 22
M  V30 22 1 16 23
M  V30 23 2 23 24
M  V30 24 1 24 25
M  V30 25 2 25 26
M  V30 26 1 26 27
M  V30 27 1 12 28
M  V30 28 2 28 29
M  V30 29 1 5 30
M  V30 30 1 30 31
M  V30 31 1 30 2
M  V30 32 1 29 6
M  V30 33 1 28 9
M  V30 34 1 27 13
M  V30 35 1 26 15
M  V30 36 1 22 17
M  V30 37 1 1 32
M  V30 38 1 1 33
M  V30 39 1 1 34
M  V30 40 1 4 35
M  V30 41 1 7 36
M  V30 42 1 10 37
M  V30 43 1 14 38
M  V30 44 1 18 39
M  V30 45 1 19 40
M  V30 46 1 21 41
M  V30 47 1 22 42
M  V30 48 1 23 43
M  V30 49 1 25 44
M  V30 50 1 27 45
M  V30 51 1 29 46
M  V30 52 1 31 47
M  V30 53 1 31 48
M  V30 54 1 31 49
M  V30 END BOND
M  V30 END CTAB
M  END
>  <Dataset>  (650) 
ChEMBL_Kinases

>  <Ligand_Instance>  (650) 
nan

>  <PDB_ID>  (650) 
nan

>  <Standardized_SMILES>  (650) 
Cc1ncc(-c2cnc3[nH]nc(-c4cc5c(-c6ccncc6)cncc5[nH]4)c3c2)n1C

>  <Name>  (650) 
nan

>  <Pocket>  (650) 
nan

>  <ATP_Site>  (650) 
nan

>  <Peripheral>  (650) 
nan

>  <Num_H_Atoms_ProtBoundConf>  (650) 
nan

>  <Num_Resolved_Atoms>  (650) 
nan

>  <Num_Not_Resolved_Atoms>  (650) 
nan

$$$$
CHEMBL4758986
     RDKit          3D

  0  0  0  0  0  0  0  0  0  0999 V3000
M  V30 BEGIN CTAB
M  V30 COUNTS 53 57 0 0 0
M  V30 BEGIN ATOM
M  V30 1 C 1.446693 -2.564976 5.860049 0
M  V30 2 C 2.097078 -1.462606 5.058946 0
M  V30 3 C 3.225336 -1.948266 4.214196 0
M  V30 4 C 3.917369 -0.903626 3.397356 0
M  V30 5 C 3.039627 -0.232240 2.419077 0
M  V30 6 O 1.841471 -0.545997 2.254913 0
M  V30 7 N 3.571485 0.814613 1.628067 0
M  V30 8 C 2.928273 1.592356 0.638915 0
M  V30 9 C 3.642554 2.577408 -0.010298 0
M  V30 10 N 3.127373 3.367148 -0.961661 0
M  V30 11 C 1.853904 3.278223 -1.382064 0
M  V30 12 C 1.093539 2.311378 -0.768585 0
M  V30 13 C -0.298963 2.166505 -1.184311 0
M  V30 14 C -0.957008 3.308260 -1.595803 0
M  V30 15 C -2.275170 3.255084 -2.007115 0
M  V30 16 C -2.901460 2.027928 -1.990551 0
M  V30 17 N -4.127496 1.654537 -2.317924 0
M  V30 18 N -4.265441 0.362675 -2.135115 0
M  V30 19 C -3.145828 -0.218189 -1.674262 0
M  V30 20 C -2.963846 -1.620482 -1.373498 0
M  V30 21 C -3.991951 -2.535379 -1.547145 0
M  V30 22 C -3.610501 -3.811609 -1.204004 0
M  V30 23 C -4.241593 -5.039119 -1.196051 0
M  V30 24 C -3.508777 -6.128867 -0.772179 0
M  V30 25 C -2.195775 -6.003498 -0.370554 0
M  V30 26 N -1.632621 -4.782294 -0.399466 0
M  V30 27 C -2.299229 -3.687915 -0.802697 0
M  V30 28 N -1.979116 -2.392913 -0.922886 0
M  V30 29 C -2.293804 0.857407 -1.590104 0
M  V30 30 C -0.980991 0.971160 -1.191086 0
M  V30 31 C 1.646044 1.510766 0.207980 0
M  V30 32 H 0.359068 -2.596540 5.655855 0
M  V30 33 H 1.865522 -3.569785 5.560710 0
M  V30 34 H 1.564281 -2.388300 6.927945 0
M  V30 35 H 2.533763 -0.729010 5.793842 0
M  V30 36 H 1.328211 -1.006400 4.433221 0
M  V30 37 H 2.862791 -2.721159 3.473132 0
M  V30 38 H 3.989257 -2.499949 4.819093 0
M  V30 39 H 4.815727 -1.326124 2.886215 0
M  V30 40 H 4.344613 -0.145762 4.119197 0
M  V30 41 H 4.587819 1.033146 1.813102 0
M  V30 42 H 4.697197 2.786068 0.209901 0
M  V30 43 H 1.525352 3.951450 -2.150122 0
M  V30 44 H -0.475507 4.275597 -1.612971 0
M  V30 45 H -2.815026 4.144514 -2.336039 0
M  V30 46 H -4.919330 2.224369 -2.672088 0
M  V30 47 H -5.004446 -2.357997 -1.904143 0
M  V30 48 H -5.272284 -5.094345 -1.518768 0
M  V30 49 H -4.019992 -7.103023 -0.768989 0
M  V30 50 H -1.651439 -6.881314 -0.043871 0
M  V30 51 H -1.033369 -2.065732 -0.674004 0
M  V30 52 H -0.444906 0.101227 -0.866570 0
M  V30 53 H 0.987589 0.777610 0.640810 0
M  V30 END ATOM
M  V30 BEGIN BOND
M  V30 1 1 1 2
M  V30 2 1 2 3
M  V30 3 1 3 4
M  V30 4 1 4 5
M  V30 5 2 5 6
M  V30 6 1 5 7
M  V30 7 1 7 8
M  V30 8 2 8 9
M  V30 9 1 9 10
M  V30 10 2 10 11
M  V30 11 1 11 12
M  V30 12 1 12 13
M  V30 13 2 13 14
M  V30 14 1 14 15
M  V30 15 2 15 16
M  V30 16 1 16 17
M  V30 17 1 17 18
M  V30 18 2 18 19
M  V30 19 1 19 20
M  V30 20 2 20 21
M  V30 21 1 21 22
M  V30 22 2 22 23
M  V30 23 1 23 24
M  V30 24 2 24 25
M  V30 25 1 25 26
M  V30 26 2 26 27
M  V30 27 1 27 28
M  V30 28 1 19 29
M  V30 29 2 29 30
M  V30 30 2 12 31
M  V30 31 1 31 8
M  V30 32 1 30 13
M  V30 33 1 29 16
M  V30 34 1 28 20
M  V30 35 1 27 22
M  V30 36 1 1 32
M  V30 37 1 1 33
M  V30 38 1 1 34
M  V30 39 1 2 35
M  V30 40 1 2 36
M  V30 41 1 3 37
M  V30 42 1 3 38
M  V30 43 1 4 39
M  V30 44 1 4 40
M  V30 45 1 7 41
M  V30 46 1 9 42
M  V30 47 1 11 43
M  V30 48 1 14 44
M  V30 49 1 15 45
M  V30 50 1 17 46
M  V30 51 1 21 47
M  V30 52 1 23 48
M  V30 53 1 24 49
M  V30 54 1 25 50
M  V30 55 1 28 51
M  V30 56 1 30 52
M  V30 57 1 31 53
M  V30 END BOND
M  V30 END CTAB
M  END
>  <Dataset>  (651) 
ChEMBL_Kinases

>  <Ligand_Instance>  (651) 
nan

>  <PDB_ID>  (651) 
nan

>  <Standardized_SMILES>  (651) 
CCCCC(=O)Nc1cncc(-c2ccc3[nH]nc(-c4cc5cccnc5[nH]4)c3c2)c1

>  <Name>  (651) 
nan

>  <Pocket>  (651) 
nan

>  <ATP_Site>  (651) 
nan

>  <Peripheral>  (651) 
nan

>  <Num_H_Atoms_ProtBoundConf>  (651) 
nan

>  <Num_Resolved_Atoms>  (651) 
nan

>  <Num_Not_Resolved_Atoms>  (651) 
nan

$$$$
CHEMBL4758853
     RDKit          3D

  0  0  0  0  0  0  0  0  0  0999 V3000
M  V30 BEGIN CTAB
M  V30 COUNTS 61 66 0 0 0
M  V30 BEGIN ATOM
M  V30 1 C 7.846612 -0.113110 3.686449 0
M  V30 2 N 7.178423 0.883278 4.481098 0
M  V30 3 C 7.627965 1.268555 5.687415 0
M  V30 4 N 6.856065 2.201600 6.246376 0
M  V30 5 C 5.853712 2.434900 5.358323 0
M  V30 6 C 6.052209 1.616498 4.260355 0
M  V30 7 C 5.325699 1.409535 2.998317 0
M  V30 8 C 6.055086 1.344265 1.805393 0
M  V30 9 C 5.435044 1.152253 0.592278 0
M  V30 10 C 4.066377 1.028570 0.615687 0
M  V30 11 C 3.382104 0.833606 -0.569276 0
M  V30 12 N 2.027730 0.707891 -0.573928 0
M  V30 13 C 1.299654 0.768491 0.576875 0
M  V30 14 N -0.076539 0.610621 0.308608 0
M  V30 15 C -1.106813 1.542585 0.012987 0
M  V30 16 O -0.899138 2.779592 -0.055761 0
M  V30 17 C -2.466338 1.066070 -0.223472 0
M  V30 18 C -3.426639 2.012897 -0.498042 0
M  V30 19 C -4.774704 1.730699 -0.749413 0
M  V30 20 N -5.111558 0.408046 -0.708023 0
M  V30 21 C -4.176435 -0.521253 -0.440016 0
M  V30 22 N -4.645397 -1.862843 -0.424966 0
M  V30 23 C -6.024496 -2.226767 -0.681499 0
M  V30 24 C -6.077533 -3.419963 -1.600872 0
M  V30 25 N -4.860339 -3.565312 -2.346120 0
M  V30 26 C -4.959151 -4.481108 -3.432506 0
M  V30 27 C -5.307980 -5.918488 -3.246570 0
M  V30 28 C -3.916030 -5.482797 -3.734157 0
M  V30 29 C -3.708120 -3.794620 -1.500375 0
M  V30 30 C -3.869175 -3.059362 -0.163650 0
M  V30 31 C -2.854937 -0.257164 -0.192588 0
M  V30 32 C 1.971595 0.962933 1.766648 0
M  V30 33 C 3.332626 1.088438 1.763906 0
M  V30 34 C 3.938583 1.280462 2.988709 0
M  V30 35 H 8.228544 -0.920380 4.374479 0
M  V30 36 H 7.170916 -0.635800 2.989954 0
M  V30 37 H 8.755780 0.254842 3.168641 0
M  V30 38 H 8.516038 0.901109 6.209197 0
M  V30 39 H 5.001339 3.085037 5.348277 0
M  V30 40 H 7.143298 1.442615 1.786337 0
M  V30 41 H 6.017838 1.104865 -0.316932 0
M  V30 42 H 3.958130 0.783655 -1.494396 0
M  V30 43 H -0.207272 -0.422085 0.375179 0
M  V30 44 H -3.213598 3.073562 -0.542683 0
M  V30 45 H -5.499645 2.479598 -0.959267 0
M  V30 46 H -6.435676 -2.518406 0.323060 0
M  V30 47 H -6.636654 -1.375704 -1.008152 0
M  V30 48 H -6.873328 -3.183587 -2.362976 0
M  V30 49 H -6.408779 -4.302738 -1.053912 0
M  V30 50 H -5.454382 -4.029049 -4.340700 0
M  V30 51 H -5.898511 -6.465521 -4.012440 0
M  V30 52 H -5.395028 -6.382779 -2.244717 0
M  V30 53 H -3.117404 -5.776931 -3.052896 0
M  V30 54 H -3.660910 -5.687179 -4.799692 0
M  V30 55 H -3.494021 -4.837479 -1.276297 0
M  V30 56 H -2.804615 -3.368854 -2.007704 0
M  V30 57 H -2.874229 -2.882454 0.242992 0
M  V30 58 H -4.380840 -3.745734 0.546527 0
M  V30 59 H -2.115808 -1.003966 0.020250 0
M  V30 60 H 1.298866 0.994515 2.610714 0
M  V30 61 H 3.363978 1.329238 3.904397 0
M  V30 END ATOM
M  V30 BEGIN BOND
M  V30 1 1 1 2
M  V30 2 1 2 3
M  V30 3 2 3 4
M  V30 4 1 4 5
M  V30 5 2 5 6
M  V30 6 1 6 7
M  V30 7 2 7 8
M  V30 8 1 8 9
M  V30 9 2 9 10
M  V30 10 1 10 11
M  V30 11 2 11 12
M  V30 12 1 12 13
M  V30 13 1 13 14
M  V30 14 1 14 15
M  V30 15 2 15 16
M  V30 16 1 15 17
M  V30 17 2 17 18
M  V30 18 1 18 19
M  V30 19 2 19 20
M  V30 20 1 20 21
M  V30 21 1 21 22
M  V30 22 1 22 23
M  V30 23 1 23 24
M  V30 24 1 24 25
M  V30 25 1 25 26
M  V30 26 1 26 27
M  V30 27 1 27 28
M  V30 28 1 25 29
M  V30 29 1 29 30
M  V30 30 2 21 31
M  V30 31 2 13 32
M  V30 32 1 32 33
M  V30 33 2 33 34
M  V30 34 1 6 2
M  V30 35 1 34 7
M  V30 36 1 33 10
M  V30 37 1 31 17
M  V30 38 1 30 22
M  V30 39 1 28 26
M  V30 40 1 1 35
M  V30 41 1 1 36
M  V30 42 1 1 37
M  V30 43 1 3 38
M  V30 44 1 5 39
M  V30 45 1 8 40
M  V30 46 1 9 41
M  V30 47 1 11 42
M  V30 48 1 14 43
M  V30 49 1 18 44
M  V30 50 1 19 45
M  V30 51 1 23 46
M  V30 52 1 23 47
M  V30 53 1 24 48
M  V30 54 1 24 49
M  V30 55 1 26 50
M  V30 56 1 27 51
M  V30 57 1 27 52
M  V30 58 1 28 53
M  V30 59 1 28 54
M  V30 60 1 29 55
M  V30 61 1 29 56
M  V30 62 1 30 57
M  V30 63 1 30 58
M  V30 64 1 31 59
M  V30 65 1 32 60
M  V30 66 1 34 61
M  V30 END BOND
M  V30 END CTAB
M  END
>  <Dataset>  (652) 
ChEMBL_Kinases

>  <Ligand_Instance>  (652) 
nan

>  <PDB_ID>  (652) 
nan

>  <Standardized_SMILES>  (652) 
Cn1cncc1-c1ccc2cnc(NC(=O)c3ccnc(N4CCN(C5CC5)CC4)c3)cc2c1

>  <Name>  (652) 
nan

>  <Pocket>  (652) 
nan

>  <ATP_Site>  (652) 
nan

>  <Peripheral>  (652) 
nan

>  <Num_H_Atoms_ProtBoundConf>  (652) 
nan

>  <Num_Resolved_Atoms>  (652) 
nan

>  <Num_Not_Resolved_Atoms>  (652) 
nan

$$$$
CHEMBL4284499
     RDKit          3D

  0  0  0  0  0  0  0  0  0  0999 V3000
M  V30 BEGIN CTAB
M  V30 COUNTS 54 58 0 0 0
M  V30 BEGIN ATOM
M  V30 1 C 1.235559 -5.602907 3.148953 0
M  V30 2 O 0.696528 -5.900883 1.885533 0
M  V30 3 C 0.159929 -4.852577 1.148713 0
M  V30 4 C 0.167454 -3.572141 1.661096 0
M  V30 5 C -0.353483 -2.511278 0.962390 0
M  V30 6 C -0.349711 -1.251241 1.459194 0
M  V30 7 O 0.176473 -1.149925 2.624228 0
M  V30 8 N -0.837981 -0.124819 0.854505 0
M  V30 9 C -0.753789 1.131366 1.522831 0
M  V30 10 C 0.462740 1.961826 1.262418 0
M  V30 11 C 1.741130 1.257719 1.660419 0
M  V30 12 C 2.960026 2.091327 1.355838 0
M  V30 13 C 2.602985 3.539750 1.178087 0
M  V30 14 C 1.663652 3.895960 2.337076 0
M  V30 15 C 0.352967 3.172055 2.188431 0
M  V30 16 C -1.343914 -0.434667 -0.344342 0
M  V30 17 C -1.884321 0.556381 -1.110083 0
M  V30 18 C -2.007227 1.889949 -0.870224 0
M  V30 19 C -2.618702 2.525138 -1.929454 0
M  V30 20 N -2.896875 1.574889 -2.877672 0
M  V30 21 C -2.439375 0.420755 -2.340537 0
M  V30 22 N -2.461798 -0.840973 -2.875300 0
M  V30 23 C -1.945645 -1.868431 -2.176884 0
M  V30 24 C -1.395172 -1.676232 -0.933959 0
M  V30 25 C -0.882798 -2.754612 -0.259746 0
M  V30 26 C -0.900093 -4.021121 -0.787517 0
M  V30 27 C -0.379805 -5.101418 -0.097690 0
M  V30 28 O -0.356572 -6.413090 -0.556575 0
M  V30 29 C -0.901369 -6.736939 -1.843195 0
M  V30 30 H 0.473670 -5.244581 3.875207 0
M  V30 31 H 1.748550 -6.472548 3.610625 0
M  V30 32 H 2.009541 -4.798101 3.103719 0
M  V30 33 H 0.593763 -3.409687 2.632666 0
M  V30 34 H -1.696327 1.668039 1.724919 0
M  V30 35 H -0.556770 0.821677 2.630271 0
M  V30 36 H 0.621287 2.277076 0.222434 0
M  V30 37 H 1.873494 0.305106 1.081791 0
M  V30 38 H 1.703538 1.111534 2.753279 0
M  V30 39 H 3.679921 2.028309 2.203329 0
M  V30 40 H 3.464205 1.737846 0.447709 0
M  V30 41 H 2.116550 3.737403 0.196756 0
M  V30 42 H 3.536204 4.133403 1.253107 0
M  V30 43 H 2.162136 3.478216 3.252063 0
M  V30 44 H 1.569587 4.987564 2.460715 0
M  V30 45 H -0.409467 3.891517 1.879595 0
M  V30 46 H -0.011858 2.749790 3.162612 0
M  V30 47 H -1.780057 2.610641 -0.131845 0
M  V30 48 H -2.937509 3.523279 -2.230747 0
M  V30 49 H -3.356409 1.622781 -3.835313 0
M  V30 50 H -2.031042 -2.786596 -2.713022 0
M  V30 51 H -1.306456 -4.269954 -1.749877 0
M  V30 52 H -0.580043 -7.748984 -2.157021 0
M  V30 53 H -1.996083 -6.632956 -1.880707 0
M  V30 54 H -0.510278 -6.048089 -2.630098 0
M  V30 END ATOM
M  V30 BEGIN BOND
M  V30 1 1 1 2
M  V30 2 1 2 3
M  V30 3 2 3 4
M  V30 4 1 4 5
M  V30 5 1 5 6
M  V30 6 2 6 7
M  V30 7 1 6 8
M  V30 8 1 8 9
M  V30 9 1 9 10
M  V30 10 1 10 11
M  V30 11 1 11 12
M  V30 12 1 12 13
M  V30 13 1 13 14
M  V30 14 1 14 15
M  V30 15 1 8 16
M  V30 16 2 16 17
M  V30 17 1 17 18
M  V30 18 2 18 19
M  V30 19 1 19 20
M  V30 20 1 20 21
M  V30 21 2 21 22
M  V30 22 1 22 23
M  V30 23 2 23 24
M  V30 24 1 24 25
M  V30 25 1 25 26
M  V30 26 2 26 27
M  V30 27 1 27 28
M  V30 28 1 28 29
M  V30 29 1 27 3
M  V30 30 2 25 5
M  V30 31 1 15 10
M  V30 32 1 24 16
M  V30 33 1 21 17
M  V30 34 1 1 30
M  V30 35 1 1 31
M  V30 36 1 1 32
M  V30 37 1 4 33
M  V30 38 1 9 34
M  V30 39 1 9 35
M  V30 40 1 10 36
M  V30 41 1 11 37
M  V30 42 1 11 38
M  V30 43 1 12 39
M  V30 44 1 12 40
M  V30 45 1 13 41
M  V30 46 1 13 42
M  V30 47 1 14 43
M  V30 48 1 14 44
M  V30 49 1 15 45
M  V30 50 1 15 46
M  V30 51 1 18 47
M  V30 52 1 19 48
M  V30 53 1 20 49
M  V30 54 1 23 50
M  V30 55 1 26 51
M  V30 56 1 29 52
M  V30 57 1 29 53
M  V30 58 1 29 54
M  V30 END BOND
M  V30 END CTAB
M  END
>  <Dataset>  (653) 
ChEMBL_Kinases

>  <Ligand_Instance>  (653) 
nan

>  <PDB_ID>  (653) 
nan

>  <Standardized_SMILES>  (653) 
COc1cc2c(=O)n(CC3CCCCC3)c3c4cc[nH]c4ncc3c2cc1OC

>  <Name>  (653) 
nan

>  <Pocket>  (653) 
nan

>  <ATP_Site>  (653) 
nan

>  <Peripheral>  (653) 
nan

>  <Num_H_Atoms_ProtBoundConf>  (653) 
nan

>  <Num_Resolved_Atoms>  (653) 
nan

>  <Num_Not_Resolved_Atoms>  (653) 
nan

$$$$
CHEMBL4284524
     RDKit          3D

  0  0  0  0  0  0  0  0  0  0999 V3000
M  V30 BEGIN CTAB
M  V30 COUNTS 38 43 0 0 0
M  V30 BEGIN ATOM
M  V30 1 O 3.445903 -2.627063 -0.584769 0
M  V30 2 C 2.442632 -2.413575 0.102482 0
M  V30 3 N 2.114105 -3.435766 1.014289 0
M  V30 4 C 0.922929 -3.079080 1.764046 0
M  V30 5 C 0.618246 -1.752301 1.180425 0
M  V30 6 C 1.500344 -1.351610 0.206238 0
M  V30 7 C 1.331470 -0.153465 -0.408416 0
M  V30 8 C 2.069438 0.440639 -1.386148 0
M  V30 9 C 3.172192 0.225342 -2.153986 0
M  V30 10 C 3.685824 1.072818 -3.107237 0
M  V30 11 C 3.027547 2.287012 -3.331173 0
M  V30 12 C 1.893682 2.558538 -2.573196 0
M  V30 13 C 1.439108 1.640694 -1.624092 0
M  V30 14 N 0.352826 1.774019 -0.818250 0
M  V30 15 C 0.281307 0.665358 -0.062951 0
M  V30 16 C -0.612934 0.280242 0.911414 0
M  V30 17 N -1.705199 0.915043 1.407006 0
M  V30 18 C -2.273608 0.143105 2.357608 0
M  V30 19 C -3.373485 0.276111 3.174768 0
M  V30 20 C -3.723623 -0.708177 4.080060 0
M  V30 21 C -2.917021 -1.832178 4.125842 0
M  V30 22 O -3.262425 -2.829823 5.035650 0
M  V30 23 C -1.804153 -2.001898 3.321116 0
M  V30 24 C -1.494483 -0.992055 2.432901 0
M  V30 25 C -0.444635 -0.936932 1.538485 0
M  V30 26 H 2.522860 -4.358396 1.260719 0
M  V30 27 H 0.155113 -3.837470 1.525017 0
M  V30 28 H 1.207589 -3.024867 2.827080 0
M  V30 29 H 3.729220 -0.671820 -2.046394 0
M  V30 30 H 4.567775 0.857341 -3.694131 0
M  V30 31 H 3.329299 3.024395 -4.041711 0
M  V30 32 H 1.373312 3.482570 -2.727717 0
M  V30 33 H -0.323042 2.578095 -0.770045 0
M  V30 34 H -2.039642 1.847319 1.095033 0
M  V30 35 H -3.981081 1.166198 3.113014 0
M  V30 36 H -4.590601 -0.636982 4.745330 0
M  V30 37 H -3.956210 -3.532420 4.810856 0
M  V30 38 H -1.205859 -2.880092 3.383019 0
M  V30 END ATOM
M  V30 BEGIN BOND
M  V30 1 2 1 2
M  V30 2 1 2 3
M  V30 3 1 3 4
M  V30 4 1 4 5
M  V30 5 2 5 6
M  V30 6 1 6 7
M  V30 7 1 7 8
M  V30 8 2 8 9
M  V30 9 1 9 10
M  V30 10 2 10 11
M  V30 11 1 11 12
M  V30 12 2 12 13
M  V30 13 1 13 14
M  V30 14 1 14 15
M  V30 15 1 15 16
M  V30 16 1 16 17
M  V30 17 1 17 18
M  V30 18 2 18 19
M  V30 19 1 19 20
M  V30 20 2 20 21
M  V30 21 1 21 22
M  V30 22 1 21 23
M  V30 23 2 23 24
M  V30 24 1 24 25
M  V30 25 1 6 2
M  V30 26 2 15 7
M  V30 27 2 25 16
M  V30 28 1 25 5
M  V30 29 1 13 8
M  V30 30 1 24 18
M  V30 31 1 3 26
M  V30 32 1 4 27
M  V30 33 1 4 28
M  V30 34 1 9 29
M  V30 35 1 10 30
M  V30 36 1 11 31
M  V30 37 1 12 32
M  V30 38 1 14 33
M  V30 39 1 17 34
M  V30 40 1 19 35
M  V30 41 1 20 36
M  V30 42 1 22 37
M  V30 43 1 23 38
M  V30 END BOND
M  V30 END CTAB
M  END
>  <Dataset>  (654) 
ChEMBL_Kinases

>  <Ligand_Instance>  (654) 
nan

>  <PDB_ID>  (654) 
nan

>  <Standardized_SMILES>  (654) 
O=C1NCc2c1c1c3ccccc3[nH]c1c1[nH]c3ccc(O)cc3c21

>  <Name>  (654) 
nan

>  <Pocket>  (654) 
nan

>  <ATP_Site>  (654) 
nan

>  <Peripheral>  (654) 
nan

>  <Num_H_Atoms_ProtBoundConf>  (654) 
nan

>  <Num_Resolved_Atoms>  (654) 
nan

>  <Num_Not_Resolved_Atoms>  (654) 
nan

$$$$
CHEMBL4758657
     RDKit          3D

  0  0  0  0  0  0  0  0  0  0999 V3000
M  V30 BEGIN CTAB
M  V30 COUNTS 63 68 0 0 0
M  V30 BEGIN ATOM
M  V30 1 C 6.440344 -3.868348 2.106094 0
M  V30 2 C 6.313031 -2.397832 1.684223 0
M  V30 3 C 7.118479 -1.599867 2.673053 0
M  V30 4 C 6.887234 -2.312523 0.273497 0
M  V30 5 C 4.852400 -2.089741 1.708898 0
M  V30 6 C 4.542631 -0.700274 1.326359 0
M  V30 7 O 5.536011 0.015336 1.051591 0
M  V30 8 N 3.236849 -0.165194 1.259084 0
M  V30 9 C 2.834097 1.144224 0.907070 0
M  V30 10 C 3.630798 2.204075 0.554445 0
M  V30 11 N 3.182208 3.427789 0.229864 0
M  V30 12 C 1.871546 3.727633 0.222829 0
M  V30 13 C 1.035130 2.688386 0.571871 0
M  V30 14 C -0.410437 2.889842 0.602731 0
M  V30 15 C -0.897990 4.156585 0.950545 0
M  V30 16 C -2.270860 4.353818 0.980091 0
M  V30 17 C -3.139008 3.327206 0.674164 0
M  V30 18 N -4.474591 3.184154 0.608228 0
M  V30 19 N -4.795858 1.974050 0.260685 0
M  V30 20 C -3.709229 1.183891 0.058554 0
M  V30 21 C -3.724545 -0.189808 -0.331119 0
M  V30 22 C -4.919588 -0.885569 -0.553606 0
M  V30 23 C -4.713404 -2.176548 -0.916318 0
M  V30 24 C -5.532994 -3.240811 -1.236151 0
M  V30 25 C -6.977229 -3.041790 -1.209347 0
M  V30 26 C -7.749486 -4.024317 -0.595297 0
M  V30 27 C -9.064617 -3.612044 -0.697927 0
M  V30 28 O -9.071923 -2.467611 -1.327456 0
M  V30 29 C -7.854958 -2.082774 -1.654465 0
M  V30 30 C -4.974719 -4.458004 -1.570848 0
M  V30 31 C -3.583547 -4.555855 -1.569763 0
M  V30 32 N -2.787751 -3.516948 -1.257639 0
M  V30 33 C -3.344970 -2.337946 -0.933799 0
M  V30 34 N -2.835280 -1.147137 -0.584705 0
M  V30 35 C -2.685753 2.063325 0.326380 0
M  V30 36 C -1.319520 1.911446 0.309532 0
M  V30 37 C 1.493902 1.431655 0.905302 0
M  V30 38 H 6.361654 -4.553071 1.235356 0
M  V30 39 H 7.424029 -4.009517 2.554991 0
M  V30 40 H 5.621352 -4.132992 2.826223 0
M  V30 41 H 7.718372 -0.785124 2.176148 0
M  V30 42 H 7.862920 -2.219778 3.221570 0
M  V30 43 H 6.388286 -1.123561 3.360940 0
M  V30 44 H 6.316208 -1.650765 -0.385934 0
M  V30 45 H 7.959436 -2.040295 0.283675 0
M  V30 46 H 6.835296 -3.326573 -0.221287 0
M  V30 47 H 4.291354 -2.856711 1.169380 0
M  V30 48 H 4.529417 -2.183236 2.786303 0
M  V30 49 H 2.523518 -0.877007 1.512936 0
M  V30 50 H 4.697850 2.059779 0.531442 0
M  V30 51 H 1.454066 4.691437 -0.028949 0
M  V30 52 H -0.210402 4.961459 1.190476 0
M  V30 53 H -2.695901 5.324956 1.246017 0
M  V30 54 H -5.182336 3.926508 0.804128 0
M  V30 55 H -5.932656 -0.506742 -0.466848 0
M  V30 56 H -7.586068 -4.966176 -0.092046 0
M  V30 57 H -10.012628 -4.034356 -0.375652 0
M  V30 58 H -7.470945 -1.229411 -2.160742 0
M  V30 59 H -5.612895 -5.303364 -1.824619 0
M  V30 60 H -3.140973 -5.520160 -1.835126 0
M  V30 61 H -1.810255 -1.013347 -0.525339 0
M  V30 62 H -0.895201 0.980542 0.055063 0
M  V30 63 H 0.774636 0.642461 1.175540 0
M  V30 END ATOM
M  V30 BEGIN BOND
M  V30 1 1 1 2
M  V30 2 1 2 3
M  V30 3 1 2 4
M  V30 4 1 2 5
M  V30 5 1 5 6
M  V30 6 2 6 7
M  V30 7 1 6 8
M  V30 8 1 8 9
M  V30 9 2 9 10
M  V30 10 1 10 11
M  V30 11 2 11 12
M  V30 12 1 12 13
M  V30 13 1 13 14
M  V30 14 2 14 15
M  V30 15 1 15 16
M  V30 16 2 16 17
M  V30 17 1 17 18
M  V30 18 1 18 19
M  V30 19 2 19 20
M  V30 20 1 20 21
M  V30 21 2 21 22
M  V30 22 1 22 23
M  V30 23 2 23 24
M  V30 24 1 24 25
M  V30 25 1 25 26
M  V30 26 2 26 27
M  V30 27 1 27 28
M  V30 28 1 28 29
M  V30 29 1 24 30
M  V30 30 2 30 31
M  V30 31 1 31 32
M  V30 32 2 32 33
M  V30 33 1 33 34
M  V30 34 1 20 35
M  V30 35 2 35 36
M  V30 36 2 13 37
M  V30 37 1 37 9
M  V30 38 1 36 14
M  V30 39 1 35 17
M  V30 40 1 34 21
M  V30 41 1 33 23
M  V30 42 2 29 25
M  V30 43 1 1 38
M  V30 44 1 1 39
M  V30 45 1 1 40
M  V30 46 1 3 41
M  V30 47 1 3 42
M  V30 48 1 3 43
M  V30 49 1 4 44
M  V30 50 1 4 45
M  V30 51 1 4 46
M  V30 52 1 5 47
M  V30 53 1 5 48
M  V30 54 1 8 49
M  V30 55 1 10 50
M  V30 56 1 12 51
M  V30 57 1 15 52
M  V30 58 1 16 53
M  V30 59 1 18 54
M  V30 60 1 22 55
M  V30 61 1 26 56
M  V30 62 1 27 57
M  V30 63 1 29 58
M  V30 64 1 30 59
M  V30 65 1 31 60
M  V30 66 1 34 61
M  V30 67 1 36 62
M  V30 68 1 37 63
M  V30 END BOND
M  V30 END CTAB
M  END
>  <Dataset>  (655) 
ChEMBL_Kinases

>  <Ligand_Instance>  (655) 
nan

>  <PDB_ID>  (655) 
nan

>  <Standardized_SMILES>  (655) 
CC(C)(C)CC(=O)Nc1cncc(-c2ccc3[nH]nc(-c4cc5c(-c6ccoc6)ccnc5[nH]4)c3c2)c1

>  <Name>  (655) 
nan

>  <Pocket>  (655) 
nan

>  <ATP_Site>  (655) 
nan

>  <Peripheral>  (655) 
nan

>  <Num_H_Atoms_ProtBoundConf>  (655) 
nan

>  <Num_Resolved_Atoms>  (655) 
nan

>  <Num_Not_Resolved_Atoms>  (655) 
nan

$$$$
CHEMBL4758642
     RDKit          3D

  0  0  0  0  0  0  0  0  0  0999 V3000
M  V30 BEGIN CTAB
M  V30 COUNTS 45 50 0 0 0
M  V30 BEGIN ATOM
M  V30 1 C -2.625167 -3.571179 3.094813 0
M  V30 2 C -3.185902 -4.824917 3.070998 0
M  V30 3 N -2.931354 -5.661001 2.050540 0
M  V30 4 C -2.122193 -5.278155 1.038139 0
M  V30 5 C -1.534706 -4.031316 1.014120 0
M  V30 6 C -0.678352 -3.711766 -0.120137 0
M  V30 7 C -0.033453 -2.504528 -0.264907 0
M  V30 8 C 0.772212 -2.217499 -1.341979 0
M  V30 9 C 1.492914 -1.098496 -1.672609 0
M  V30 10 C 1.666692 0.167577 -1.020951 0
M  V30 11 C 1.234841 0.779496 0.118347 0
M  V30 12 C 1.728527 2.051286 0.263230 0
M  V30 13 C 1.549516 3.002825 1.245062 0
M  V30 14 C 0.713164 2.756592 2.413647 0
M  V30 15 C 0.633373 1.687101 3.281263 0
M  V30 16 C -0.277819 1.738238 4.314550 0
M  V30 17 C -1.097739 2.817057 4.497234 0
M  V30 18 N -1.026304 3.866127 3.654457 0
M  V30 19 C -0.138494 3.847203 2.625207 0
M  V30 20 C 2.209915 4.226061 1.083893 0
M  V30 21 N 2.978555 4.420187 -0.002323 0
M  V30 22 C 3.136378 3.474562 -0.945610 0
M  V30 23 C 2.511059 2.249111 -0.842352 0
M  V30 24 N 2.451607 1.122958 -1.574001 0
M  V30 25 N 2.052161 -1.462695 -2.833725 0
M  V30 26 N 1.723304 -2.675099 -3.197907 0
M  V30 27 C 0.901305 -3.224224 -2.287139 0
M  V30 28 C 0.267000 -4.438333 -2.164334 0
M  V30 29 N -0.510595 -4.645146 -1.073265 0
M  V30 30 C -1.811797 -3.207991 2.061256 0
M  V30 31 H -2.860935 -2.936437 3.937496 0
M  V30 32 H -3.853264 -5.243107 3.830811 0
M  V30 33 H -1.970313 -6.024876 0.247366 0
M  V30 34 H -0.176052 -1.786782 0.489798 0
M  V30 35 H 0.579357 0.326606 0.829812 0
M  V30 36 H 1.342444 0.917510 3.009579 0
M  V30 37 H -0.272010 0.859990 4.943001 0
M  V30 38 H -1.796451 2.826841 5.310863 0
M  V30 39 H -0.201767 4.768961 2.032775 0
M  V30 40 H 2.113354 5.019809 1.818262 0
M  V30 41 H 3.758607 3.656038 -1.806981 0
M  V30 42 H 3.007626 1.117084 -2.466863 0
M  V30 43 H 2.073268 -3.112535 -4.078279 0
M  V30 44 H 0.407259 -5.185986 -2.937206 0
M  V30 45 H -1.370933 -2.230156 2.074194 0
M  V30 END ATOM
M  V30 BEGIN BOND
M  V30 1 2 1 2
M  V30 2 1 2 3
M  V30 3 2 3 4
M  V30 4 1 4 5
M  V30 5 1 5 6
M  V30 6 2 6 7
M  V30 7 1 7 8
M  V30 8 1 8 9
M  V30 9 1 9 10
M  V30 10 2 10 11
M  V30 11 1 11 12
M  V30 12 2 12 13
M  V30 13 1 13 14
M  V30 14 2 14 15
M  V30 15 1 15 16
M  V30 16 2 16 17
M  V30 17 1 17 18
M  V30 18 2 18 19
M  V30 19 1 13 20
M  V30 20 2 20 21
M  V30 21 1 21 22
M  V30 22 2 22 23
M  V30 23 1 23 24
M  V30 24 2 9 25
M  V30 25 1 25 26
M  V30 26 1 26 27
M  V30 27 1 27 28
M  V30 28 2 28 29
M  V30 29 2 5 30
M  V30 30 1 30 1
M  V30 31 1 29 6
M  V30 32 2 27 8
M  V30 33 1 24 10
M  V30 34 1 23 12
M  V30 35 1 19 14
M  V30 36 1 1 31
M  V30 37 1 2 32
M  V30 38 1 4 33
M  V30 39 1 7 34
M  V30 40 1 11 35
M  V30 41 1 15 36
M  V30 42 1 16 37
M  V30 43 1 17 38
M  V30 44 1 19 39
M  V30 45 1 20 40
M  V30 46 1 22 41
M  V30 47 1 24 42
M  V30 48 1 26 43
M  V30 49 1 28 44
M  V30 50 1 30 45
M  V30 END BOND
M  V30 END CTAB
M  END
>  <Dataset>  (656) 
ChEMBL_Kinases

>  <Ligand_Instance>  (656) 
nan

>  <PDB_ID>  (656) 
nan

>  <Standardized_SMILES>  (656) 
c1cncc(-c2cc3c(-c4cc5c(-c6cccnc6)cncc5[nH]4)n[nH]c3cn2)c1

>  <Name>  (656) 
nan

>  <Pocket>  (656) 
nan

>  <ATP_Site>  (656) 
nan

>  <Peripheral>  (656) 
nan

>  <Num_H_Atoms_ProtBoundConf>  (656) 
nan

>  <Num_Resolved_Atoms>  (656) 
nan

>  <Num_Not_Resolved_Atoms>  (656) 
nan

$$$$
CHEMBL428496
     RDKit          3D

  0  0  0  0  0  0  0  0  0  0999 V3000
M  V30 BEGIN CTAB
M  V30 COUNTS 55 59 0 0 0
M  V30 BEGIN ATOM
M  V30 1 C 3.063592 2.022234 2.621807 0
M  V30 2 O 3.526899 1.594745 1.392254 0
M  V30 3 C 2.723972 0.689568 0.762200 0
M  V30 4 C 1.340422 1.218546 0.469889 0 CFG=1
M  V30 5 O 1.488896 2.406590 -0.372560 0
M  V30 6 C 2.154705 2.188697 -1.588177 0
M  V30 7 O 2.835261 2.942157 -2.301519 0
M  V30 8 C 2.053007 0.827436 -2.158498 0
M  V30 9 C 2.629852 0.137752 -3.230668 0
M  V30 10 O 2.258288 -1.124258 -3.177783 0
M  V30 11 C 1.471747 -1.360380 -2.157268 0
M  V30 12 C 1.336763 -0.166077 -1.531344 0
M  V30 13 C 0.531087 0.281011 -0.366945 0 CFG=2
M  V30 14 C -0.554434 1.196659 -1.016655 0
M  V30 15 C -0.160910 -0.842043 0.275754 0
M  V30 16 C -0.081725 -2.097135 -0.238865 0
M  V30 17 C 0.711914 -2.394194 -1.454046 0
M  V30 18 O 0.850235 -3.503579 -2.033821 0
M  V30 19 C -0.694520 -3.319947 0.249533 0 CFG=2
M  V30 20 C -1.475361 -4.174632 -0.658021 0
M  V30 21 C -2.242779 -5.040023 0.364529 0
M  V30 22 C -2.146647 -4.320727 1.673224 0
M  V30 23 O -2.338828 -4.963612 2.679524 0
M  V30 24 C -1.819013 -2.943177 1.240410 0 CFG=2
M  V30 25 C -2.996892 -2.357765 0.540176 0
M  V30 26 C -1.144199 -2.071468 2.229984 0
M  V30 27 C -1.005166 -0.732673 1.484509 0 CFG=1
M  V30 28 O -0.713063 0.303416 2.353199 0
M  V30 29 C -1.703738 1.273583 2.611794 0
M  V30 30 C -1.475050 2.436107 3.543031 0
M  V30 31 O -2.851354 1.264214 2.101429 0
M  V30 32 H 2.937714 1.144796 3.321215 0
M  V30 33 H 2.115640 2.568340 2.558379 0
M  V30 34 H 3.830712 2.657611 3.139378 0
M  V30 35 H 2.637809 -0.190167 1.450572 0
M  V30 36 H 3.252721 0.291079 -0.128930 0
M  V30 37 H 0.902585 1.505011 1.417588 0
M  V30 38 H 3.273318 0.601231 -3.965864 0
M  V30 39 H -0.157432 1.569748 -1.968908 0
M  V30 40 H -0.739123 2.064343 -0.356997 0
M  V30 41 H -1.455885 0.599161 -1.224762 0
M  V30 42 H -0.019826 -3.962916 0.851048 0
M  V30 43 H -0.858260 -4.798685 -1.300350 0
M  V30 44 H -2.188145 -3.594144 -1.298771 0
M  V30 45 H -3.262829 -5.205111 0.023292 0
M  V30 46 H -1.652782 -6.003182 0.412330 0
M  V30 47 H -3.604319 -3.213006 0.115886 0
M  V30 48 H -2.722502 -1.741953 -0.351164 0
M  V30 49 H -3.641993 -1.798528 1.218678 0
M  V30 50 H -1.734238 -1.843703 3.134424 0
M  V30 51 H -0.140335 -2.479492 2.450533 0
M  V30 52 H -2.070886 -0.546599 1.135749 0
M  V30 53 H -2.269884 2.398043 4.331265 0
M  V30 54 H -1.607437 3.351612 2.903757 0
M  V30 55 H -0.452500 2.314549 3.931825 0
M  V30 END ATOM
M  V30 BEGIN BOND
M  V30 1 1 1 2
M  V30 2 1 2 3
M  V30 3 1 3 4
M  V30 4 1 4 5
M  V30 5 1 5 6
M  V30 6 2 6 7
M  V30 7 1 6 8
M  V30 8 2 8 9
M  V30 9 1 9 10
M  V30 10 1 10 11
M  V30 11 2 11 12
M  V30 12 1 12 13
M  V30 13 1 13 14 CFG=3
M  V30 14 1 13 15
M  V30 15 2 15 16
M  V30 16 1 16 17
M  V30 17 2 17 18
M  V30 18 1 16 19
M  V30 19 1 19 20
M  V30 20 1 20 21
M  V30 21 1 21 22
M  V30 22 2 22 23
M  V30 23 1 22 24
M  V30 24 1 24 25 CFG=3
M  V30 25 1 24 26
M  V30 26 1 26 27
M  V30 27 1 27 28
M  V30 28 1 28 29
M  V30 29 1 29 30
M  V30 30 2 29 31
M  V30 31 1 13 4
M  V30 32 1 27 15
M  V30 33 1 12 8
M  V30 34 1 24 19
M  V30 35 1 17 11
M  V30 36 1 1 32
M  V30 37 1 1 33
M  V30 38 1 1 34
M  V30 39 1 3 35
M  V30 40 1 3 36
M  V30 41 1 4 37 CFG=1
M  V30 42 1 9 38
M  V30 43 1 14 39
M  V30 44 1 14 40
M  V30 45 1 14 41
M  V30 46 1 19 42 CFG=1
M  V30 47 1 20 43
M  V30 48 1 20 44
M  V30 49 1 21 45
M  V30 50 1 21 46
M  V30 51 1 25 47
M  V30 52 1 25 48
M  V30 53 1 25 49
M  V30 54 1 26 50
M  V30 55 1 26 51
M  V30 56 1 27 52 CFG=3
M  V30 57 1 30 53
M  V30 58 1 30 54
M  V30 59 1 30 55
M  V30 END BOND
M  V30 END CTAB
M  END
>  <Dataset>  (657) 
ChEMBL_Kinases

>  <Ligand_Instance>  (657) 
nan

>  <PDB_ID>  (657) 
nan

>  <Standardized_SMILES>  (657) 
COC[C@H]1OC(=O)c2coc3c2[C@@]1(C)C1=C(C3=O)[C@@H]2CCC(=O)[C@@]2(C)C[C@H]1OC(C)=O

>  <Name>  (657) 
WORTMANNIN

>  <Pocket>  (657) 
nan

>  <ATP_Site>  (657) 
nan

>  <Peripheral>  (657) 
nan

>  <Num_H_Atoms_ProtBoundConf>  (657) 
nan

>  <Num_Resolved_Atoms>  (657) 
nan

>  <Num_Not_Resolved_Atoms>  (657) 
nan

$$$$
CHEMBL4758596
     RDKit          3D

  0  0  0  0  0  0  0  0  0  0999 V3000
M  V30 BEGIN CTAB
M  V30 COUNTS 50 55 0 0 0
M  V30 BEGIN ATOM
M  V30 1 O -0.583795 -5.729817 -0.423108 0
M  V30 2 C -1.530830 -5.666863 0.395317 0
M  V30 3 N -1.464674 -4.543343 1.234220 0
M  V30 4 C -0.600213 -3.427058 1.419665 0
M  V30 5 C 0.461712 -3.507054 2.298201 0
M  V30 6 N 1.274705 -2.448999 2.468904 0
M  V30 7 C 1.085906 -1.295969 1.802080 0
M  V30 8 C 0.049281 -1.137541 0.908454 0
M  V30 9 C -0.251564 0.060471 0.132547 0
M  V30 10 C 0.484629 1.221092 0.196342 0
M  V30 11 C 0.220129 2.361237 -0.524775 0
M  V30 12 C 0.848124 3.581982 -0.573786 0
M  V30 13 C 2.006829 4.103334 0.111966 0
M  V30 14 C 2.457968 5.399690 -0.111165 0
M  V30 15 C 3.570440 5.702105 0.636099 0
M  V30 16 C 4.381213 6.806395 0.784480 0
M  V30 17 N 5.433443 6.772430 1.634740 0
M  V30 18 C 5.694534 5.643730 2.347916 0
M  V30 19 C 4.901344 4.520554 2.221955 0
M  V30 20 C 3.832050 4.560469 1.355488 0
M  V30 21 N 2.891141 3.673738 1.006317 0
M  V30 22 N 0.090102 4.248127 -1.473990 0
M  V30 23 N -0.897533 3.505651 -1.924816 0
M  V30 24 C -0.859685 2.303415 -1.355731 0
M  V30 25 C -1.612516 1.164989 -1.442684 0
M  V30 26 N -1.313478 0.075158 -0.716719 0
M  V30 27 C -0.760749 -2.238433 0.759307 0
M  V30 28 C -2.651061 -6.582711 0.576660 0
M  V30 29 C -3.689810 -6.520805 1.468703 0
M  V30 30 C -4.649381 -7.512667 1.459270 0
M  V30 31 C -4.589524 -8.568012 0.572220 0
M  V30 32 C -3.548034 -8.642316 -0.331899 0
M  V30 33 C -2.588029 -7.651362 -0.323541 0
M  V30 34 H -2.142202 -4.286233 1.988195 0
M  V30 35 H 0.678056 -4.409364 2.874463 0
M  V30 36 H 1.745771 -0.453161 1.947782 0
M  V30 37 H 1.318131 1.197462 0.868352 0
M  V30 38 H 2.049214 6.168556 -0.780216 0
M  V30 39 H 4.150896 7.690232 0.205501 0
M  V30 40 H 6.537344 5.619992 3.027398 0
M  V30 41 H 5.086509 3.613446 2.775534 0
M  V30 42 H 2.879391 2.727588 1.421138 0
M  V30 43 H -1.579774 3.865344 -2.627470 0
M  V30 44 H -2.459977 1.154683 -2.110565 0
M  V30 45 H -1.605634 -2.173756 0.059874 0
M  V30 46 H -3.646450 -5.657904 2.119103 0
M  V30 47 H -5.426982 -7.349722 2.219687 0
M  V30 48 H -5.404975 -9.260209 0.683928 0
M  V30 49 H -3.551150 -9.490244 -1.003049 0
M  V30 50 H -1.819324 -7.829770 -1.089026 0
M  V30 END ATOM
M  V30 BEGIN BOND
M  V30 1 2 1 2
M  V30 2 1 2 3
M  V30 3 1 3 4
M  V30 4 2 4 5
M  V30 5 1 5 6
M  V30 6 2 6 7
M  V30 7 1 7 8
M  V30 8 1 8 9
M  V30 9 2 9 10
M  V30 10 1 10 11
M  V30 11 1 11 12
M  V30 12 1 12 13
M  V30 13 2 13 14
M  V30 14 1 14 15
M  V30 15 2 15 16
M  V30 16 1 16 17
M  V30 17 2 17 18
M  V30 18 1 18 19
M  V30 19 2 19 20
M  V30 20 1 20 21
M  V30 21 2 12 22
M  V30 22 1 22 23
M  V30 23 1 23 24
M  V30 24 1 24 25
M  V30 25 2 25 26
M  V30 26 2 8 27
M  V30 27 1 2 28
M  V30 28 2 28 29
M  V30 29 1 29 30
M  V30 30 2 30 31
M  V30 31 1 31 32
M  V30 32 2 32 33
M  V30 33 1 27 4
M  V30 34 1 33 28
M  V30 35 1 26 9
M  V30 36 2 24 11
M  V30 37 1 21 13
M  V30 38 1 20 15
M  V30 39 1 3 34
M  V30 40 1 5 35
M  V30 41 1 7 36
M  V30 42 1 10 37
M  V30 43 1 14 38
M  V30 44 1 16 39
M  V30 45 1 18 40
M  V30 46 1 19 41
M  V30 47 1 21 42
M  V30 48 1 23 43
M  V30 49 1 25 44
M  V30 50 1 27 45
M  V30 51 1 29 46
M  V30 52 1 30 47
M  V30 53 1 31 48
M  V30 54 1 32 49
M  V30 55 1 33 50
M  V30 END BOND
M  V30 END CTAB
M  END
>  <Dataset>  (658) 
ChEMBL_Kinases

>  <Ligand_Instance>  (658) 
nan

>  <PDB_ID>  (658) 
nan

>  <Standardized_SMILES>  (658) 
O=C(Nc1cncc(-c2cc3c(-c4cc5cnccc5[nH]4)n[nH]c3cn2)c1)c1ccccc1

>  <Name>  (658) 
nan

>  <Pocket>  (658) 
nan

>  <ATP_Site>  (658) 
nan

>  <Peripheral>  (658) 
nan

>  <Num_H_Atoms_ProtBoundConf>  (658) 
nan

>  <Num_Resolved_Atoms>  (658) 
nan

>  <Num_Not_Resolved_Atoms>  (658) 
nan

$$$$
CHEMBL188665
     RDKit          3D

  0  0  0  0  0  0  0  0  0  0999 V3000
M  V30 BEGIN CTAB
M  V30 COUNTS 37 40 0 0 0
M  V30 BEGIN ATOM
M  V30 1 F 3.050167 -3.688763 3.983398 0
M  V30 2 C 2.524653 -4.558177 3.022801 0
M  V30 3 F 1.386608 -5.185370 3.513795 0
M  V30 4 F 3.434772 -5.544522 2.692738 0
M  V30 5 C 2.198666 -3.753623 1.791927 0
M  V30 6 C 2.413787 -2.411554 1.721543 0
M  V30 7 C 2.083816 -1.704186 0.557331 0
M  V30 8 N 2.359093 -0.328221 0.693699 0
M  V30 9 C 2.120473 0.880105 -0.010252 0
M  V30 10 N 2.792769 1.844002 -0.685468 0
M  V30 11 C 2.109248 2.881415 -1.226692 0
M  V30 12 C 0.756038 3.050355 -1.152512 0
M  V30 13 C 0.074572 2.046671 -0.453569 0
M  V30 14 C -1.401620 2.134267 -0.302835 0
M  V30 15 C -2.327024 3.041913 -0.688064 0
M  V30 16 N -3.539776 2.614815 -0.271285 0
M  V30 17 N -3.390896 1.447192 0.374091 0
M  V30 18 N -4.307797 0.678289 0.945895 0
M  V30 19 C -3.984682 -0.480788 1.561995 0
M  V30 20 C -2.673944 -0.893640 1.606905 0
M  V30 21 C -1.721213 -0.069070 0.997979 0
M  V30 22 C -2.074371 1.106859 0.380008 0
M  V30 23 N 0.807713 1.046617 0.058858 0
M  V30 24 C 1.541150 -2.324057 -0.539817 0
M  V30 25 C 1.328769 -3.690978 -0.452146 0
M  V30 26 C 1.650686 -4.392143 0.689897 0
M  V30 27 Cl 1.335036 -6.123962 0.699193 0
M  V30 28 H 2.843196 -1.982745 2.614261 0
M  V30 29 H 2.882673 0.155370 1.454380 0
M  V30 30 H 2.767630 3.578497 -1.731752 0
M  V30 31 H 0.259934 3.886356 -1.593103 0
M  V30 32 H -2.043745 3.940281 -1.242008 0
M  V30 33 H -4.783450 -1.037888 2.003477 0
M  V30 34 H -2.391153 -1.826370 2.100611 0
M  V30 35 H -0.704374 -0.414516 1.042622 0
M  V30 36 H 1.319799 -1.697826 -1.402630 0
M  V30 37 H 0.900446 -4.181029 -1.312302 0
M  V30 END ATOM
M  V30 BEGIN BOND
M  V30 1 1 1 2
M  V30 2 1 2 3
M  V30 3 1 2 4
M  V30 4 1 2 5
M  V30 5 2 5 6
M  V30 6 1 6 7
M  V30 7 1 7 8
M  V30 8 1 8 9
M  V30 9 2 9 10
M  V30 10 1 10 11
M  V30 11 2 11 12
M  V30 12 1 12 13
M  V30 13 1 13 14
M  V30 14 1 14 15
M  V30 15 2 15 16
M  V30 16 1 16 17
M  V30 17 1 17 18
M  V30 18 2 18 19
M  V30 19 1 19 20
M  V30 20 2 20 21
M  V30 21 1 21 22
M  V30 22 2 13 23
M  V30 23 2 7 24
M  V30 24 1 24 25
M  V30 25 2 25 26
M  V30 26 1 26 27
M  V30 27 1 26 5
M  V30 28 1 23 9
M  V30 29 2 22 14
M  V30 30 1 22 17
M  V30 31 1 6 28
M  V30 32 1 8 29
M  V30 33 1 11 30
M  V30 34 1 12 31
M  V30 35 1 15 32
M  V30 36 1 19 33
M  V30 37 1 20 34
M  V30 38 1 21 35
M  V30 39 1 24 36
M  V30 40 1 25 37
M  V30 END BOND
M  V30 END CTAB
M  END
>  <Dataset>  (659) 
ChEMBL_Kinases

>  <Ligand_Instance>  (659) 
nan

>  <PDB_ID>  (659) 
nan

>  <Standardized_SMILES>  (659) 
FC(F)(F)c1cc(Nc2nccc(-c3cnn4ncccc34)n2)ccc1Cl

>  <Name>  (659) 
nan

>  <Pocket>  (659) 
nan

>  <ATP_Site>  (659) 
nan

>  <Peripheral>  (659) 
nan

>  <Num_H_Atoms_ProtBoundConf>  (659) 
nan

>  <Num_Resolved_Atoms>  (659) 
nan

>  <Num_Not_Resolved_Atoms>  (659) 
nan

$$$$
CHEMBL188785
     RDKit          3D

  0  0  0  0  0  0  0  0  0  0999 V3000
M  V30 BEGIN CTAB
M  V30 COUNTS 44 48 0 0 0
M  V30 BEGIN ATOM
M  V30 1 C -2.656555 -6.112492 2.064369 0
M  V30 2 O -2.007637 -4.846408 1.967573 0
M  V30 3 C -1.810234 -4.244417 0.738360 0
M  V30 4 C -1.179084 -3.013400 0.646958 0
M  V30 5 C -0.973315 -2.396200 -0.572398 0
M  V30 6 C -1.396235 -2.998820 -1.735467 0
M  V30 7 C -1.315413 -2.613611 -3.054744 0
M  V30 8 C -0.752276 -1.439749 -3.666280 0
M  V30 9 C -0.715266 -1.400649 -5.044512 0
M  V30 10 C -0.202663 -0.379232 -5.801572 0
M  V30 11 N 0.298380 0.656842 -5.126954 0
M  V30 12 C 0.290440 0.677554 -3.767796 0
M  V30 13 N 0.859398 1.815026 -3.149035 0
M  V30 14 C 0.936466 2.254161 -1.799489 0
M  V30 15 C 1.746356 3.279224 -1.324751 0
M  V30 16 C 1.717082 3.621633 0.006659 0
M  V30 17 C 0.910839 2.994818 0.931916 0
M  V30 18 C 0.102325 1.977208 0.476509 0
M  V30 19 C 0.136971 1.639406 -0.859788 0
M  V30 20 O -0.714793 1.343246 1.416944 0
M  V30 21 C -0.892285 1.846699 2.723572 0
M  V30 22 C 0.357672 2.509839 3.253211 0
M  V30 23 O 0.924154 3.384042 2.265434 0
M  V30 24 N -0.230730 -0.363910 -3.098215 0
M  V30 25 C -1.925781 -3.676817 -3.716104 0
M  V30 26 N -2.311252 -4.578563 -2.801474 0
M  V30 27 N -1.999987 -4.189562 -1.579606 0
M  V30 28 N -2.213323 -4.807932 -0.435228 0
M  V30 29 H -1.899744 -6.888751 2.273832 0
M  V30 30 H -3.417720 -6.101200 2.869833 0
M  V30 31 H -3.168002 -6.300147 1.077734 0
M  V30 32 H -0.835956 -2.516367 1.543721 0
M  V30 33 H -0.484528 -1.457872 -0.626480 0
M  V30 34 H -1.116847 -2.231971 -5.635073 0
M  V30 35 H -0.196265 -0.395237 -6.875706 0
M  V30 36 H 1.343546 2.526583 -3.759496 0
M  V30 37 H 2.376021 3.767018 -2.055119 0
M  V30 38 H 2.384658 4.429483 0.269020 0
M  V30 39 H -0.543957 0.838616 -1.094313 0
M  V30 40 H -1.727401 2.554822 2.795548 0
M  V30 41 H -1.114974 0.986170 3.386978 0
M  V30 42 H 0.108355 3.056226 4.178712 0
M  V30 43 H 1.128559 1.736405 3.444836 0
M  V30 44 H -2.092351 -3.812755 -4.785062 0
M  V30 END ATOM
M  V30 BEGIN BOND
M  V30 1 1 1 2
M  V30 2 1 2 3
M  V30 3 1 3 4
M  V30 4 2 4 5
M  V30 5 1 5 6
M  V30 6 2 6 7
M  V30 7 1 7 8
M  V30 8 2 8 9
M  V30 9 1 9 10
M  V30 10 2 10 11
M  V30 11 1 11 12
M  V30 12 1 12 13
M  V30 13 1 13 14
M  V30 14 2 14 15
M  V30 15 1 15 16
M  V30 16 2 16 17
M  V30 17 1 17 18
M  V30 18 2 18 19
M  V30 19 1 18 20
M  V30 20 1 20 21
M  V30 21 1 21 22
M  V30 22 1 22 23
M  V30 23 2 12 24
M  V30 24 1 7 25
M  V30 25 2 25 26
M  V30 26 1 26 27
M  V30 27 1 27 28
M  V30 28 2 28 3
M  V30 29 1 27 6
M  V30 30 1 24 8
M  V30 31 1 19 14
M  V30 32 1 23 17
M  V30 33 1 1 29
M  V30 34 1 1 30
M  V30 35 1 1 31
M  V30 36 1 4 32
M  V30 37 1 5 33
M  V30 38 1 9 34
M  V30 39 1 10 35
M  V30 40 1 13 36
M  V30 41 1 15 37
M  V30 42 1 16 38
M  V30 43 1 19 39
M  V30 44 1 21 40
M  V30 45 1 21 41
M  V30 46 1 22 42
M  V30 47 1 22 43
M  V30 48 1 25 44
M  V30 END BOND
M  V30 END CTAB
M  END
>  <Dataset>  (660) 
ChEMBL_Kinases

>  <Ligand_Instance>  (660) 
nan

>  <PDB_ID>  (660) 
nan

>  <Standardized_SMILES>  (660) 
COc1ccc2c(-c3ccnc(Nc4ccc5c(c4)OCCO5)n3)cnn2n1

>  <Name>  (660) 
nan

>  <Pocket>  (660) 
nan

>  <ATP_Site>  (660) 
nan

>  <Peripheral>  (660) 
nan

>  <Num_H_Atoms_ProtBoundConf>  (660) 
nan

>  <Num_Resolved_Atoms>  (660) 
nan

>  <Num_Not_Resolved_Atoms>  (660) 
nan

$$$$
CHEMBL4758546
     RDKit          3D

  0  0  0  0  0  0  0  0  0  0999 V3000
M  V30 BEGIN CTAB
M  V30 COUNTS 55 60 0 0 0
M  V30 BEGIN ATOM
M  V30 1 C 5.811366 -1.506149 5.102256 0
M  V30 2 C 6.373694 -1.114599 3.736204 0
M  V30 3 C 5.159840 -0.999734 2.849229 0
M  V30 4 O 4.188262 -1.281306 3.631383 0
M  V30 5 N 5.144424 -0.655446 1.468431 0
M  V30 6 C 3.756534 -0.677631 1.067506 0
M  V30 7 C 3.284291 -1.890412 0.599097 0
M  V30 8 N 1.992091 -1.940940 0.217564 0
M  V30 9 C 1.216672 -0.841693 0.299757 0
M  V30 10 C 1.682027 0.371046 0.766194 0
M  V30 11 C 0.750081 1.493044 0.810083 0
M  V30 12 C 1.059249 2.742134 1.242036 0
M  V30 13 C 0.180881 3.805284 1.284905 0
M  V30 14 C -1.103263 3.542766 0.847247 0
M  V30 15 N -2.234550 4.278058 0.727852 0
M  V30 16 N -3.217017 3.508036 0.236257 0
M  V30 17 C -2.757029 2.271837 0.026703 0
M  V30 18 C -3.522417 1.147160 -0.500809 0
M  V30 19 N -3.036405 -0.103814 -0.707024 0
M  V30 20 C -4.058773 -0.827687 -1.197281 0
M  V30 21 C -4.215374 -2.146702 -1.605099 0
M  V30 22 C -3.078520 -3.064357 -1.534334 0
M  V30 23 C -2.677653 -3.961187 -2.515944 0
M  V30 24 C -1.574733 -4.755826 -2.279378 0
M  V30 25 C -0.858565 -4.691701 -1.107157 0
M  V30 26 C -1.258293 -3.799274 -0.131590 0
M  V30 27 F -0.531932 -3.770295 0.994007 0
M  V30 28 C -2.368009 -2.992589 -0.357061 0
M  V30 29 C -5.438914 -2.605208 -2.079532 0
M  V30 30 C -6.499729 -1.708479 -2.134431 0
M  V30 31 N -6.395723 -0.419801 -1.749936 0
M  V30 32 C -5.191139 -0.013665 -1.295318 0
M  V30 33 N -4.820890 1.211533 -0.852557 0
M  V30 34 C -1.430120 2.276530 0.405541 0
M  V30 35 N -0.513032 1.287762 0.394173 0
M  V30 36 C 2.987247 0.465806 1.163615 0
M  V30 37 H 5.341622 -2.523160 5.048782 0
M  V30 38 H 5.010773 -0.828648 5.428490 0
M  V30 39 H 6.582105 -1.523345 5.893169 0
M  V30 40 H 7.034621 -1.944940 3.400170 0
M  V30 41 H 6.899865 -0.160698 3.855652 0
M  V30 42 H 6.094981 -0.474436 1.080738 0
M  V30 43 H 3.938239 -2.752105 0.547778 0
M  V30 44 H 0.182298 -1.002714 -0.038864 0
M  V30 45 H 2.067882 2.945630 1.585050 0
M  V30 46 H 0.448059 4.792601 1.632820 0
M  V30 47 H -2.324606 5.290981 0.981176 0
M  V30 48 H -3.285077 -3.959744 -3.412136 0
M  V30 49 H -1.297486 -5.443433 -3.076539 0
M  V30 50 H 0.011353 -5.332459 -0.945140 0
M  V30 51 H -2.606180 -2.326906 0.459413 0
M  V30 52 H -5.512501 -3.636673 -2.384532 0
M  V30 53 H -7.413490 -2.148003 -2.515488 0
M  V30 54 H -5.412424 2.069588 -0.784568 0
M  V30 55 H 3.380467 1.385028 1.528688 0
M  V30 END ATOM
M  V30 BEGIN BOND
M  V30 1 1 1 2
M  V30 2 1 2 3
M  V30 3 2 3 4
M  V30 4 1 3 5
M  V30 5 1 5 6
M  V30 6 2 6 7
M  V30 7 1 7 8
M  V30 8 2 8 9
M  V30 9 1 9 10
M  V30 10 1 10 11
M  V30 11 2 11 12
M  V30 12 1 12 13
M  V30 13 2 13 14
M  V30 14 1 14 15
M  V30 15 1 15 16
M  V30 16 2 16 17
M  V30 17 1 17 18
M  V30 18 2 18 19
M  V30 19 1 19 20
M  V30 20 2 20 21
M  V30 21 1 21 22
M  V30 22 2 22 23
M  V30 23 1 23 24
M  V30 24 2 24 25
M  V30 25 1 25 26
M  V30 26 1 26 27
M  V30 27 2 26 28
M  V30 28 1 21 29
M  V30 29 2 29 30
M  V30 30 1 30 31
M  V30 31 2 31 32
M  V30 32 1 32 33
M  V30 33 1 17 34
M  V30 34 2 34 35
M  V30 35 2 10 36
M  V30 36 1 36 6
M  V30 37 1 35 11
M  V30 38 1 34 14
M  V30 39 1 33 18
M  V30 40 1 32 20
M  V30 41 1 28 22
M  V30 42 1 1 37
M  V30 43 1 1 38
M  V30 44 1 1 39
M  V30 45 1 2 40
M  V30 46 1 2 41
M  V30 47 1 5 42
M  V30 48 1 7 43
M  V30 49 1 9 44
M  V30 50 1 12 45
M  V30 51 1 13 46
M  V30 52 1 15 47
M  V30 53 1 23 48
M  V30 54 1 24 49
M  V30 55 1 25 50
M  V30 56 1 28 51
M  V30 57 1 29 52
M  V30 58 1 30 53
M  V30 59 1 33 54
M  V30 60 1 36 55
M  V30 END BOND
M  V30 END CTAB
M  END
>  <Dataset>  (661) 
ChEMBL_Kinases

>  <Ligand_Instance>  (661) 
nan

>  <PDB_ID>  (661) 
nan

>  <Standardized_SMILES>  (661) 
CCC(=O)Nc1cncc(-c2ccc3[nH]nc(-c4nc5c(-c6cccc(F)c6)ccnc5[nH]4)c3n2)c1

>  <Name>  (661) 
nan

>  <Pocket>  (661) 
nan

>  <ATP_Site>  (661) 
nan

>  <Peripheral>  (661) 
nan

>  <Num_H_Atoms_ProtBoundConf>  (661) 
nan

>  <Num_Resolved_Atoms>  (661) 
nan

>  <Num_Not_Resolved_Atoms>  (661) 
nan

$$$$
CHEMBL3092468
     RDKit          3D

  0  0  0  0  0  0  0  0  0  0999 V3000
M  V30 BEGIN CTAB
M  V30 COUNTS 40 43 0 0 0
M  V30 BEGIN ATOM
M  V30 1 N 3.071856 -7.557753 0.746100 0
M  V30 2 C 2.917482 -6.317836 1.461621 0
M  V30 3 N 3.081864 -6.096386 2.778717 0
M  V30 4 N 2.852122 -4.827736 3.066159 0
M  V30 5 C 2.522391 -4.144096 1.945187 0
M  V30 6 N 2.202475 -2.858139 1.697316 0
M  V30 7 C 1.909245 -2.439801 0.444698 0
M  V30 8 C 1.561962 -1.046298 0.172728 0
M  V30 9 C 1.249367 -0.528661 -1.066240 0
M  V30 10 C 0.932798 0.804990 -1.228137 0
M  V30 11 C 0.915474 1.688474 -0.142722 0
M  V30 12 N 0.606420 3.065709 -0.210239 0
M  V30 13 S -0.424991 3.916870 0.877833 0
M  V30 14 O 0.089207 3.789515 2.292079 0
M  V30 15 O -0.450563 5.366469 0.554262 0
M  V30 16 C -2.021156 3.233575 0.784971 0
M  V30 17 C -2.492943 2.201337 0.016295 0
M  V30 18 C -3.813796 1.818867 0.102002 0
M  V30 19 Cl -4.298016 0.486622 -0.930348 0
M  V30 20 C -4.696696 2.453062 0.953392 0
M  V30 21 C -4.242972 3.490281 1.732336 0
M  V30 22 C -2.907595 3.869003 1.638601 0
M  V30 23 F -2.618695 4.916137 2.479722 0
M  V30 24 C 1.227898 1.175335 1.101229 0
M  V30 25 C 1.539903 -0.160488 1.231899 0
M  V30 26 C 1.956067 -3.393452 -0.551325 0
M  V30 27 N 2.277471 -4.694686 -0.314822 0
M  V30 28 C 2.565208 -5.087809 0.937800 0
M  V30 29 H 2.439252 -8.393836 0.661998 0
M  V30 30 H 3.954331 -7.661125 0.216205 0
M  V30 31 H 2.909210 -4.384965 4.017019 0
M  V30 32 H 1.258967 -1.190753 -1.900626 0
M  V30 33 H 0.687746 1.224218 -2.181168 0
M  V30 34 H 1.066236 3.574491 -1.006765 0
M  V30 35 H -1.724807 1.770947 -0.616672 0
M  V30 36 H -5.686618 2.055628 0.918796 0
M  V30 37 H -4.974816 3.942504 2.372502 0
M  V30 38 H 1.241348 1.778655 1.998484 0
M  V30 39 H 1.785591 -0.546448 2.233842 0
M  V30 40 H 1.735251 -3.140867 -1.578901 0
M  V30 END ATOM
M  V30 BEGIN BOND
M  V30 1 1 1 2
M  V30 2 2 2 3
M  V30 3 1 3 4
M  V30 4 1 4 5
M  V30 5 2 5 6
M  V30 6 1 6 7
M  V30 7 1 7 8
M  V30 8 2 8 9
M  V30 9 1 9 10
M  V30 10 2 10 11
M  V30 11 1 11 12
M  V30 12 1 12 13
M  V30 13 2 13 14
M  V30 14 2 13 15
M  V30 15 1 13 16
M  V30 16 2 16 17
M  V30 17 1 17 18
M  V30 18 1 18 19
M  V30 19 2 18 20
M  V30 20 1 20 21
M  V30 21 2 21 22
M  V30 22 1 22 23
M  V30 23 1 11 24
M  V30 24 2 24 25
M  V30 25 2 7 26
M  V30 26 1 26 27
M  V30 27 2 27 28
M  V30 28 1 28 2
M  V30 29 1 28 5
M  V30 30 1 25 8
M  V30 31 1 22 16
M  V30 32 1 1 29
M  V30 33 1 1 30
M  V30 34 1 4 31
M  V30 35 1 9 32
M  V30 36 1 10 33
M  V30 37 1 12 34
M  V30 38 1 17 35
M  V30 39 1 20 36
M  V30 40 1 21 37
M  V30 41 1 24 38
M  V30 42 1 25 39
M  V30 43 1 26 40
M  V30 END BOND
M  V30 END CTAB
M  END
>  <Dataset>  (662) 
ChEMBL_Kinases

>  <Ligand_Instance>  (662) 
nan

>  <PDB_ID>  (662) 
nan

>  <Standardized_SMILES>  (662) 
Nc1n[nH]c2nc(-c3ccc(NS(=O)(=O)c4cc(Cl)ccc4F)cc3)cnc12

>  <Name>  (662) 
nan

>  <Pocket>  (662) 
nan

>  <ATP_Site>  (662) 
nan

>  <Peripheral>  (662) 
nan

>  <Num_H_Atoms_ProtBoundConf>  (662) 
nan

>  <Num_Resolved_Atoms>  (662) 
nan

>  <Num_Not_Resolved_Atoms>  (662) 
nan

$$$$
CHEMBL4757534
     RDKit          3D

  0  0  0  0  0  0  0  0  0  0999 V3000
M  V30 BEGIN CTAB
M  V30 COUNTS 69 74 0 0 0
M  V30 BEGIN ATOM
M  V30 1 C 6.805527 2.335038 5.565814 0
M  V30 2 N 5.680612 1.801313 4.853060 0
M  V30 3 C 5.487416 0.427175 5.282575 0
M  V30 4 C 4.355850 -0.240505 4.556289 0
M  V30 5 N 4.658790 -0.199463 3.139677 0
M  V30 6 C 3.966455 -0.781450 2.044521 0
M  V30 7 N 4.586455 -1.721868 1.310364 0
M  V30 8 C 3.985090 -2.322796 0.261650 0
M  V30 9 C 2.683978 -1.960671 -0.072980 0
M  V30 10 C 2.036926 -1.001573 0.666782 0
M  V30 11 N 0.823633 -0.435974 0.615845 0
M  V30 12 C 0.587406 0.486192 1.548189 0
M  V30 13 C -0.517135 1.347773 1.905070 0
M  V30 14 N -0.514597 2.236031 2.935578 0
M  V30 15 N -1.657881 2.880481 3.018166 0
M  V30 16 C -2.501410 2.472742 2.056001 0
M  V30 17 C -3.789792 2.832446 1.724968 0
M  V30 18 N -4.308057 2.180541 0.669621 0
M  V30 19 C -3.678272 1.246635 -0.046252 0
M  V30 20 C -4.381821 0.649121 -1.145283 0
M  V30 21 C -5.662373 1.048110 -1.426995 0
M  V30 22 N -6.419467 0.560851 -2.426951 0
M  V30 23 C -5.954411 -0.397853 -3.262435 0
M  V30 24 C -4.670843 -0.820343 -3.006011 0
M  V30 25 N -4.175177 -1.842968 -3.894879 0
M  V30 26 C -4.519276 -3.104163 -3.316641 0
M  V30 27 O -5.141989 -2.978290 -2.223120 0
M  V30 28 C -4.203711 -4.437722 -3.895792 0
M  V30 29 C -2.739313 -4.683135 -4.067955 0
M  V30 30 C -4.833269 -4.444694 -5.294733 0
M  V30 31 C -4.847907 -5.476829 -3.017931 0
M  V30 32 C -3.885823 -0.327103 -1.983082 0
M  V30 33 C -2.394064 0.922026 0.322798 0
M  V30 34 C -1.772066 1.521596 1.377709 0
M  V30 35 C 1.785440 0.491371 2.252581 0
M  V30 36 C 2.679528 -0.409133 1.729443 0
M  V30 37 C 5.847158 0.545766 2.773641 0
M  V30 38 C 5.926800 1.896298 3.437451 0
M  V30 39 H 6.675876 2.263292 6.670139 0
M  V30 40 H 6.954445 3.410637 5.302306 0
M  V30 41 H 7.772331 1.809483 5.350675 0
M  V30 42 H 5.244924 0.488884 6.376802 0
M  V30 43 H 6.381418 -0.194103 5.192483 0
M  V30 44 H 3.371859 0.126751 4.835126 0
M  V30 45 H 4.390334 -1.318429 4.850306 0
M  V30 46 H 4.467679 -3.085341 -0.345241 0
M  V30 47 H 2.162546 -2.409626 -0.898165 0
M  V30 48 H 0.152909 -0.726215 -0.111698 0
M  V30 49 H -1.802469 3.595819 3.763104 0
M  V30 50 H -4.306114 3.587447 2.299716 0
M  V30 51 H -6.188895 1.819144 -0.843388 0
M  V30 52 H -6.544841 -0.797249 -4.064726 0
M  V30 53 H -3.648746 -1.879175 -4.818309 0
M  V30 54 H -2.526709 -5.712378 -3.653919 0
M  V30 55 H -2.109801 -4.011947 -3.449603 0
M  V30 56 H -2.438194 -4.742634 -5.126791 0
M  V30 57 H -4.654962 -3.452468 -5.720663 0
M  V30 58 H -4.425417 -5.287975 -5.888389 0
M  V30 59 H -5.939386 -4.554867 -5.127811 0
M  V30 60 H -5.927176 -5.529924 -3.302910 0
M  V30 61 H -4.340668 -6.444287 -3.182940 0
M  V30 62 H -4.718456 -5.141756 -1.962275 0
M  V30 63 H -2.880139 -0.686920 -1.815376 0
M  V30 64 H -1.902453 0.175071 -0.256632 0
M  V30 65 H 2.059488 1.093858 3.107636 0
M  V30 66 H 6.026403 0.636596 1.704282 0
M  V30 67 H 6.716854 -0.044437 3.188980 0
M  V30 68 H 5.274616 2.663011 3.017553 0
M  V30 69 H 6.983170 2.248987 3.247302 0
M  V30 END ATOM
M  V30 BEGIN BOND
M  V30 1 1 1 2
M  V30 2 1 2 3
M  V30 3 1 3 4
M  V30 4 1 4 5
M  V30 5 1 5 6
M  V30 6 2 6 7
M  V30 7 1 7 8
M  V30 8 2 8 9
M  V30 9 1 9 10
M  V30 10 1 10 11
M  V30 11 1 11 12
M  V30 12 1 12 13
M  V30 13 2 13 14
M  V30 14 1 14 15
M  V30 15 1 15 16
M  V30 16 2 16 17
M  V30 17 1 17 18
M  V30 18 2 18 19
M  V30 19 1 19 20
M  V30 20 2 20 21
M  V30 21 1 21 22
M  V30 22 2 22 23
M  V30 23 1 23 24
M  V30 24 1 24 25
M  V30 25 1 25 26
M  V30 26 2 26 27
M  V30 27 1 26 28
M  V30 28 1 28 29
M  V30 29 1 28 30
M  V30 30 1 28 31
M  V30 31 2 24 32
M  V30 32 1 19 33
M  V30 33 2 33 34
M  V30 34 2 12 35
M  V30 35 1 35 36
M  V30 36 1 5 37
M  V30 37 1 37 38
M  V30 38 1 38 2
M  V30 39 1 36 6
M  V30 40 2 36 10
M  V30 41 1 34 13
M  V30 42 1 34 16
M  V30 43 1 32 20
M  V30 44 1 1 39
M  V30 45 1 1 40
M  V30 46 1 1 41
M  V30 47 1 3 42
M  V30 48 1 3 43
M  V30 49 1 4 44
M  V30 50 1 4 45
M  V30 51 1 8 46
M  V30 52 1 9 47
M  V30 53 1 11 48
M  V30 54 1 15 49
M  V30 55 1 17 50
M  V30 56 1 21 51
M  V30 57 1 23 52
M  V30 58 1 25 53
M  V30 59 1 29 54
M  V30 60 1 29 55
M  V30 61 1 29 56
M  V30 62 1 30 57
M  V30 63 1 30 58
M  V30 64 1 30 59
M  V30 65 1 31 60
M  V30 66 1 31 61
M  V30 67 1 31 62
M  V30 68 1 32 63
M  V30 69 1 33 64
M  V30 70 1 35 65
M  V30 71 1 37 66
M  V30 72 1 37 67
M  V30 73 1 38 68
M  V30 74 1 38 69
M  V30 END BOND
M  V30 END CTAB
M  END
>  <Dataset>  (663) 
ChEMBL_Kinases

>  <Ligand_Instance>  (663) 
nan

>  <PDB_ID>  (663) 
nan

>  <Standardized_SMILES>  (663) 
CN1CCN(c2nccc3[nH]c(-c4n[nH]c5cnc(-c6cncc(NC(=O)C(C)(C)C)c6)cc45)cc23)CC1

>  <Name>  (663) 
nan

>  <Pocket>  (663) 
nan

>  <ATP_Site>  (663) 
nan

>  <Peripheral>  (663) 
nan

>  <Num_H_Atoms_ProtBoundConf>  (663) 
nan

>  <Num_Resolved_Atoms>  (663) 
nan

>  <Num_Not_Resolved_Atoms>  (663) 
nan

$$$$
CHEMBL189352
     RDKit          3D

  0  0  0  0  0  0  0  0  0  0999 V3000
M  V30 BEGIN CTAB
M  V30 COUNTS 39 42 0 0 0
M  V30 BEGIN ATOM
M  V30 1 C 1.356070 -7.578688 0.704144 0
M  V30 2 O 1.450888 -6.820925 -0.487420 0
M  V30 3 C 1.138518 -5.456230 -0.385687 0
M  V30 4 C 1.224380 -4.685936 -1.551289 0
M  V30 5 C 0.918804 -3.347011 -1.456054 0
M  V30 6 C 0.545465 -2.792567 -0.268025 0
M  V30 7 C 0.227808 -1.499682 -0.039306 0
M  V30 8 C 0.135061 -0.255653 -0.761196 0
M  V30 9 C 0.166723 -0.024857 -2.106638 0
M  V30 10 C 0.048347 1.195400 -2.723775 0
M  V30 11 N -0.113952 2.262169 -1.937600 0
M  V30 12 C -0.155865 2.114770 -0.594472 0
M  V30 13 N -0.336628 3.286500 0.184781 0
M  V30 14 C -0.376082 3.444159 1.597581 0
M  V30 15 C -0.128086 2.446137 2.513112 0
M  V30 16 C -0.168933 2.569059 3.885354 0
M  V30 17 C -0.488465 3.811328 4.396792 0
M  V30 18 C -0.537964 3.964058 5.826466 0
M  V30 19 N -0.568564 4.083583 6.985031 0
M  V30 20 C -0.747184 4.851188 3.528264 0
M  V30 21 C -0.688800 4.658022 2.167102 0
M  V30 22 N -0.030960 0.882140 -0.088607 0
M  V30 23 C -0.053008 -1.530990 1.332654 0
M  V30 24 N 0.111820 -2.782793 1.787795 0
M  V30 25 N 0.483920 -3.583240 0.807313 0
M  V30 26 N 0.771547 -4.871102 0.745103 0
M  V30 27 H 1.745512 -7.010573 1.585917 0
M  V30 28 H 2.000981 -8.475870 0.609198 0
M  V30 29 H 0.318624 -7.873211 0.950825 0
M  V30 30 H 1.523194 -5.175790 -2.457918 0
M  V30 31 H 1.007936 -2.815639 -2.355405 0
M  V30 32 H 0.278705 -0.826951 -2.785087 0
M  V30 33 H 0.081875 1.310378 -3.795589 0
M  V30 34 H -0.464191 4.203263 -0.343644 0
M  V30 35 H 0.130310 1.462405 2.165106 0
M  V30 36 H 0.040739 1.728247 4.544068 0
M  V30 37 H -0.997956 5.824493 3.918933 0
M  V30 38 H -0.905414 5.522184 1.541431 0
M  V30 39 H -0.358212 -0.852577 2.106854 0
M  V30 END ATOM
M  V30 BEGIN BOND
M  V30 1 1 1 2
M  V30 2 1 2 3
M  V30 3 1 3 4
M  V30 4 2 4 5
M  V30 5 1 5 6
M  V30 6 2 6 7
M  V30 7 1 7 8
M  V30 8 2 8 9
M  V30 9 1 9 10
M  V30 10 2 10 11
M  V30 11 1 11 12
M  V30 12 1 12 13
M  V30 13 1 13 14
M  V30 14 2 14 15
M  V30 15 1 15 16
M  V30 16 2 16 17
M  V30 17 1 17 18
M  V30 18 3 18 19
M  V30 19 1 17 20
M  V30 20 2 20 21
M  V30 21 2 12 22
M  V30 22 1 7 23
M  V30 23 2 23 24
M  V30 24 1 24 25
M  V30 25 1 25 26
M  V30 26 2 26 3
M  V30 27 1 25 6
M  V30 28 1 22 8
M  V30 29 1 21 14
M  V30 30 1 1 27
M  V30 31 1 1 28
M  V30 32 1 1 29
M  V30 33 1 4 30
M  V30 34 1 5 31
M  V30 35 1 9 32
M  V30 36 1 10 33
M  V30 37 1 13 34
M  V30 38 1 15 35
M  V30 39 1 16 36
M  V30 40 1 20 37
M  V30 41 1 21 38
M  V30 42 1 23 39
M  V30 END BOND
M  V30 END CTAB
M  END
>  <Dataset>  (664) 
ChEMBL_Kinases

>  <Ligand_Instance>  (664) 
nan

>  <PDB_ID>  (664) 
nan

>  <Standardized_SMILES>  (664) 
COc1ccc2c(-c3ccnc(Nc4ccc(C#N)cc4)n3)cnn2n1

>  <Name>  (664) 
nan

>  <Pocket>  (664) 
nan

>  <ATP_Site>  (664) 
nan

>  <Peripheral>  (664) 
nan

>  <Num_H_Atoms_ProtBoundConf>  (664) 
nan

>  <Num_Resolved_Atoms>  (664) 
nan

>  <Num_Not_Resolved_Atoms>  (664) 
nan

$$$$
CHEMBL4758259
     RDKit          3D

  0  0  0  0  0  0  0  0  0  0999 V3000
M  V30 BEGIN CTAB
M  V30 COUNTS 62 67 0 0 0
M  V30 BEGIN ATOM
M  V30 1 O 0.966953 3.593502 3.278668 0
M  V30 2 C 0.482132 2.483982 2.854153 0
M  V30 3 N 1.461316 1.535634 3.135970 0
M  V30 4 C 2.675479 1.924080 3.767643 0
M  V30 5 C 2.959453 1.983134 5.117393 0
M  V30 6 C 4.217140 2.392215 5.525261 0
M  V30 7 C 5.196033 2.743361 4.607657 0
M  V30 8 C 4.902098 2.681056 3.255583 0
M  V30 9 C 3.647427 2.273497 2.827073 0
M  V30 10 O 5.940889 3.049718 2.434055 0
M  V30 11 C 7.295603 3.087830 2.829372 0
M  V30 12 C 7.396707 3.708726 4.200517 0
M  V30 13 O 6.450500 3.149220 5.098390 0
M  V30 14 C -0.825189 2.499343 2.252078 0
M  V30 15 N -1.457405 3.702128 2.175057 0
M  V30 16 N -2.636383 3.532555 1.598301 0
M  V30 17 C -2.853393 2.253989 1.268299 0
M  V30 18 C -3.879502 1.559732 0.668232 0
M  V30 19 C -3.681401 0.199877 0.515957 0
M  V30 20 C -2.536798 -0.458465 0.928215 0
M  V30 21 C -2.340209 -1.898659 0.760960 0
M  V30 22 C -1.573941 -2.552372 1.707446 0
M  V30 23 N -1.387211 -3.875915 1.561485 0
M  V30 24 C -1.936170 -4.554025 0.512354 0
M  V30 25 C -2.709822 -3.906698 -0.447632 0
M  V30 26 C -3.225079 -4.794147 -1.502644 0
M  V30 27 N -2.337249 -4.964703 -2.623509 0
M  V30 28 C -2.002006 -3.768710 -3.327971 0
M  V30 29 C -2.912517 -3.505271 -4.506135 0
M  V30 30 C -2.818301 -4.574532 -5.551276 0
M  V30 31 C -2.335137 -5.843591 -4.911910 0
M  V30 32 C -2.926939 -5.953026 -3.509145 0
M  V30 33 C -2.909238 -2.550892 -0.310024 0
M  V30 34 C -1.546192 0.292920 1.522097 0
M  V30 35 C -1.711310 1.643742 1.687977 0
M  V30 36 H 1.186729 0.579010 2.836136 0
M  V30 37 H 2.142232 1.693540 5.748745 0
M  V30 38 H 4.369521 2.414919 6.591208 0
M  V30 39 H 3.566977 2.274852 1.761136 0
M  V30 40 H 7.770630 2.086759 2.861465 0
M  V30 41 H 7.844936 3.732733 2.109291 0
M  V30 42 H 8.402781 3.685657 4.613712 0
M  V30 43 H 7.071009 4.779572 4.081497 0
M  V30 44 H -3.289258 4.344199 1.441727 0
M  V30 45 H -4.750900 2.084941 0.358668 0
M  V30 46 H -4.475683 -0.392267 0.041554 0
M  V30 47 H -1.107053 -2.071089 2.568897 0
M  V30 48 H -1.703384 -5.601247 0.525692 0
M  V30 49 H -3.493784 -5.798023 -1.131992 0
M  V30 50 H -4.150470 -4.325930 -1.896992 0
M  V30 51 H -0.973011 -3.906649 -3.719045 0
M  V30 52 H -1.978005 -2.896355 -2.682735 0
M  V30 53 H -2.581352 -2.517545 -4.934770 0
M  V30 54 H -3.963665 -3.381802 -4.217267 0
M  V30 55 H -2.064699 -4.273459 -6.318935 0
M  V30 56 H -3.787378 -4.784403 -6.068297 0
M  V30 57 H -2.720130 -6.710501 -5.479671 0
M  V30 58 H -1.222061 -5.863213 -4.790483 0
M  V30 59 H -2.759042 -6.997604 -3.178455 0
M  V30 60 H -4.021044 -5.767997 -3.626239 0
M  V30 61 H -3.504535 -2.080032 -1.051392 0
M  V30 62 H -0.660878 -0.219547 1.840307 0
M  V30 END ATOM
M  V30 BEGIN BOND
M  V30 1 2 1 2
M  V30 2 1 2 3
M  V30 3 1 3 4
M  V30 4 2 4 5
M  V30 5 1 5 6
M  V30 6 2 6 7
M  V30 7 1 7 8
M  V30 8 2 8 9
M  V30 9 1 8 10
M  V30 10 1 10 11
M  V30 11 1 11 12
M  V30 12 1 12 13
M  V30 13 1 2 14
M  V30 14 2 14 15
M  V30 15 1 15 16
M  V30 16 1 16 17
M  V30 17 2 17 18
M  V30 18 1 18 19
M  V30 19 2 19 20
M  V30 20 1 20 21
M  V30 21 2 21 22
M  V30 22 1 22 23
M  V30 23 2 23 24
M  V30 24 1 24 25
M  V30 25 1 25 26
M  V30 26 1 26 27
M  V30 27 1 27 28
M  V30 28 1 28 29
M  V30 29 1 29 30
M  V30 30 1 30 31
M  V30 31 1 31 32
M  V30 32 2 25 33
M  V30 33 1 20 34
M  V30 34 2 34 35
M  V30 35 1 9 4
M  V30 36 1 35 14
M  V30 37 1 13 7
M  V30 38 1 35 17
M  V30 39 1 33 21
M  V30 40 1 32 27
M  V30 41 1 3 36
M  V30 42 1 5 37
M  V30 43 1 6 38
M  V30 44 1 9 39
M  V30 45 1 11 40
M  V30 46 1 11 41
M  V30 47 1 12 42
M  V30 48 1 12 43
M  V30 49 1 16 44
M  V30 50 1 18 45
M  V30 51 1 19 46
M  V30 52 1 22 47
M  V30 53 1 24 48
M  V30 54 1 26 49
M  V30 55 1 26 50
M  V30 56 1 28 51
M  V30 57 1 28 52
M  V30 58 1 29 53
M  V30 59 1 29 54
M  V30 60 1 30 55
M  V30 61 1 30 56
M  V30 62 1 31 57
M  V30 63 1 31 58
M  V30 64 1 32 59
M  V30 65 1 32 60
M  V30 66 1 33 61
M  V30 67 1 34 62
M  V30 END BOND
M  V30 END CTAB
M  END
>  <Dataset>  (665) 
ChEMBL_Kinases

>  <Ligand_Instance>  (665) 
nan

>  <PDB_ID>  (665) 
nan

>  <Standardized_SMILES>  (665) 
O=C(Nc1ccc2c(c1)OCCO2)c1n[nH]c2ccc(-c3cncc(CN4CCCCC4)c3)cc12

>  <Name>  (665) 
nan

>  <Pocket>  (665) 
nan

>  <ATP_Site>  (665) 
nan

>  <Peripheral>  (665) 
nan

>  <Num_H_Atoms_ProtBoundConf>  (665) 
nan

>  <Num_Resolved_Atoms>  (665) 
nan

>  <Num_Not_Resolved_Atoms>  (665) 
nan

$$$$
CHEMBL4758246
     RDKit          3D

  0  0  0  0  0  0  0  0  0  0999 V3000
M  V30 BEGIN CTAB
M  V30 COUNTS 76 82 0 0 0
M  V30 BEGIN ATOM
M  V30 1 C -1.644333 1.149353 5.656724 0
M  V30 2 C -0.326329 1.009828 5.863686 0
M  V30 3 C 0.087767 2.020804 4.896531 0
M  V30 4 O -0.965503 2.504211 4.366905 0
M  V30 5 N 1.437289 2.368186 4.628987 0
M  V30 6 C 1.775527 3.377291 3.659030 0
M  V30 7 C 1.896244 4.698789 4.033134 0
M  V30 8 C 2.219652 5.628031 3.072014 0
M  V30 9 C 2.422877 5.268287 1.758236 0
M  V30 10 N 2.741403 6.028883 0.689827 0
M  V30 11 C 2.819330 5.183624 -0.348704 0
M  V30 12 O 3.100084 5.591120 -1.489013 0
M  V30 13 N 2.561528 3.932506 0.037097 0
M  V30 14 C 2.535381 2.723827 -0.743178 0
M  V30 15 C 1.233565 1.975924 -0.602340 0
M  V30 16 C 0.783428 1.525149 -1.994082 0
M  V30 17 N 1.871190 0.787927 -2.618412 0
M  V30 18 C 2.010365 -0.575236 -3.036276 0
M  V30 19 O 3.005940 -1.099487 -3.570213 0
M  V30 20 C 0.857295 -1.448368 -2.811111 0
M  V30 21 C 1.246647 -2.566409 -2.067991 0
M  V30 22 C 0.312388 -3.549693 -1.723400 0
M  V30 23 C -0.996184 -3.365281 -2.147020 0
M  V30 24 C -1.978990 -4.382892 -1.793844 0
M  V30 25 N -2.685196 -5.152377 -2.670660 0
M  V30 26 C -3.567215 -6.061842 -2.214868 0
M  V30 27 C -4.274806 -6.834062 -3.113285 0
M  V30 28 C -5.191667 -7.781910 -2.695231 0
M  V30 29 N -5.379332 -7.934376 -1.362886 0
M  V30 30 C -4.722872 -7.214848 -0.435981 0
M  V30 31 O -4.914607 -7.374905 0.804181 0
M  V30 32 C -3.808754 -6.269691 -0.851515 0
M  V30 33 C -3.074570 -5.471084 0.014571 0
M  V30 34 C -2.165349 -4.533508 -0.450558 0
M  V30 35 C -1.524853 -3.828016 0.643056 0
M  V30 36 C -0.779181 -4.574233 1.562213 0
M  V30 37 C -0.122166 -4.016843 2.645509 0
M  V30 38 C -0.209465 -2.647004 2.826644 0
M  V30 39 C -0.932986 -1.875383 1.945410 0
M  V30 40 C -1.582633 -2.469431 0.864555 0
M  V30 41 C -1.374408 -2.259217 -2.880631 0
M  V30 42 C -0.450809 -1.290902 -3.219126 0
M  V30 43 C 3.049970 1.593862 -2.861840 0
M  V30 44 C 2.878587 2.942917 -2.196987 0
M  V30 45 C 2.309053 3.953943 1.354173 0
M  V30 46 C 1.986061 3.055969 2.336883 0
M  V30 47 H -2.722083 1.095666 5.651667 0
M  V30 48 H -2.535452 0.663220 6.085048 0
M  V30 49 H -0.032429 0.266780 6.607003 0
M  V30 50 H 2.094238 1.811173 5.209457 0
M  V30 51 H 1.732100 4.959616 5.072769 0
M  V30 52 H 2.309572 6.665159 3.390858 0
M  V30 53 H 2.890750 7.075976 0.708780 0
M  V30 54 H 3.335532 2.066425 -0.342930 0
M  V30 55 H 1.356484 1.036018 -0.025752 0
M  V30 56 H 0.435496 2.564277 -0.149417 0
M  V30 57 H 0.501669 2.417543 -2.584313 0
M  V30 58 H -0.129629 0.937768 -1.844003 0
M  V30 59 H 2.235819 -2.794410 -1.695941 0
M  V30 60 H 0.549177 -4.435467 -1.152271 0
M  V30 61 H -4.097428 -6.683236 -4.179236 0
M  V30 62 H -5.743950 -8.384318 -3.395463 0
M  V30 63 H -6.056527 -8.632370 -0.976677 0
M  V30 64 H -3.311205 -5.684091 1.068293 0
M  V30 65 H -0.698490 -5.659881 1.435853 0
M  V30 66 H 0.440657 -4.659257 3.321376 0
M  V30 67 H 0.283140 -2.163830 3.654039 0
M  V30 68 H -0.989026 -0.811050 2.103310 0
M  V30 69 H -2.166098 -1.871060 0.148317 0
M  V30 70 H -2.382748 -2.090269 -3.222557 0
M  V30 71 H -0.611053 -0.383668 -3.785507 0
M  V30 72 H 3.238565 1.709206 -3.949838 0
M  V30 73 H 3.958115 1.135247 -2.395554 0
M  V30 74 H 2.154343 3.600988 -2.710567 0
M  V30 75 H 3.841120 3.508496 -2.210787 0
M  V30 76 H 1.882578 2.016091 2.091284 0
M  V30 END ATOM
M  V30 BEGIN BOND
M  V30 1 2 1 2
M  V30 2 1 2 3
M  V30 3 2 3 4
M  V30 4 1 3 5
M  V30 5 1 5 6
M  V30 6 2 6 7
M  V30 7 1 7 8
M  V30 8 2 8 9
M  V30 9 1 9 10
M  V30 10 1 10 11
M  V30 11 2 11 12
M  V30 12 1 11 13
M  V30 13 1 13 14
M  V30 14 1 14 15
M  V30 15 1 15 16
M  V30 16 1 16 17
M  V30 17 1 17 18
M  V30 18 2 18 19
M  V30 19 1 18 20
M  V30 20 2 20 21
M  V30 21 1 21 22
M  V30 22 2 22 23
M  V30 23 1 23 24
M  V30 24 2 24 25
M  V30 25 1 25 26
M  V30 26 1 26 27
M  V30 27 2 27 28
M  V30 28 1 28 29
M  V30 29 1 29 30
M  V30 30 2 30 31
M  V30 31 1 30 32
M  V30 32 1 32 33
M  V30 33 2 33 34
M  V30 34 1 34 35
M  V30 35 2 35 36
M  V30 36 1 36 37
M  V30 37 2 37 38
M  V30 38 1 38 39
M  V30 39 2 39 40
M  V30 40 1 23 41
M  V30 41 2 41 42
M  V30 42 1 17 43
M  V30 43 1 43 44
M  V30 44 1 13 45
M  V30 45 2 45 46
M  V30 46 1 46 6
M  V30 47 1 45 9
M  V30 48 1 44 14
M  V30 49 1 42 20
M  V30 50 1 34 24
M  V30 51 1 40 35
M  V30 52 2 32 26
M  V30 53 1 1 47
M  V30 54 1 1 48
M  V30 55 1 2 49
M  V30 56 1 5 50
M  V30 57 1 7 51
M  V30 58 1 8 52
M  V30 59 1 10 53
M  V30 60 1 14 54
M  V30 61 1 15 55
M  V30 62 1 15 56
M  V30 63 1 16 57
M  V30 64 1 16 58
M  V30 65 1 21 59
M  V30 66 1 22 60
M  V30 67 1 27 61
M  V30 68 1 28 62
M  V30 69 1 29 63
M  V30 70 1 33 64
M  V30 71 1 36 65
M  V30 72 1 37 66
M  V30 73 1 38 67
M  V30 74 1 39 68
M  V30 75 1 40 69
M  V30 76 1 41 70
M  V30 77 1 42 71
M  V30 78 1 43 72
M  V30 79 1 43 73
M  V30 80 1 44 74
M  V30 81 1 44 75
M  V30 82 1 46 76
M  V30 END BOND
M  V30 END CTAB
M  END
>  <Dataset>  (666) 
ChEMBL_Kinases

>  <Ligand_Instance>  (666) 
nan

>  <PDB_ID>  (666) 
nan

>  <Standardized_SMILES>  (666) 
C=CC(=O)Nc1ccc2[nH]c(=O)n(C3CCN(C(=O)c4ccc(-c5nc6cc[nH]c(=O)c6cc5-c5ccccc5)cc4)CC3)c2c1

>  <Name>  (666) 
nan

>  <Pocket>  (666) 
nan

>  <ATP_Site>  (666) 
nan

>  <Peripheral>  (666) 
nan

>  <Num_H_Atoms_ProtBoundConf>  (666) 
nan

>  <Num_Resolved_Atoms>  (666) 
nan

>  <Num_Not_Resolved_Atoms>  (666) 
nan

$$$$
CHEMBL4758175
     RDKit          3D

  0  0  0  0  0  0  0  0  0  0999 V3000
M  V30 BEGIN CTAB
M  V30 COUNTS 48 53 0 0 0
M  V30 BEGIN ATOM
M  V30 1 N 3.051279 -3.254390 -1.275494 0
M  V30 2 C 3.295449 -1.862254 -1.567027 0
M  V30 3 C 4.036082 -1.603268 -2.700807 0
M  V30 4 N 4.235430 -0.272562 -2.926710 0
M  V30 5 C 3.739182 0.660645 -2.097354 0
M  V30 6 C 2.992843 0.365350 -0.957136 0
M  V30 7 C 2.455539 1.381880 -0.061656 0
M  V30 8 C 3.203676 2.527924 0.055016 0
M  V30 9 C 2.757972 3.556646 0.893522 0
M  V30 10 C 1.552706 3.323773 1.561493 0
M  V30 11 N 0.889377 4.128105 2.422755 0
M  V30 12 N -0.228375 3.513561 2.829965 0
M  V30 13 C -0.311308 2.305541 2.244096 0
M  V30 14 C -1.384660 1.325279 2.426972 0
M  V30 15 N -1.469213 0.128647 1.850754 0
M  V30 16 C -2.573452 -0.543911 2.216165 0
M  V30 17 C -3.249778 -1.732177 2.031611 0
M  V30 18 C -2.573302 -2.652273 1.104670 0
M  V30 19 C -2.766828 -2.705752 -0.257475 0
M  V30 20 C -2.075235 -3.613127 -1.033843 0
M  V30 21 C -1.174572 -4.479405 -0.424050 0
M  V30 22 C -0.985290 -4.419351 0.947899 0
M  V30 23 C -1.682888 -3.503293 1.734947 0
M  V30 24 F -1.421054 -3.528765 3.075142 0
M  V30 25 C -4.425148 -2.022212 2.646367 0
M  V30 26 C -5.010904 -1.106446 3.511693 0
M  V30 27 N -4.372069 0.058920 3.708593 0
M  V30 28 C -3.209459 0.340085 3.097536 0
M  V30 29 N -2.462449 1.474649 3.208846 0
M  V30 30 C 0.800957 2.164356 1.439988 0
M  V30 31 C 1.274264 1.174838 0.604141 0
M  V30 32 C 2.751925 -0.972182 -0.667232 0
M  V30 33 H 3.438560 -4.197542 -1.017147 0
M  V30 34 H 2.118976 -3.752925 -1.264018 0
M  V30 35 H 4.399579 -2.413411 -3.316544 0
M  V30 36 H 3.931568 1.713200 -2.329653 0
M  V30 37 H 4.129330 2.705931 -0.459090 0
M  V30 38 H 3.291680 4.481038 1.033964 0
M  V30 39 H 1.098404 5.084124 2.792624 0
M  V30 40 H -3.476942 -2.006625 -0.659894 0
M  V30 41 H -2.245287 -3.638025 -2.115510 0
M  V30 42 H -0.683849 -5.146097 -1.091691 0
M  V30 43 H -0.263508 -5.133435 1.335389 0
M  V30 44 H -4.915122 -2.958260 2.472237 0
M  V30 45 H -5.945139 -1.345781 3.996026 0
M  V30 46 H -2.682667 2.319447 3.798174 0
M  V30 47 H 0.694201 0.256168 0.496981 0
M  V30 48 H 2.193544 -1.293852 0.179492 0
M  V30 END ATOM
M  V30 BEGIN BOND
M  V30 1 1 1 2
M  V30 2 2 2 3
M  V30 3 1 3 4
M  V30 4 2 4 5
M  V30 5 1 5 6
M  V30 6 1 6 7
M  V30 7 2 7 8
M  V30 8 1 8 9
M  V30 9 2 9 10
M  V30 10 1 10 11
M  V30 11 1 11 12
M  V30 12 2 12 13
M  V30 13 1 13 14
M  V30 14 2 14 15
M  V30 15 1 15 16
M  V30 16 2 16 17
M  V30 17 1 17 18
M  V30 18 2 18 19
M  V30 19 1 19 20
M  V30 20 2 20 21
M  V30 21 1 21 22
M  V30 22 2 22 23
M  V30 23 1 23 24
M  V30 24 1 17 25
M  V30 25 2 25 26
M  V30 26 1 26 27
M  V30 27 2 27 28
M  V30 28 1 28 29
M  V30 29 1 13 30
M  V30 30 2 30 31
M  V30 31 2 6 32
M  V30 32 1 32 2
M  V30 33 1 31 7
M  V30 34 1 30 10
M  V30 35 1 29 14
M  V30 36 1 28 16
M  V30 37 1 23 18
M  V30 38 1 1 33
M  V30 39 1 1 34
M  V30 40 1 3 35
M  V30 41 1 5 36
M  V30 42 1 8 37
M  V30 43 1 9 38
M  V30 44 1 11 39
M  V30 45 1 19 40
M  V30 46 1 20 41
M  V30 47 1 21 42
M  V30 48 1 22 43
M  V30 49 1 25 44
M  V30 50 1 26 45
M  V30 51 1 29 46
M  V30 52 1 31 47
M  V30 53 1 32 48
M  V30 END BOND
M  V30 END CTAB
M  END
>  <Dataset>  (667) 
ChEMBL_Kinases

>  <Ligand_Instance>  (667) 
nan

>  <PDB_ID>  (667) 
nan

>  <Standardized_SMILES>  (667) 
Nc1cncc(-c2ccc3[nH]nc(-c4nc5c(-c6ccccc6F)ccnc5[nH]4)c3c2)c1

>  <Name>  (667) 
nan

>  <Pocket>  (667) 
nan

>  <ATP_Site>  (667) 
nan

>  <Peripheral>  (667) 
nan

>  <Num_H_Atoms_ProtBoundConf>  (667) 
nan

>  <Num_Resolved_Atoms>  (667) 
nan

>  <Num_Not_Resolved_Atoms>  (667) 
nan

$$$$
CHEMBL4758168
     RDKit          3D

  0  0  0  0  0  0  0  0  0  0999 V3000
M  V30 BEGIN CTAB
M  V30 COUNTS 75 78 0 0 0
M  V30 BEGIN ATOM
M  V30 1 C 5.363891 -0.184293 8.400691 0
M  V30 2 N 6.540634 -0.408532 7.585739 0
M  V30 3 C 6.288229 -1.646388 6.847988 0
M  V30 4 C 6.774623 0.693975 6.675426 0
M  V30 5 C 5.748059 0.797395 5.618592 0
M  V30 6 C 6.073913 0.705047 4.336940 0
M  V30 7 C 5.011990 0.815373 3.326661 0
M  V30 8 O 3.833562 0.990383 3.711105 0
M  V30 9 N 5.279953 0.731099 1.939556 0
M  V30 10 C 4.399108 0.811666 0.846202 0
M  V30 11 C 4.911244 0.691312 -0.425699 0
M  V30 12 C 4.105768 0.753347 -1.543442 0
M  V30 13 C 2.718310 0.943001 -1.445245 0
M  V30 14 C 2.023198 0.978411 -2.727406 0
M  V30 15 O 1.894205 1.884734 -3.616261 0
M  V30 16 N 1.328743 -0.226193 -3.116294 0
M  V30 17 C 0.558445 -0.519222 -4.308713 0
M  V30 18 C -0.633418 -1.329478 -3.888934 0
M  V30 19 C -0.238764 -1.844198 -2.548097 0 CFG=1
M  V30 20 N -0.435197 -3.254413 -2.349482 0
M  V30 21 C -1.679221 -3.938614 -2.455562 0
M  V30 22 N -2.110553 -5.131381 -2.328294 0
M  V30 23 C -3.376105 -5.397230 -2.513423 0
M  V30 24 C -4.285920 -4.414663 -2.848667 0
M  V30 25 S -5.940253 -4.994261 -3.047158 0
M  V30 26 C -6.997478 -3.628411 -3.511437 0
M  V30 27 C -7.151517 -2.589935 -2.464990 0
M  V30 28 N -8.059673 -2.545688 -1.462086 0
M  V30 29 C -7.804504 -1.408565 -0.765933 0
M  V30 30 C -6.735646 -0.776014 -1.365103 0
M  V30 31 C -6.070161 0.489805 -0.995952 0
M  V30 32 C -4.924994 0.309521 -0.039687 0
M  V30 33 C -5.529017 1.197814 -2.246256 0
M  V30 34 C -7.065115 1.452713 -0.332804 0
M  V30 35 O -6.389518 -1.524222 -2.370081 0
M  V30 36 S -3.232455 -2.947876 -2.908775 0
M  V30 37 C 1.220779 -1.466479 -2.404322 0
M  V30 38 C 2.196110 1.065446 -0.177129 0
M  V30 39 C 3.042996 0.995930 0.906530 0
M  V30 40 H 5.628485 0.588506 9.171301 0
M  V30 41 H 4.469242 0.107717 7.817766 0
M  V30 42 H 5.129283 -1.144899 8.908350 0
M  V30 43 H 5.877493 -2.363932 7.590369 0
M  V30 44 H 7.164315 -2.003114 6.297609 0
M  V30 45 H 5.498151 -1.400831 6.085371 0
M  V30 46 H 7.778545 0.532885 6.224009 0
M  V30 47 H 6.829352 1.660624 7.220154 0
M  V30 48 H 4.709528 0.949597 5.884082 0
M  V30 49 H 7.111936 0.554262 4.022948 0
M  V30 50 H 6.298022 0.586855 1.752612 0
M  V30 51 H 5.993193 0.542687 -0.564575 0
M  V30 52 H 4.597015 0.649897 -2.499660 0
M  V30 53 H 1.171689 -1.055747 -5.085928 0
M  V30 54 H 0.219084 0.465217 -4.707651 0
M  V30 55 H -1.502726 -0.640245 -3.763160 0
M  V30 56 H -0.902009 -2.123601 -4.624742 0
M  V30 57 H -0.819636 -1.337245 -1.738314 0
M  V30 58 H 0.312840 -3.906231 -2.108796 0
M  V30 59 H -3.456197 -6.494437 -2.335555 0
M  V30 60 H -8.006735 -3.988588 -3.848474 0
M  V30 61 H -6.559942 -3.170656 -4.446638 0
M  V30 62 H -8.299947 -0.992263 0.119395 0
M  V30 63 H -4.802214 1.206277 0.638688 0
M  V30 64 H -5.020725 -0.565447 0.627815 0
M  V30 65 H -3.942114 0.285651 -0.597226 0
M  V30 66 H -6.371853 1.728347 -2.762893 0
M  V30 67 H -5.066696 0.453760 -2.918630 0
M  V30 68 H -4.784920 1.968878 -1.973081 0
M  V30 69 H -8.068629 1.372512 -0.758360 0
M  V30 70 H -6.614872 2.456729 -0.462014 0
M  V30 71 H -7.022760 1.239638 0.773663 0
M  V30 72 H 1.842799 -2.289334 -2.818518 0
M  V30 73 H 1.426596 -1.393996 -1.314900 0
M  V30 74 H 1.136726 1.207775 -0.145262 0
M  V30 75 H 2.549551 1.100723 1.852896 0
M  V30 END ATOM
M  V30 BEGIN BOND
M  V30 1 1 1 2
M  V30 2 1 2 3
M  V30 3 1 2 4
M  V30 4 1 4 5
M  V30 5 2 5 6
M  V30 6 1 6 7
M  V30 7 2 7 8
M  V30 8 1 7 9
M  V30 9 1 9 10
M  V30 10 2 10 11
M  V30 11 1 11 12
M  V30 12 2 12 13
M  V30 13 1 13 14
M  V30 14 2 14 15
M  V30 15 1 14 16
M  V30 16 1 16 17
M  V30 17 1 17 18
M  V30 18 1 18 19
M  V30 19 1 19 20
M  V30 20 1 20 21
M  V30 21 2 21 22
M  V30 22 1 22 23
M  V30 23 2 23 24
M  V30 24 1 24 25
M  V30 25 1 25 26
M  V30 26 1 26 27
M  V30 27 2 27 28
M  V30 28 1 28 29
M  V30 29 2 29 30
M  V30 30 1 30 31
M  V30 31 1 31 32
M  V30 32 1 31 33
M  V30 33 1 31 34
M  V30 34 1 30 35
M  V30 35 1 24 36
M  V30 36 1 19 37
M  V30 37 1 13 38
M  V30 38 2 38 39
M  V30 39 1 39 10
M  V30 40 1 37 16
M  V30 41 1 36 21
M  V30 42 1 35 27
M  V30 43 1 1 40
M  V30 44 1 1 41
M  V30 45 1 1 42
M  V30 46 1 3 43
M  V30 47 1 3 44
M  V30 48 1 3 45
M  V30 49 1 4 46
M  V30 50 1 4 47
M  V30 51 1 5 48
M  V30 52 1 6 49
M  V30 53 1 9 50
M  V30 54 1 11 51
M  V30 55 1 12 52
M  V30 56 1 17 53
M  V30 57 1 17 54
M  V30 58 1 18 55
M  V30 59 1 18 56
M  V30 60 1 19 57 CFG=1
M  V30 61 1 20 58
M  V30 62 1 23 59
M  V30 63 1 26 60
M  V30 64 1 26 61
M  V30 65 1 29 62
M  V30 66 1 32 63
M  V30 67 1 32 64
M  V30 68 1 32 65
M  V30 69 1 33 66
M  V30 70 1 33 67
M  V30 71 1 33 68
M  V30 72 1 34 69
M  V30 73 1 34 70
M  V30 74 1 34 71
M  V30 75 1 37 72
M  V30 76 1 37 73
M  V30 77 1 38 74
M  V30 78 1 39 75
M  V30 END BOND
M  V30 END CTAB
M  END
>  <Dataset>  (668) 
ChEMBL_Kinases

>  <Ligand_Instance>  (668) 
nan

>  <PDB_ID>  (668) 
nan

>  <Standardized_SMILES>  (668) 
CN(C)C/C=C/C(=O)Nc1ccc(C(=O)N2CC[C@@H](Nc3ncc(SCc4ncc(C(C)(C)C)o4)s3)C2)cc1

>  <Name>  (668) 
nan

>  <Pocket>  (668) 
nan

>  <ATP_Site>  (668) 
nan

>  <Peripheral>  (668) 
nan

>  <Num_H_Atoms_ProtBoundConf>  (668) 
nan

>  <Num_Resolved_Atoms>  (668) 
nan

>  <Num_Not_Resolved_Atoms>  (668) 
nan

$$$$
CHEMBL4758126
     RDKit          3D

  0  0  0  0  0  0  0  0  0  0999 V3000
M  V30 BEGIN CTAB
M  V30 COUNTS 46 50 0 0 0
M  V30 BEGIN ATOM
M  V30 1 C 3.207212 -6.212880 -1.031086 0
M  V30 2 N 3.805452 -4.920141 -1.345780 0
M  V30 3 C 3.328696 -3.726948 -0.975774 0
M  V30 4 C 4.181076 -2.726586 -1.460386 0
M  V30 5 C 3.890847 -1.340639 -1.195615 0
M  V30 6 C 4.749853 -0.275306 -1.019464 0
M  V30 7 C 4.330335 0.999664 -0.749951 0
M  V30 8 C 3.026629 1.326299 -0.630756 0
M  V30 9 C 2.557321 2.573616 -0.346209 0
M  V30 10 N 1.256239 2.879835 -0.216322 0
M  V30 11 C 0.307653 1.916079 -0.370523 0
M  V30 12 N -1.100346 1.896283 -0.278333 0
M  V30 13 C -1.893980 1.447211 0.812339 0
M  V30 14 O -0.707051 1.218049 1.357020 0
M  V30 15 C -2.733858 1.012016 1.868770 0
M  V30 16 C -2.546410 -0.379320 2.108707 0
M  V30 17 C -3.387459 -0.858388 3.154103 0
M  V30 18 C -4.231673 0.003434 3.781221 0
M  V30 19 C -5.075409 -0.344386 4.798849 0
M  V30 20 N -5.924500 0.456773 5.457875 0
M  V30 21 C -6.070473 1.762834 5.202921 0
M  V30 22 C -5.209634 2.164605 4.149213 0
M  V30 23 C -4.368236 1.373149 3.494128 0
M  V30 24 C -3.584533 1.894135 2.495647 0
M  V30 25 C 0.736765 0.605932 -0.666431 0
M  V30 26 C 2.074653 0.317196 -0.792968 0
M  V30 27 C 2.557526 -0.938427 -1.061704 0
M  V30 28 C 5.162098 -3.421926 -2.121202 0
M  V30 29 N 4.923173 -4.738865 -2.044786 0
M  V30 30 H 2.117398 -6.053572 -0.912753 0
M  V30 31 H 3.453974 -6.952579 -1.823787 0
M  V30 32 H 3.638707 -6.562543 -0.046076 0
M  V30 33 H 2.432356 -3.586326 -0.399238 0
M  V30 34 H 5.816858 -0.543556 -1.119080 0
M  V30 35 H 5.061393 1.800594 -0.623947 0
M  V30 36 H 3.285396 3.352136 -0.214923 0
M  V30 37 H -1.982574 2.140553 -0.852051 0
M  V30 38 H -1.943190 -1.116129 1.729013 0
M  V30 39 H -3.460912 -1.870527 3.549038 0
M  V30 40 H -5.103559 -1.370555 5.162871 0
M  V30 41 H -6.697647 2.506014 5.646886 0
M  V30 42 H -5.266198 3.231307 3.877355 0
M  V30 43 H -3.564993 2.914127 2.153504 0
M  V30 44 H 0.077792 -0.262468 -0.816955 0
M  V30 45 H 1.787268 -1.727792 -1.184017 0
M  V30 46 H 5.974266 -2.908447 -2.611440 0
M  V30 END ATOM
M  V30 BEGIN BOND
M  V30 1 1 1 2
M  V30 2 1 2 3
M  V30 3 2 3 4
M  V30 4 1 4 5
M  V30 5 2 5 6
M  V30 6 1 6 7
M  V30 7 2 7 8
M  V30 8 1 8 9
M  V30 9 2 9 10
M  V30 10 1 10 11
M  V30 11 1 11 12
M  V30 12 1 12 13
M  V30 13 2 13 14
M  V30 14 1 13 15
M  V30 15 2 15 16
M  V30 16 1 16 17
M  V30 17 2 17 18
M  V30 18 1 18 19
M  V30 19 2 19 20
M  V30 20 1 20 21
M  V30 21 2 21 22
M  V30 22 1 22 23
M  V30 23 2 23 24
M  V30 24 2 11 25
M  V30 25 1 25 26
M  V30 26 2 26 27
M  V30 27 1 4 28
M  V30 28 2 28 29
M  V30 29 1 29 2
M  V30 30 1 27 5
M  V30 31 1 26 8
M  V30 32 1 24 15
M  V30 33 1 23 18
M  V30 34 1 1 30
M  V30 35 1 1 31
M  V30 36 1 1 32
M  V30 37 1 3 33
M  V30 38 1 6 34
M  V30 39 1 7 35
M  V30 40 1 9 36
M  V30 41 1 12 37
M  V30 42 1 16 38
M  V30 43 1 17 39
M  V30 44 1 19 40
M  V30 45 1 21 41
M  V30 46 1 22 42
M  V30 47 1 24 43
M  V30 48 1 25 44
M  V30 49 1 27 45
M  V30 50 1 28 46
M  V30 END BOND
M  V30 END CTAB
M  END
>  <Dataset>  (669) 
ChEMBL_Kinases

>  <Ligand_Instance>  (669) 
nan

>  <PDB_ID>  (669) 
nan

>  <Standardized_SMILES>  (669) 
Cn1cc(-c2ccc3cnc(NC(=O)c4ccc5cnccc5c4)cc3c2)cn1

>  <Name>  (669) 
nan

>  <Pocket>  (669) 
nan

>  <ATP_Site>  (669) 
nan

>  <Peripheral>  (669) 
nan

>  <Num_H_Atoms_ProtBoundConf>  (669) 
nan

>  <Num_Resolved_Atoms>  (669) 
nan

>  <Num_Not_Resolved_Atoms>  (669) 
nan

$$$$
CHEMBL4758045
     RDKit          3D

  0  0  0  0  0  0  0  0  0  0999 V3000
M  V30 BEGIN CTAB
M  V30 COUNTS 57 63 0 0 0
M  V30 BEGIN ATOM
M  V30 1 Cl 2.874053 -2.796700 4.611166 0
M  V30 2 C 2.282820 -1.633088 3.472112 0
M  V30 3 C 1.259252 -1.204959 2.689808 0
M  V30 4 C 1.335503 -0.081595 1.875119 0
M  V30 5 C 2.505466 0.542241 1.937245 0
M  V30 6 C 2.926037 1.814447 1.237288 0
M  V30 7 C 4.211014 2.241754 1.528641 0
M  V30 8 N 4.520748 3.439728 0.986174 0
M  V30 9 C 3.645613 4.122321 0.243805 0
M  V30 10 C 2.377564 3.698373 -0.041292 0
M  V30 11 N 1.268132 4.117785 -0.722209 0
M  V30 12 C 0.263798 3.193394 -0.625746 0
M  V30 13 C -0.822606 3.677609 -1.250433 0
M  V30 14 N -1.729674 4.397872 -1.908983 0
M  V30 15 N -2.777492 4.082516 -2.422487 0
M  V30 16 C -2.860792 2.780145 -2.189105 0
M  V30 17 C -3.851286 1.930665 -2.598066 0
M  V30 18 C -3.666189 0.611707 -2.268229 0
M  V30 19 C -2.531241 0.224701 -1.569264 0
M  V30 20 C -2.324424 -1.177493 -1.328591 0
M  V30 21 C -3.308792 -2.047211 -1.715472 0
M  V30 22 N -3.221301 -3.378015 -1.610307 0
M  V30 23 C -2.120548 -4.003284 -1.092858 0
M  V30 24 C -1.119695 -3.154784 -0.692969 0
M  V30 25 C 0.035579 -3.882517 -0.142374 0
M  V30 26 N -0.028089 -4.193904 1.236459 0
M  V30 27 C -1.115457 -5.004572 1.666521 0
M  V30 28 C -0.629103 -5.834585 2.838123 0
M  V30 29 C 0.663433 -5.125944 3.252471 0
M  V30 30 C 1.127457 -4.658289 1.887406 0
M  V30 31 C -1.215299 -1.794923 -0.804471 0
M  V30 32 N -1.716862 1.183497 -1.272233 0
M  V30 33 C -1.684975 2.510392 -1.477119 0
M  V30 34 N 0.726046 2.175026 0.121490 0
M  V30 35 C 1.995414 2.449980 0.496159 0
M  V30 36 S 3.553920 -0.283740 3.029302 0
M  V30 37 H 0.461799 -1.903018 2.864470 0
M  V30 38 H 0.447452 0.135604 1.306149 0
M  V30 39 H 4.916103 1.717115 2.114631 0
M  V30 40 H 3.951142 5.071924 -0.153627 0
M  V30 41 H 1.444540 5.070110 -1.177023 0
M  V30 42 H -3.397358 4.770737 -2.920514 0
M  V30 43 H -4.722290 2.295287 -3.146503 0
M  V30 44 H -4.474185 0.008410 -2.626326 0
M  V30 45 H -4.263898 -1.785390 -2.134395 0
M  V30 46 H -2.275893 -5.072897 -1.132143 0
M  V30 47 H 0.928603 -3.186756 -0.271428 0
M  V30 48 H 0.290594 -4.777657 -0.753950 0
M  V30 49 H -2.029600 -4.445569 1.890687 0
M  V30 50 H -1.332178 -5.739176 0.861708 0
M  V30 51 H -0.329046 -6.846462 2.539753 0
M  V30 52 H -1.335147 -5.886676 3.655050 0
M  V30 53 H 0.438905 -4.319212 3.954176 0
M  V30 54 H 1.417549 -5.778533 3.670293 0
M  V30 55 H 2.004564 -4.013280 1.908601 0
M  V30 56 H 1.480694 -5.587342 1.358916 0
M  V30 57 H -0.408364 -1.179521 -0.494512 0
M  V30 END ATOM
M  V30 BEGIN BOND
M  V30 1 1 1 2
M  V30 2 2 2 3
M  V30 3 1 3 4
M  V30 4 2 4 5
M  V30 5 1 5 6
M  V30 6 2 6 7
M  V30 7 1 7 8
M  V30 8 2 8 9
M  V30 9 1 9 10
M  V30 10 1 10 11
M  V30 11 1 11 12
M  V30 12 1 12 13
M  V30 13 2 13 14
M  V30 14 1 14 15
M  V30 15 1 15 16
M  V30 16 2 16 17
M  V30 17 1 17 18
M  V30 18 2 18 19
M  V30 19 1 19 20
M  V30 20 2 20 21
M  V30 21 1 21 22
M  V30 22 2 22 23
M  V30 23 1 23 24
M  V30 24 1 24 25
M  V30 25 1 25 26
M  V30 26 1 26 27
M  V30 27 1 27 28
M  V30 28 1 28 29
M  V30 29 1 29 30
M  V30 30 2 24 31
M  V30 31 1 19 32
M  V30 32 2 32 33
M  V30 33 2 12 34
M  V30 34 1 34 35
M  V30 35 1 5 36
M  V30 36 1 36 2
M  V30 37 1 35 6
M  V30 38 2 35 10
M  V30 39 1 33 13
M  V30 40 1 33 16
M  V30 41 1 31 20
M  V30 42 1 30 26
M  V30 43 1 3 37
M  V30 44 1 4 38
M  V30 45 1 7 39
M  V30 46 1 9 40
M  V30 47 1 11 41
M  V30 48 1 15 42
M  V30 49 1 17 43
M  V30 50 1 18 44
M  V30 51 1 21 45
M  V30 52 1 23 46
M  V30 53 1 25 47
M  V30 54 1 25 48
M  V30 55 1 27 49
M  V30 56 1 27 50
M  V30 57 1 28 51
M  V30 58 1 28 52
M  V30 59 1 29 53
M  V30 60 1 29 54
M  V30 61 1 30 55
M  V30 62 1 30 56
M  V30 63 1 31 57
M  V30 END BOND
M  V30 END CTAB
M  END
>  <Dataset>  (670) 
ChEMBL_Kinases

>  <Ligand_Instance>  (670) 
nan

>  <PDB_ID>  (670) 
nan

>  <Standardized_SMILES>  (670) 
Clc1ccc(-c2cncc3[nH]c(-c4n[nH]c5ccc(-c6cncc(CN7CCCC7)c6)nc45)nc23)s1

>  <Name>  (670) 
nan

>  <Pocket>  (670) 
nan

>  <ATP_Site>  (670) 
nan

>  <Peripheral>  (670) 
nan

>  <Num_H_Atoms_ProtBoundConf>  (670) 
nan

>  <Num_Resolved_Atoms>  (670) 
nan

>  <Num_Not_Resolved_Atoms>  (670) 
nan

$$$$
CHEMBL4758035
     RDKit          3D

  0  0  0  0  0  0  0  0  0  0999 V3000
M  V30 BEGIN CTAB
M  V30 COUNTS 57 61 0 0 0
M  V30 BEGIN ATOM
M  V30 1 C 6.858142 -3.914514 2.137545 0
M  V30 2 N 5.794598 -4.459914 1.317974 0
M  V30 3 C 4.509019 -3.970577 1.703043 0
M  V30 4 C 4.055867 -2.721954 1.039927 0
M  V30 5 N 4.858029 -2.285905 -0.063165 0
M  V30 6 C 4.368479 -1.211768 -0.860568 0
M  V30 7 C 3.153628 -0.644833 -0.533410 0
M  V30 8 C 2.626062 0.397975 -1.266977 0
M  V30 9 C 1.356520 1.076383 -1.019121 0
M  V30 10 O 0.912213 2.015692 -1.706515 0
M  V30 11 N 0.554022 0.664623 0.064689 0
M  V30 12 C -0.702870 1.121061 0.547459 0
M  V30 13 C -1.875496 0.552631 0.066871 0
M  V30 14 C -3.093000 1.002098 0.541391 0
M  V30 15 C -4.257879 0.431217 0.058261 0
M  V30 16 Cl -4.172340 -0.845628 -1.141140 0
M  V30 17 C -5.442783 0.908989 0.557924 0
M  V30 18 C -6.691958 0.307493 0.049820 0
M  V30 19 C -7.220980 -0.055174 -1.174370 0
M  V30 20 N -8.456252 -0.571201 -0.939718 0
M  V30 21 N -8.713570 -0.545075 0.358602 0
M  V30 22 C -9.961020 -1.027580 0.956887 0
M  V30 23 C -7.669657 -0.019469 0.997231 0
M  V30 24 C -5.497511 1.923180 1.509962 0
M  V30 25 C -4.300865 2.447805 1.948396 0
M  V30 26 C -3.089221 2.012696 1.487511 0
M  V30 27 C -1.924002 2.584710 1.971796 0
M  V30 28 N -0.772649 2.101252 1.468370 0
M  V30 29 C 3.356844 0.869192 -2.356621 0
M  V30 30 C 4.565846 0.269111 -2.642755 0
M  V30 31 N 5.085272 -0.750828 -1.927960 0
M  V30 32 C 6.148173 -2.880363 -0.415396 0
M  V30 33 C 6.046058 -4.356660 -0.088222 0
M  V30 34 H 7.823984 -4.344238 1.840911 0
M  V30 35 H 6.817478 -2.809510 2.148000 0
M  V30 36 H 6.671597 -4.243626 3.187784 0
M  V30 37 H 4.571723 -3.748462 2.806847 0
M  V30 38 H 3.763305 -4.811798 1.654033 0
M  V30 39 H 3.858918 -1.865611 1.742712 0
M  V30 40 H 3.039798 -2.946332 0.599886 0
M  V30 41 H 2.574816 -0.984850 0.293168 0
M  V30 42 H 0.789115 -0.105446 0.729510 0
M  V30 43 H -1.798674 -0.231146 -0.670414 0
M  V30 44 H -6.601762 0.124027 -2.035386 0
M  V30 45 H -10.032349 -2.122109 0.847528 0
M  V30 46 H -10.072802 -0.678428 1.992728 0
M  V30 47 H -10.792406 -0.598585 0.336157 0
M  V30 48 H -7.674794 0.095380 2.092149 0
M  V30 49 H -6.459887 2.236868 1.846122 0
M  V30 50 H -4.335008 3.231261 2.683487 0
M  V30 51 H -1.948356 3.375205 2.713040 0
M  V30 52 H 3.000524 1.679067 -2.968067 0
M  V30 53 H 5.155732 0.628321 -3.498881 0
M  V30 54 H 6.965517 -2.418241 0.149234 0
M  V30 55 H 6.283528 -2.756793 -1.495584 0
M  V30 56 H 5.124521 -4.707896 -0.602695 0
M  V30 57 H 6.930779 -4.935477 -0.348903 0
M  V30 END ATOM
M  V30 BEGIN BOND
M  V30 1 1 1 2
M  V30 2 1 2 3
M  V30 3 1 3 4
M  V30 4 1 4 5
M  V30 5 1 5 6
M  V30 6 2 6 7
M  V30 7 1 7 8
M  V30 8 1 8 9
M  V30 9 2 9 10
M  V30 10 1 9 11
M  V30 11 1 11 12
M  V30 12 2 12 13
M  V30 13 1 13 14
M  V30 14 2 14 15
M  V30 15 1 15 16
M  V30 16 1 15 17
M  V30 17 1 17 18
M  V30 18 1 18 19
M  V30 19 2 19 20
M  V30 20 1 20 21
M  V30 21 1 21 22
M  V30 22 1 21 23
M  V30 23 2 17 24
M  V30 24 1 24 25
M  V30 25 2 25 26
M  V30 26 1 26 27
M  V30 27 2 27 28
M  V30 28 2 8 29
M  V30 29 1 29 30
M  V30 30 2 30 31
M  V30 31 1 5 32
M  V30 32 1 32 33
M  V30 33 1 33 2
M  V30 34 1 31 6
M  V30 35 1 28 12
M  V30 36 1 26 14
M  V30 37 2 23 18
M  V30 38 1 1 34
M  V30 39 1 1 35
M  V30 40 1 1 36
M  V30 41 1 3 37
M  V30 42 1 3 38
M  V30 43 1 4 39
M  V30 44 1 4 40
M  V30 45 1 7 41
M  V30 46 1 11 42
M  V30 47 1 13 43
M  V30 48 1 19 44
M  V30 49 1 22 45
M  V30 50 1 22 46
M  V30 51 1 22 47
M  V30 52 1 23 48
M  V30 53 1 24 49
M  V30 54 1 25 50
M  V30 55 1 27 51
M  V30 56 1 29 52
M  V30 57 1 30 53
M  V30 58 1 32 54
M  V30 59 1 32 55
M  V30 60 1 33 56
M  V30 61 1 33 57
M  V30 END BOND
M  V30 END CTAB
M  END
>  <Dataset>  (671) 
ChEMBL_Kinases

>  <Ligand_Instance>  (671) 
nan

>  <PDB_ID>  (671) 
nan

>  <Standardized_SMILES>  (671) 
CN1CCN(c2cc(C(=O)Nc3cc4c(Cl)c(-c5cnn(C)c5)ccc4cn3)ccn2)CC1

>  <Name>  (671) 
nan

>  <Pocket>  (671) 
nan

>  <ATP_Site>  (671) 
nan

>  <Peripheral>  (671) 
nan

>  <Num_H_Atoms_ProtBoundConf>  (671) 
nan

>  <Num_Resolved_Atoms>  (671) 
nan

>  <Num_Not_Resolved_Atoms>  (671) 
nan

$$$$
CHEMBL4758034
     RDKit          3D

  0  0  0  0  0  0  0  0  0  0999 V3000
M  V30 BEGIN CTAB
M  V30 COUNTS 59 64 0 0 0
M  V30 BEGIN ATOM
M  V30 1 C 4.929008 2.604914 5.091807 0
M  V30 2 C 5.601730 1.249615 5.195558 0
M  V30 3 C 5.113765 0.601790 6.459209 0
M  V30 4 C 5.320215 0.521683 3.957343 0
M  V30 5 O 6.217523 0.085730 3.190393 0
M  V30 6 N 3.938286 0.360245 3.714500 0
M  V30 7 C 3.136994 -0.247269 2.701545 0
M  V30 8 C 2.807810 -1.562627 2.953308 0
M  V30 9 N 2.046121 -2.293178 2.082035 0
M  V30 10 C 1.610553 -1.685967 0.939082 0
M  V30 11 C 1.935036 -0.379157 0.684018 0
M  V30 12 C 1.452403 0.239997 -0.545050 0
M  V30 13 C 2.238975 1.227771 -1.143132 0
M  V30 14 C 1.845668 1.858742 -2.308566 0
M  V30 15 C 0.642252 1.477421 -2.864372 0
M  V30 16 N -0.013062 1.881389 -3.964851 0
M  V30 17 N -1.130353 1.211985 -4.069951 0
M  V30 18 C -1.304593 0.331309 -3.074027 0
M  V30 19 C -2.445018 -0.541589 -2.929862 0
M  V30 20 C -2.865517 -1.490275 -2.044521 0
M  V30 21 C -4.076822 -2.028530 -2.390546 0
M  V30 22 C -4.898293 -2.983687 -1.846655 0
M  V30 23 C -4.524575 -3.648993 -0.619041 0
M  V30 24 C -4.066144 -3.027084 0.512543 0
M  V30 25 C -3.719161 -3.729285 1.663024 0
M  V30 26 C -3.883276 -5.097107 1.545062 0
M  V30 27 N -4.324803 -5.718279 0.460572 0
M  V30 28 C -4.661163 -5.024872 -0.657811 0
M  V30 29 C -6.112235 -3.348729 -2.426404 0
M  V30 30 N -6.424057 -2.692801 -3.565945 0
M  V30 31 C -5.637401 -1.754332 -4.117564 0
M  V30 32 C -4.430247 -1.382974 -3.552196 0
M  V30 33 N -3.451479 -0.517173 -3.841198 0
M  V30 34 C -0.176220 0.510563 -2.320694 0
M  V30 35 C 0.266502 -0.074589 -1.172014 0
M  V30 36 C 2.709009 0.379231 1.559456 0
M  V30 37 H 3.804765 2.500328 5.036612 0
M  V30 38 H 5.199699 3.142834 4.160531 0
M  V30 39 H 5.153361 3.220015 5.997898 0
M  V30 40 H 6.691167 1.452077 5.220623 0
M  V30 41 H 5.643878 1.067015 7.314812 0
M  V30 42 H 5.283789 -0.488306 6.505859 0
M  V30 43 H 4.030235 0.762338 6.630791 0
M  V30 44 H 3.160262 0.705005 4.317249 0
M  V30 45 H 3.066864 -2.192645 3.800813 0
M  V30 46 H 0.998058 -2.251355 0.225216 0
M  V30 47 H 3.194007 1.573715 -0.758521 0
M  V30 48 H 2.420138 2.626106 -2.804207 0
M  V30 49 H 0.252670 2.601997 -4.670676 0
M  V30 50 H -2.326745 -1.790253 -1.184276 0
M  V30 51 H -3.972638 -1.952538 0.517736 0
M  V30 52 H -3.354782 -3.231224 2.560372 0
M  V30 53 H -3.634770 -5.732530 2.402808 0
M  V30 54 H -5.011376 -5.610916 -1.494057 0
M  V30 55 H -6.753807 -4.111971 -1.978588 0
M  V30 56 H -5.933686 -1.263510 -5.026544 0
M  V30 57 H -3.570998 0.058041 -4.706089 0
M  V30 58 H -0.329505 -0.833254 -0.706890 0
M  V30 59 H 2.990850 1.420208 1.393022 0
M  V30 END ATOM
M  V30 BEGIN BOND
M  V30 1 1 1 2
M  V30 2 1 2 3
M  V30 3 1 2 4
M  V30 4 2 4 5
M  V30 5 1 4 6
M  V30 6 1 6 7
M  V30 7 2 7 8
M  V30 8 1 8 9
M  V30 9 2 9 10
M  V30 10 1 10 11
M  V30 11 1 11 12
M  V30 12 2 12 13
M  V30 13 1 13 14
M  V30 14 2 14 15
M  V30 15 1 15 16
M  V30 16 1 16 17
M  V30 17 2 17 18
M  V30 18 1 18 19
M  V30 19 2 19 20
M  V30 20 1 20 21
M  V30 21 2 21 22
M  V30 22 1 22 23
M  V30 23 2 23 24
M  V30 24 1 24 25
M  V30 25 2 25 26
M  V30 26 1 26 27
M  V30 27 2 27 28
M  V30 28 1 22 29
M  V30 29 2 29 30
M  V30 30 1 30 31
M  V30 31 2 31 32
M  V30 32 1 32 33
M  V30 33 1 18 34
M  V30 34 2 34 35
M  V30 35 2 11 36
M  V30 36 1 36 7
M  V30 37 1 35 12
M  V30 38 1 34 15
M  V30 39 1 33 19
M  V30 40 1 32 21
M  V30 41 1 28 23
M  V30 42 1 1 37
M  V30 43 1 1 38
M  V30 44 1 1 39
M  V30 45 1 2 40
M  V30 46 1 3 41
M  V30 47 1 3 42
M  V30 48 1 3 43
M  V30 49 1 6 44
M  V30 50 1 8 45
M  V30 51 1 10 46
M  V30 52 1 13 47
M  V30 53 1 14 48
M  V30 54 1 16 49
M  V30 55 1 20 50
M  V30 56 1 24 51
M  V30 57 1 25 52
M  V30 58 1 26 53
M  V30 59 1 28 54
M  V30 60 1 29 55
M  V30 61 1 31 56
M  V30 62 1 33 57
M  V30 63 1 35 58
M  V30 64 1 36 59
M  V30 END BOND
M  V30 END CTAB
M  END
>  <Dataset>  (672) 
ChEMBL_Kinases

>  <Ligand_Instance>  (672) 
nan

>  <PDB_ID>  (672) 
nan

>  <Standardized_SMILES>  (672) 
CC(C)C(=O)Nc1cncc(-c2ccc3[nH]nc(-c4cc5c(-c6cccnc6)cncc5[nH]4)c3c2)c1

>  <Name>  (672) 
nan

>  <Pocket>  (672) 
nan

>  <ATP_Site>  (672) 
nan

>  <Peripheral>  (672) 
nan

>  <Num_H_Atoms_ProtBoundConf>  (672) 
nan

>  <Num_Resolved_Atoms>  (672) 
nan

>  <Num_Not_Resolved_Atoms>  (672) 
nan

$$$$
CHEMBL4757954
     RDKit          3D

  0  0  0  0  0  0  0  0  0  0999 V3000
M  V30 BEGIN CTAB
M  V30 COUNTS 61 66 0 0 0
M  V30 BEGIN ATOM
M  V30 1 C 1.859854 -2.517423 5.141612 0
M  V30 2 C 2.475070 -3.734588 4.535929 0
M  V30 3 C 1.906826 -4.950289 5.236717 0
M  V30 4 C 2.259186 -3.818010 3.037491 0
M  V30 5 C 2.834748 -2.668916 2.327694 0
M  V30 6 O 3.458748 -1.654302 2.752066 0
M  V30 7 N 2.718964 -2.598258 0.912611 0
M  V30 8 C 3.329612 -1.415538 0.353443 0
M  V30 9 C 4.638557 -1.271109 -0.074287 0
M  V30 10 N 5.014971 -0.077474 -0.567982 0
M  V30 11 C 4.165771 0.961990 -0.655071 0
M  V30 12 C 2.832816 0.869170 -0.236963 0
M  V30 13 C 1.961972 2.037304 -0.358544 0
M  V30 14 C 2.539368 3.259920 -0.223364 0
M  V30 15 N 1.713874 4.328050 -0.340671 0
M  V30 16 C 0.393774 4.219397 -0.577236 0
M  V30 17 N -0.549614 5.164540 -0.719012 0
M  V30 18 N -1.695811 4.524759 -0.939417 0
M  V30 19 C -1.490894 3.194542 -0.938867 0
M  V30 20 C -2.529767 2.206035 -1.150258 0
M  V30 21 N -2.441515 0.868317 -1.170794 0
M  V30 22 C -3.682609 0.354378 -1.405680 0
M  V30 23 C -4.205081 -0.922146 -1.533585 0
M  V30 24 C -3.340894 -2.067745 -1.410782 0
M  V30 25 C -3.549350 -3.038036 -2.390538 0
M  V30 26 C -2.772545 -4.201083 -2.381433 0
M  V30 27 C -1.798510 -4.382362 -1.396777 0
M  V30 28 C -1.610791 -3.422433 -0.448837 0
M  V30 29 F -0.664712 -3.569948 0.529186 0
M  V30 30 C -2.366308 -2.263282 -0.436364 0
M  V30 31 C -5.549302 -1.106662 -1.778047 0
M  V30 32 N -6.368326 -0.065235 -1.895456 0
M  V30 33 C -5.929094 1.220946 -1.782191 0
M  V30 34 C -4.576613 1.392696 -1.536621 0
M  V30 35 N -3.837368 2.514284 -1.374615 0
M  V30 36 C -0.153772 2.943876 -0.708558 0
M  V30 37 C 0.620733 1.817277 -0.601817 0
M  V30 38 C 2.443576 -0.350260 0.268736 0
M  V30 39 H 1.563820 -2.752558 6.184825 0
M  V30 40 H 0.928961 -2.284929 4.590996 0
M  V30 41 H 2.547841 -1.649805 5.199975 0
M  V30 42 H 3.577114 -3.672659 4.699278 0
M  V30 43 H 0.974979 -5.293496 4.746246 0
M  V30 44 H 2.693978 -5.716488 5.295641 0
M  V30 45 H 1.624407 -4.636895 6.284758 0
M  V30 46 H 2.593572 -4.802090 2.651691 0
M  V30 47 H 1.145421 -3.828060 2.886904 0
M  V30 48 H 2.236475 -3.330474 0.310944 0
M  V30 49 H 5.243591 -2.159139 0.035191 0
M  V30 50 H 4.550448 1.880128 -1.062717 0
M  V30 51 H 3.598610 3.395934 -0.032309 0
M  V30 52 H -0.442964 6.200941 -0.672049 0
M  V30 53 H -4.277617 -2.978874 -3.185195 0
M  V30 54 H -2.894151 -4.987969 -3.121281 0
M  V30 55 H -1.212626 -5.300199 -1.421073 0
M  V30 56 H -2.266100 -1.457834 0.292876 0
M  V30 57 H -5.968901 -2.079404 -1.879441 0
M  V30 58 H -6.602255 2.076440 -1.878831 0
M  V30 59 H -4.261196 3.475798 -1.424287 0
M  V30 60 H 0.151720 0.848632 -0.710497 0
M  V30 61 H 1.411508 -0.389996 0.582063 0
M  V30 END ATOM
M  V30 BEGIN BOND
M  V30 1 1 1 2
M  V30 2 1 2 3
M  V30 3 1 2 4
M  V30 4 1 4 5
M  V30 5 2 5 6
M  V30 6 1 5 7
M  V30 7 1 7 8
M  V30 8 2 8 9
M  V30 9 1 9 10
M  V30 10 2 10 11
M  V30 11 1 11 12
M  V30 12 1 12 13
M  V30 13 2 13 14
M  V30 14 1 14 15
M  V30 15 2 15 16
M  V30 16 1 16 17
M  V30 17 1 17 18
M  V30 18 2 18 19
M  V30 19 1 19 20
M  V30 20 2 20 21
M  V30 21 1 21 22
M  V30 22 2 22 23
M  V30 23 1 23 24
M  V30 24 2 24 25
M  V30 25 1 25 26
M  V30 26 2 26 27
M  V30 27 1 27 28
M  V30 28 1 28 29
M  V30 29 2 28 30
M  V30 30 1 23 31
M  V30 31 2 31 32
M  V30 32 1 32 33
M  V30 33 2 33 34
M  V30 34 1 34 35
M  V30 35 1 19 36
M  V30 36 2 36 37
M  V30 37 2 12 38
M  V30 38 1 38 8
M  V30 39 1 37 13
M  V30 40 1 36 16
M  V30 41 1 35 20
M  V30 42 1 34 22
M  V30 43 1 30 24
M  V30 44 1 1 39
M  V30 45 1 1 40
M  V30 46 1 1 41
M  V30 47 1 2 42
M  V30 48 1 3 43
M  V30 49 1 3 44
M  V30 50 1 3 45
M  V30 51 1 4 46
M  V30 52 1 4 47
M  V30 53 1 7 48
M  V30 54 1 9 49
M  V30 55 1 11 50
M  V30 56 1 14 51
M  V30 57 1 17 52
M  V30 58 1 25 53
M  V30 59 1 26 54
M  V30 60 1 27 55
M  V30 61 1 30 56
M  V30 62 1 31 57
M  V30 63 1 33 58
M  V30 64 1 35 59
M  V30 65 1 37 60
M  V30 66 1 38 61
M  V30 END BOND
M  V30 END CTAB
M  END
>  <Dataset>  (673) 
ChEMBL_Kinases

>  <Ligand_Instance>  (673) 
nan

>  <PDB_ID>  (673) 
nan

>  <Standardized_SMILES>  (673) 
CC(C)CC(=O)Nc1cncc(-c2cnc3[nH]nc(-c4nc5c(-c6cccc(F)c6)cncc5[nH]4)c3c2)c1

>  <Name>  (673) 
nan

>  <Pocket>  (673) 
nan

>  <ATP_Site>  (673) 
nan

>  <Peripheral>  (673) 
nan

>  <Num_H_Atoms_ProtBoundConf>  (673) 
nan

>  <Num_Resolved_Atoms>  (673) 
nan

>  <Num_Not_Resolved_Atoms>  (673) 
nan

$$$$
CHEMBL4757917
     RDKit          3D

  0  0  0  0  0  0  0  0  0  0999 V3000
M  V30 BEGIN CTAB
M  V30 COUNTS 45 50 0 0 0
M  V30 BEGIN ATOM
M  V30 1 C 4.691600 -5.927225 -0.458896 0
M  V30 2 C 3.426529 -6.480069 -0.435638 0
M  V30 3 N 2.361282 -5.705502 -0.216653 0
M  V30 4 C 2.528897 -4.367442 -0.016352 0
M  V30 5 C 3.760311 -3.746231 -0.025627 0
M  V30 6 C 3.828482 -2.307373 0.199802 0
M  V30 7 C 5.011010 -1.608078 0.207553 0
M  V30 8 C 5.017111 -0.228280 0.429035 0
M  V30 9 C 3.788240 0.363104 0.633061 0
M  V30 10 N 3.501270 1.643477 0.864522 0
M  V30 11 N 2.192635 1.784093 1.003107 0
M  V30 12 C 1.582880 0.588296 0.864709 0
M  V30 13 C 0.174041 0.208430 0.928354 0
M  V30 14 C -0.817353 1.165039 1.170119 0
M  V30 15 C -1.995877 0.447903 1.159142 0
M  V30 16 C -3.284455 0.907421 1.347003 0
M  V30 17 C -3.675776 2.287887 1.604919 0
M  V30 18 C -4.760231 2.700079 0.848418 0
M  V30 19 C -5.267288 3.995085 0.970514 0
M  V30 20 C -4.627981 4.807988 1.872287 0
M  V30 21 N -3.583996 4.428548 2.608064 0
M  V30 22 C -3.100351 3.180144 2.485918 0
M  V30 23 C -4.289208 -0.064616 1.279261 0
M  V30 24 C -4.026668 -1.404047 1.040410 0
M  V30 25 N -2.741990 -1.766174 0.868608 0
M  V30 26 C -1.729028 -0.884597 0.921041 0
M  V30 27 N -0.390842 -1.007024 0.782795 0
M  V30 28 C 2.600703 -0.336293 0.625736 0
M  V30 29 N 2.656018 -1.680158 0.404604 0
M  V30 30 C 4.840668 -4.572265 -0.254234 0
M  V30 31 H 5.589873 -6.491423 -0.629237 0
M  V30 32 H 3.395980 -7.567386 -0.607771 0
M  V30 33 H 1.604828 -3.827176 0.152454 0
M  V30 34 H 5.949557 -2.111409 0.043485 0
M  V30 35 H 5.951253 0.329474 0.436023 0
M  V30 36 H 4.173186 2.437301 0.932736 0
M  V30 37 H -0.684738 2.213187 1.326782 0
M  V30 38 H -5.277897 2.070756 0.130679 0
M  V30 39 H -6.103736 4.397206 0.423350 0
M  V30 40 H -4.978903 5.836501 2.013795 0
M  V30 41 H -2.259704 2.786971 3.041082 0
M  V30 42 H -5.333955 0.225999 1.418370 0
M  V30 43 H -4.839734 -2.116733 0.997449 0
M  V30 44 H 0.150953 -1.859746 0.597542 0
M  V30 45 H 5.821239 -4.118642 -0.268174 0
M  V30 END ATOM
M  V30 BEGIN BOND
M  V30 1 2 1 2
M  V30 2 1 2 3
M  V30 3 2 3 4
M  V30 4 1 4 5
M  V30 5 1 5 6
M  V30 6 2 6 7
M  V30 7 1 7 8
M  V30 8 2 8 9
M  V30 9 1 9 10
M  V30 10 1 10 11
M  V30 11 2 11 12
M  V30 12 1 12 13
M  V30 13 2 13 14
M  V30 14 1 14 15
M  V30 15 2 15 16
M  V30 16 1 16 17
M  V30 17 2 17 18
M  V30 18 1 18 19
M  V30 19 2 19 20
M  V30 20 1 20 21
M  V30 21 2 21 22
M  V30 22 1 16 23
M  V30 23 2 23 24
M  V30 24 1 24 25
M  V30 25 2 25 26
M  V30 26 1 26 27
M  V30 27 1 12 28
M  V30 28 2 28 29
M  V30 29 2 5 30
M  V30 30 1 30 1
M  V30 31 1 29 6
M  V30 32 1 28 9
M  V30 33 1 27 13
M  V30 34 1 26 15
M  V30 35 1 22 17
M  V30 36 1 1 31
M  V30 37 1 2 32
M  V30 38 1 4 33
M  V30 39 1 7 34
M  V30 40 1 8 35
M  V30 41 1 10 36
M  V30 42 1 14 37
M  V30 43 1 18 38
M  V30 44 1 19 39
M  V30 45 1 20 40
M  V30 46 1 22 41
M  V30 47 1 23 42
M  V30 48 1 24 43
M  V30 49 1 27 44
M  V30 50 1 30 45
M  V30 END BOND
M  V30 END CTAB
M  END
>  <Dataset>  (674) 
ChEMBL_Kinases

>  <Ligand_Instance>  (674) 
nan

>  <PDB_ID>  (674) 
nan

>  <Standardized_SMILES>  (674) 
c1cncc(-c2ccc3[nH]nc(-c4cc5c(-c6cccnc6)ccnc5[nH]4)c3n2)c1

>  <Name>  (674) 
nan

>  <Pocket>  (674) 
nan

>  <ATP_Site>  (674) 
nan

>  <Peripheral>  (674) 
nan

>  <Num_H_Atoms_ProtBoundConf>  (674) 
nan

>  <Num_Resolved_Atoms>  (674) 
nan

>  <Num_Not_Resolved_Atoms>  (674) 
nan

$$$$
CHEMBL4287375
     RDKit          3D

  0  0  0  0  0  0  0  0  0  0999 V3000
M  V30 BEGIN CTAB
M  V30 COUNTS 50 53 0 0 0
M  V30 BEGIN ATOM
M  V30 1 C -0.302583 -4.252136 2.149089 0
M  V30 2 N 0.752243 -4.203608 1.166864 0
M  V30 3 C 0.915145 -2.866738 0.658628 0
M  V30 4 C 2.195487 -2.229267 1.099687 0
M  V30 5 N 2.398983 -2.547816 2.518060 0
M  V30 6 C 2.402882 -1.793325 3.735400 0
M  V30 7 O 2.612926 -2.196343 4.912701 0
M  V30 8 C 2.100962 -0.421426 3.311670 0
M  V30 9 C 2.816852 0.469665 2.549716 0
M  V30 10 C 2.291184 1.704299 2.238978 0
M  V30 11 C 1.040147 1.950971 2.739978 0
M  V30 12 N 0.499958 3.234568 2.306985 0
M  V30 13 C -0.210765 2.893127 1.132366 0
M  V30 14 O -0.147080 1.638779 0.863790 0
M  V30 15 N -0.947477 3.656445 0.241575 0
M  V30 16 C -1.593386 2.998813 -0.946347 0
M  V30 17 N -1.511214 1.827665 -1.224604 0
M  V30 18 C -2.075520 1.248012 -2.256023 0
M  V30 19 C -2.028700 -0.089938 -2.650423 0
M  V30 20 C -2.713486 -0.421967 -3.784104 0
M  V30 21 C -3.455005 0.374360 -4.611727 0
M  V30 22 O -4.149744 0.068458 -5.752593 0
M  V30 23 C -3.547151 1.710157 -4.282849 0
M  V30 24 C -2.832742 2.083227 -3.090079 0
M  V30 25 S -2.605566 3.730780 -2.190778 0
M  V30 26 C 0.259902 1.121766 3.509622 0
M  V30 27 C 0.817432 -0.124690 3.810664 0
M  V30 28 C 2.641556 -3.955883 2.755524 0
M  V30 29 C 1.993971 -4.752863 1.662753 0
M  V30 30 H 0.039196 -3.985346 3.154899 0
M  V30 31 H -1.097405 -3.551224 1.812429 0
M  V30 32 H -0.771613 -5.273818 2.101385 0
M  V30 33 H 0.786976 -2.853888 -0.446476 0
M  V30 34 H 0.069388 -2.230952 1.039146 0
M  V30 35 H 2.180040 -1.155257 0.897707 0
M  V30 36 H 3.033885 -2.736691 0.536587 0
M  V30 37 H 3.758348 0.078162 2.269330 0
M  V30 38 H 2.886531 2.367209 1.644491 0
M  V30 39 H 0.426183 4.257301 2.500707 0
M  V30 40 H -1.018661 4.657970 0.421526 0
M  V30 41 H -1.488709 -0.847078 -2.111856 0
M  V30 42 H -2.680520 -1.479477 -4.113269 0
M  V30 43 H -4.563125 -0.851087 -5.888049 0
M  V30 44 H -4.044414 2.540883 -4.739918 0
M  V30 45 H -0.711078 1.467787 3.830909 0
M  V30 46 H 0.156520 -0.733834 4.415012 0
M  V30 47 H 2.195356 -4.297059 3.718825 0
M  V30 48 H 3.729622 -4.189739 2.711995 0
M  V30 49 H 1.737967 -5.764819 2.052758 0
M  V30 50 H 2.657823 -4.915569 0.786603 0
M  V30 END ATOM
M  V30 BEGIN BOND
M  V30 1 1 1 2
M  V30 2 1 2 3
M  V30 3 1 3 4
M  V30 4 1 4 5
M  V30 5 1 5 6
M  V30 6 2 6 7
M  V30 7 1 6 8
M  V30 8 2 8 9
M  V30 9 1 9 10
M  V30 10 2 10 11
M  V30 11 1 11 12
M  V30 12 1 12 13
M  V30 13 2 13 14
M  V30 14 1 13 15
M  V30 15 1 15 16
M  V30 16 2 16 17
M  V30 17 1 17 18
M  V30 18 2 18 19
M  V30 19 1 19 20
M  V30 20 2 20 21
M  V30 21 1 21 22
M  V30 22 1 21 23
M  V30 23 2 23 24
M  V30 24 1 24 25
M  V30 25 1 11 26
M  V30 26 2 26 27
M  V30 27 1 5 28
M  V30 28 1 28 29
M  V30 29 1 29 2
M  V30 30 1 27 8
M  V30 31 1 25 16
M  V30 32 1 24 18
M  V30 33 1 1 30
M  V30 34 1 1 31
M  V30 35 1 1 32
M  V30 36 1 3 33
M  V30 37 1 3 34
M  V30 38 1 4 35
M  V30 39 1 4 36
M  V30 40 1 9 37
M  V30 41 1 10 38
M  V30 42 1 12 39
M  V30 43 1 15 40
M  V30 44 1 19 41
M  V30 45 1 20 42
M  V30 46 1 22 43
M  V30 47 1 23 44
M  V30 48 1 26 45
M  V30 49 1 27 46
M  V30 50 1 28 47
M  V30 51 1 28 48
M  V30 52 1 29 49
M  V30 53 1 29 50
M  V30 END BOND
M  V30 END CTAB
M  END
>  <Dataset>  (675) 
ChEMBL_Kinases

>  <Ligand_Instance>  (675) 
nan

>  <PDB_ID>  (675) 
nan

>  <Standardized_SMILES>  (675) 
CN1CCN(C(=O)c2ccc(NC(=O)Nc3nc4ccc(O)cc4s3)cc2)CC1

>  <Name>  (675) 
nan

>  <Pocket>  (675) 
nan

>  <ATP_Site>  (675) 
nan

>  <Peripheral>  (675) 
nan

>  <Num_H_Atoms_ProtBoundConf>  (675) 
nan

>  <Num_Resolved_Atoms>  (675) 
nan

>  <Num_Not_Resolved_Atoms>  (675) 
nan

$$$$
CHEMBL4287557
     RDKit          3D

  0  0  0  0  0  0  0  0  0  0999 V3000
M  V30 BEGIN CTAB
M  V30 COUNTS 104 106 0 0 0
M  V30 BEGIN ATOM
M  V30 1 C -1.730221 -6.633775 3.562703 0
M  V30 2 C -1.561887 -6.001673 2.220613 0
M  V30 3 O -2.103646 -6.663107 1.297867 0
M  V30 4 N -0.849575 -4.769976 2.050890 0
M  V30 5 C -0.655306 -4.120903 0.804712 0 CFG=1
M  V30 6 C -0.924440 -2.641174 0.842491 0
M  V30 7 C -2.244320 -2.158582 1.145265 0
M  V30 8 C -3.226555 -2.276079 0.189492 0
M  V30 9 N -4.309197 -1.677468 0.711950 0 CHG=1 VAL=4
M  V30 10 C -4.001249 -1.210920 1.958236 0
M  V30 11 N -2.700649 -1.513432 2.230951 0
M  V30 12 C -2.091475 -1.104435 3.494806 0
M  V30 13 C -1.555944 0.303928 3.367779 0
M  V30 14 C -0.520799 0.487714 2.312187 0
M  V30 15 C -0.107014 1.966203 2.318370 0
M  V30 16 C 0.945553 2.212652 1.256682 0
M  V30 17 C 2.190022 1.431669 1.421522 0
M  V30 18 C 2.972945 1.547593 2.652651 0
M  V30 19 C 3.563191 2.845779 3.054990 0
M  V30 20 C 2.690922 3.978717 3.330050 0
M  V30 21 C 2.262257 5.065967 2.612918 0
M  V30 22 C 1.416207 6.046117 3.053417 0
M  V30 23 C 0.911583 5.990639 4.335048 0
M  V30 24 C 1.291378 4.929797 5.125053 0
M  V30 25 C 2.146752 3.975069 4.622199 0
M  V30 26 C -5.575242 -1.485978 0.035608 0
M  V30 27 C -5.406204 -1.454315 -1.466928 0
M  V30 28 C -4.400876 -0.445643 -1.935101 0
M  V30 29 C -4.296018 -0.388442 -3.434116 0
M  V30 30 C -3.105730 0.431592 -3.874872 0
M  V30 31 N -1.873343 -0.275635 -3.458726 0
M  V30 32 C -0.539010 0.076252 -3.698291 0
M  V30 33 O -0.864278 1.109682 -4.312517 0
M  V30 34 C 0.871046 -0.101560 -3.625801 0 CFG=2
M  V30 35 C 1.490404 -0.160152 -5.059449 0 CFG=1
M  V30 36 C 1.110250 -1.377030 -5.805004 0
M  V30 37 O 1.012149 0.977250 -5.704004 0
M  V30 38 P 2.251587 2.097738 -5.974122 0
M  V30 39 O 2.412428 3.057936 -4.816585 0
M  V30 40 O 1.835069 2.983232 -7.351316 0
M  V30 41 O 3.742691 1.329526 -6.271097 0
M  V30 42 N 1.329950 -1.243533 -2.886535 0
M  V30 43 C 2.308431 -2.032759 -2.280584 0
M  V30 44 O 3.173567 -1.265748 -2.771040 0
M  V30 45 C 2.539957 -3.231888 -1.442548 0 CFG=2
M  V30 46 C 2.803250 -4.395508 -2.422594 0
M  V30 47 O 2.968213 -5.591234 -1.731065 0
M  V30 48 N 1.325542 -3.594534 -0.736516 0
M  V30 49 C 0.853691 -4.123487 0.524912 0
M  V30 50 O 2.036406 -4.366601 0.833936 0
M  V30 51 H -1.725371 -7.733492 3.506911 0
M  V30 52 H -2.752535 -6.351502 3.893973 0
M  V30 53 H -0.970159 -6.322674 4.293714 0
M  V30 54 H -0.467166 -4.365702 2.943442 0
M  V30 55 H -1.113450 -4.665295 -0.022361 0
M  V30 56 H -0.527874 -2.256531 -0.151593 0
M  V30 57 H -0.133684 -2.250296 1.567034 0
M  V30 58 H -3.145028 -2.760441 -0.770237 0
M  V30 59 H -4.683555 -0.676364 2.642381 0
M  V30 60 H -2.806524 -1.140264 4.315458 0
M  V30 61 H -1.220395 -1.777351 3.640929 0
M  V30 62 H -1.069834 0.533056 4.351137 0
M  V30 63 H -2.366340 1.030504 3.216541 0
M  V30 64 H 0.402387 -0.132089 2.506781 0
M  V30 65 H -0.949267 0.220193 1.326529 0
M  V30 66 H 0.179053 2.295980 3.317655 0
M  V30 67 H -0.998300 2.538897 1.998435 0
M  V30 68 H 0.456742 1.773083 0.304260 0
M  V30 69 H 1.107269 3.243952 0.978397 0
M  V30 70 H 2.036956 0.334554 1.212197 0
M  V30 71 H 2.869744 1.747112 0.568667 0
M  V30 72 H 2.453904 1.049183 3.537727 0
M  V30 73 H 3.865902 0.834909 2.521729 0
M  V30 74 H 4.356210 3.171779 2.290868 0
M  V30 75 H 4.219592 2.725017 3.981482 0
M  V30 76 H 2.702873 5.045849 1.602035 0
M  V30 77 H 1.213395 6.815946 2.307682 0
M  V30 78 H 0.256675 6.814000 4.572612 0
M  V30 79 H 0.881609 4.916598 6.114396 0
M  V30 80 H 2.362464 3.189163 5.362746 0
M  V30 81 H -6.178457 -2.407791 0.265299 0
M  V30 82 H -6.132809 -0.634117 0.418551 0
M  V30 83 H -4.968302 -2.461589 -1.735005 0
M  V30 84 H -6.398546 -1.316808 -1.903141 0
M  V30 85 H -4.759348 0.559358 -1.576689 0
M  V30 86 H -3.408488 -0.588474 -1.514294 0
M  V30 87 H -4.272146 -1.394045 -3.899951 0
M  V30 88 H -5.210687 0.092338 -3.825492 0
M  V30 89 H -3.167299 1.422962 -3.439124 0
M  V30 90 H -3.108848 0.521614 -4.976166 0
M  V30 91 H -1.524326 -1.111931 -2.947341 0
M  V30 92 H 1.386204 0.777668 -3.222714 0
M  V30 93 H 2.573661 -0.032397 -4.909960 0
M  V30 94 H 0.102574 -1.754163 -5.629715 0
M  V30 95 H 1.130596 -1.135709 -6.909592 0
M  V30 96 H 1.895648 -2.164109 -5.677868 0
M  V30 97 H 2.607414 3.256731 -7.881168 0
M  V30 98 H 4.202254 1.113446 -5.437204 0
M  V30 99 H 0.550653 -1.880096 -2.629364 0
M  V30 100 H 3.384656 -3.114895 -0.764211 0
M  V30 101 H 3.727473 -4.213466 -2.991806 0
M  V30 102 H 1.917606 -4.544777 -3.070537 0
M  V30 103 H 2.113236 -5.971831 -1.420618 0
M  V30 104 H 0.531554 -3.434024 -1.372324 0
M  V30 END ATOM
M  V30 BEGIN BOND
M  V30 1 1 1 2
M  V30 2 2 2 3
M  V30 3 1 2 4
M  V30 4 1 4 5
M  V30 5 1 5 6
M  V30 6 1 6 7
M  V30 7 2 7 8
M  V30 8 1 8 9
M  V30 9 2 9 10
M  V30 10 1 10 11
M  V30 11 1 11 12
M  V30 12 1 12 13
M  V30 13 1 13 14
M  V30 14 1 14 15
M  V30 15 1 15 16
M  V30 16 1 16 17
M  V30 17 1 17 18
M  V30 18 1 18 19
M  V30 19 1 19 20
M  V30 20 2 20 21
M  V30 21 1 21 22
M  V30 22 2 22 23
M  V30 23 1 23 24
M  V30 24 2 24 25
M  V30 25 1 9 26
M  V30 26 1 26 27
M  V30 27 1 27 28
M  V30 28 1 28 29
M  V30 29 1 29 30
M  V30 30 1 30 31
M  V30 31 1 31 32
M  V30 32 2 32 33
M  V30 33 1 32 34
M  V30 34 1 34 35
M  V30 35 1 35 36
M  V30 36 1 35 37
M  V30 37 1 37 38
M  V30 38 2 38 39
M  V30 39 1 38 40
M  V30 40 1 38 41
M  V30 41 1 34 42
M  V30 42 1 42 43
M  V30 43 2 43 44
M  V30 44 1 43 45
M  V30 45 1 45 46
M  V30 46 1 46 47
M  V30 47 1 45 48
M  V30 48 1 48 49
M  V30 49 2 49 50
M  V30 50 1 49 5
M  V30 51 1 11 7
M  V30 52 1 25 20
M  V30 53 1 1 51
M  V30 54 1 1 52
M  V30 55 1 1 53
M  V30 56 1 4 54
M  V30 57 1 5 55 CFG=3
M  V30 58 1 6 56
M  V30 59 1 6 57
M  V30 60 1 8 58
M  V30 61 1 10 59
M  V30 62 1 12 60
M  V30 63 1 12 61
M  V30 64 1 13 62
M  V30 65 1 13 63
M  V30 66 1 14 64
M  V30 67 1 14 65
M  V30 68 1 15 66
M  V30 69 1 15 67
M  V30 70 1 16 68
M  V30 71 1 16 69
M  V30 72 1 17 70
M  V30 73 1 17 71
M  V30 74 1 18 72
M  V30 75 1 18 73
M  V30 76 1 19 74
M  V30 77 1 19 75
M  V30 78 1 21 76
M  V30 79 1 22 77
M  V30 80 1 23 78
M  V30 81 1 24 79
M  V30 82 1 25 80
M  V30 83 1 26 81
M  V30 84 1 26 82
M  V30 85 1 27 83
M  V30 86 1 27 84
M  V30 87 1 28 85
M  V30 88 1 28 86
M  V30 89 1 29 87
M  V30 90 1 29 88
M  V30 91 1 30 89
M  V30 92 1 30 90
M  V30 93 1 31 91
M  V30 94 1 34 92 CFG=1
M  V30 95 1 35 93 CFG=1
M  V30 96 1 36 94
M  V30 97 1 36 95
M  V30 98 1 36 96
M  V30 99 1 40 97
M  V30 100 1 41 98
M  V30 101 1 42 99
M  V30 102 1 45 100 CFG=1
M  V30 103 1 46 101
M  V30 104 1 46 102
M  V30 105 1 47 103
M  V30 106 1 48 104
M  V30 END BOND
M  V30 END CTAB
M  END
>  <Dataset>  (676) 
ChEMBL_Kinases

>  <Ligand_Instance>  (676) 
nan

>  <PDB_ID>  (676) 
nan

>  <Standardized_SMILES>  (676) 
CC(=O)N[C@H]1Cc2c[n+](cn2CCCCCCCCc2ccccc2)CCCCCNC(=O)[C@H]([C@@H](C)OP(=O)(O)O)NC(=O)[C@H](CO)NC1=O

>  <Name>  (676) 
nan

>  <Pocket>  (676) 
nan

>  <ATP_Site>  (676) 
nan

>  <Peripheral>  (676) 
nan

>  <Num_H_Atoms_ProtBoundConf>  (676) 
nan

>  <Num_Resolved_Atoms>  (676) 
nan

>  <Num_Not_Resolved_Atoms>  (676) 
nan

$$$$
CHEMBL4757688
     RDKit          3D

  0  0  0  0  0  0  0  0  0  0999 V3000
M  V30 BEGIN CTAB
M  V30 COUNTS 60 66 0 0 0
M  V30 BEGIN ATOM
M  V30 1 C 4.537713 -2.226667 -0.192670 0
M  V30 2 C 3.545804 -2.941981 0.481648 0
M  V30 3 N 2.699903 -2.186702 1.229503 0
M  V30 4 C 2.832127 -0.858954 1.295494 0
M  V30 5 C 3.792457 -0.123188 0.647962 0
M  V30 6 C 3.946991 1.311998 0.705444 0
M  V30 7 C 5.211516 1.817048 0.934239 0
M  V30 8 C 5.316740 3.193988 0.990699 0
M  V30 9 N 4.265940 4.022551 0.835602 0
M  V30 10 C 3.018415 3.558063 0.610580 0
M  V30 11 N 1.788952 4.060187 0.413387 0
M  V30 12 C 0.846153 3.119070 0.224912 0
M  V30 13 C -0.527118 3.511322 0.000425 0
M  V30 14 N -0.982281 4.760980 -0.041926 0
M  V30 15 N -2.271662 4.820966 -0.261561 0
M  V30 16 C -2.775434 3.580608 -0.383720 0
M  V30 17 C -4.023524 3.045907 -0.614767 0
M  V30 18 N -4.183204 1.703835 -0.682384 0
M  V30 19 C -3.136633 0.875442 -0.526758 0
M  V30 20 C -3.385742 -0.556933 -0.616596 0
M  V30 21 C -4.676456 -0.970793 -0.854626 0
M  V30 22 N -5.021557 -2.288911 -0.960954 0
M  V30 23 C -4.034782 -3.226195 -0.823297 0
M  V30 24 C -2.704746 -2.891304 -0.581160 0
M  V30 25 C -1.642581 -3.880005 -0.436783 0
M  V30 26 N -1.418791 -4.356244 0.890036 0
M  V30 27 C -2.591813 -5.005259 1.446630 0
M  V30 28 C -2.102798 -5.920772 2.547487 0
M  V30 29 C -0.581001 -5.808771 2.465437 0
M  V30 30 C -0.420110 -5.337500 1.051002 0
M  V30 31 C -2.429571 -1.540245 -0.485746 0
M  V30 32 C -1.897137 1.426153 -0.296435 0
M  V30 33 C -1.662717 2.779479 -0.215597 0
M  V30 34 C 1.564359 1.962022 0.315825 0
M  V30 35 C 2.893490 2.187508 0.550883 0
M  V30 36 C 4.675150 -0.855874 -0.125296 0
M  V30 37 H 5.204246 -2.844361 -0.784307 0
M  V30 38 H 3.437264 -4.007539 0.430762 0
M  V30 39 H 2.125361 -0.351173 1.909248 0
M  V30 40 H 6.124926 1.230559 1.072779 0
M  V30 41 H 6.242016 3.746785 1.163012 0
M  V30 42 H 1.736061 5.113837 0.434050 0
M  V30 43 H -2.807569 5.715011 -0.327983 0
M  V30 44 H -4.851542 3.728196 -0.737021 0
M  V30 45 H -5.506558 -0.283690 -0.974326 0
M  V30 46 H -4.315091 -4.261912 -0.908130 0
M  V30 47 H -0.662459 -3.486116 -0.815449 0
M  V30 48 H -1.873609 -4.765861 -1.065094 0
M  V30 49 H -2.987938 -5.646095 0.630769 0
M  V30 50 H -3.339483 -4.275874 1.811818 0
M  V30 51 H -2.373444 -6.986708 2.342765 0
M  V30 52 H -2.477780 -5.604800 3.520862 0
M  V30 53 H -0.158069 -5.158058 3.234354 0
M  V30 54 H -0.089036 -6.795476 2.557293 0
M  V30 55 H 0.602699 -5.045163 0.788820 0
M  V30 56 H -0.659377 -6.204315 0.395785 0
M  V30 57 H -1.421210 -1.249053 -0.300529 0
M  V30 58 H -1.077123 0.746000 -0.175280 0
M  V30 59 H 1.138860 0.994098 0.213151 0
M  V30 60 H 5.479479 -0.414082 -0.689394 0
M  V30 END ATOM
M  V30 BEGIN BOND
M  V30 1 2 1 2
M  V30 2 1 2 3
M  V30 3 2 3 4
M  V30 4 1 4 5
M  V30 5 1 5 6
M  V30 6 2 6 7
M  V30 7 1 7 8
M  V30 8 2 8 9
M  V30 9 1 9 10
M  V30 10 1 10 11
M  V30 11 1 11 12
M  V30 12 1 12 13
M  V30 13 2 13 14
M  V30 14 1 14 15
M  V30 15 1 15 16
M  V30 16 2 16 17
M  V30 17 1 17 18
M  V30 18 2 18 19
M  V30 19 1 19 20
M  V30 20 2 20 21
M  V30 21 1 21 22
M  V30 22 2 22 23
M  V30 23 1 23 24
M  V30 24 1 24 25
M  V30 25 1 25 26
M  V30 26 1 26 27
M  V30 27 1 27 28
M  V30 28 1 28 29
M  V30 29 1 29 30
M  V30 30 2 24 31
M  V30 31 1 19 32
M  V30 32 2 32 33
M  V30 33 2 12 34
M  V30 34 1 34 35
M  V30 35 2 5 36
M  V30 36 1 36 1
M  V30 37 1 35 6
M  V30 38 2 35 10
M  V30 39 1 33 13
M  V30 40 1 33 16
M  V30 41 1 31 20
M  V30 42 1 30 26
M  V30 43 1 1 37
M  V30 44 1 2 38
M  V30 45 1 4 39
M  V30 46 1 7 40
M  V30 47 1 8 41
M  V30 48 1 11 42
M  V30 49 1 15 43
M  V30 50 1 17 44
M  V30 51 1 21 45
M  V30 52 1 23 46
M  V30 53 1 25 47
M  V30 54 1 25 48
M  V30 55 1 27 49
M  V30 56 1 27 50
M  V30 57 1 28 51
M  V30 58 1 28 52
M  V30 59 1 29 53
M  V30 60 1 29 54
M  V30 61 1 30 55
M  V30 62 1 30 56
M  V30 63 1 31 57
M  V30 64 1 32 58
M  V30 65 1 34 59
M  V30 66 1 36 60
M  V30 END BOND
M  V30 END CTAB
M  END
>  <Dataset>  (677) 
ChEMBL_Kinases

>  <Ligand_Instance>  (677) 
nan

>  <PDB_ID>  (677) 
nan

>  <Standardized_SMILES>  (677) 
c1cncc(-c2ccnc3[nH]c(-c4n[nH]c5cnc(-c6cncc(CN7CCCC7)c6)cc45)cc23)c1

>  <Name>  (677) 
nan

>  <Pocket>  (677) 
nan

>  <ATP_Site>  (677) 
nan

>  <Peripheral>  (677) 
nan

>  <Num_H_Atoms_ProtBoundConf>  (677) 
nan

>  <Num_Resolved_Atoms>  (677) 
nan

>  <Num_Not_Resolved_Atoms>  (677) 
nan

$$$$
CHEMBL4757581
     RDKit          3D

  0  0  0  0  0  0  0  0  0  0999 V3000
M  V30 BEGIN CTAB
M  V30 COUNTS 61 66 0 0 0
M  V30 BEGIN ATOM
M  V30 1 C 4.405190 -0.905828 7.778003 0
M  V30 2 C 4.634316 -0.639262 6.333368 0
M  V30 3 C 3.836189 -0.949676 5.252225 0
M  V30 4 N 4.407369 -0.531790 4.090936 0
M  V30 5 C 3.920317 -0.653159 2.757712 0
M  V30 6 C 4.709896 -1.026609 1.670859 0
M  V30 7 N 4.144704 -1.112308 0.440695 0
M  V30 8 C 2.842754 -0.847684 0.235185 0
M  V30 9 C 2.021788 -0.473095 1.287235 0
M  V30 10 N 0.710339 -0.172341 1.276649 0
M  V30 11 C 0.430992 0.117902 2.562044 0
M  V30 12 C -0.848911 0.518736 3.171057 0
M  V30 13 N -1.149335 0.812961 4.453530 0
M  V30 14 N -2.438673 1.124770 4.547075 0
M  V30 15 C -3.013601 1.039444 3.311789 0
M  V30 16 C -4.292636 1.249495 2.840440 0
M  V30 17 C -4.500349 1.057976 1.480087 0
M  V30 18 C -3.512204 0.676252 0.595487 0
M  V30 19 C -3.767262 0.485641 -0.828423 0
M  V30 20 C -4.976702 0.651979 -1.455208 0
M  V30 21 N -5.124566 0.452199 -2.776163 0
M  V30 22 C -4.127828 0.077266 -3.604100 0
M  V30 23 C -2.910378 -0.090493 -2.975107 0
M  V30 24 N -1.784872 -0.492179 -3.779415 0
M  V30 25 C -1.760014 -1.892658 -3.778526 0
M  V30 26 O -2.594968 -2.640952 -3.167938 0
M  V30 27 C -0.880423 -2.916857 -4.397558 0
M  V30 28 C -1.397906 -4.301346 -4.004766 0
M  V30 29 C -0.738709 -2.783193 -5.881569 0
M  V30 30 C 0.491371 -2.767745 -3.769600 0
M  V30 31 C -2.709016 0.101387 -1.629776 0
M  V30 32 N -2.291763 0.491754 1.136026 0
M  V30 33 C -2.019358 0.655522 2.422921 0
M  V30 34 N 1.547028 -0.006328 3.320362 0
M  V30 35 C 2.584960 -0.384833 2.529465 0
M  V30 36 C 5.572337 0.045758 4.439409 0
M  V30 37 N 5.703652 -0.022296 5.794716 0
M  V30 38 H 3.998923 0.020138 8.255961 0
M  V30 39 H 5.327784 -1.154570 8.312801 0
M  V30 40 H 3.603574 -1.674871 7.892298 0
M  V30 41 H 2.870627 -1.462840 5.304830 0
M  V30 42 H 5.748996 -1.228025 1.892429 0
M  V30 43 H 2.486104 -0.944504 -0.784297 0
M  V30 44 H 0.026992 -0.151194 0.499715 0
M  V30 45 H -2.951327 1.395605 5.420302 0
M  V30 46 H -5.084261 1.545617 3.492274 0
M  V30 47 H -5.510633 1.229913 1.141437 0
M  V30 48 H -5.813240 0.950203 -0.852567 0
M  V30 49 H -4.291843 -0.071809 -4.661348 0
M  V30 50 H -0.986171 -0.147148 -4.358594 0
M  V30 51 H -0.652610 -5.089523 -4.196793 0
M  V30 52 H -2.380279 -4.462102 -4.459100 0
M  V30 53 H -1.584734 -4.261555 -2.900262 0
M  V30 54 H -0.528640 -3.814305 -6.291832 0
M  V30 55 H 0.145574 -2.181221 -6.195625 0
M  V30 56 H -1.649177 -2.459265 -6.413235 0
M  V30 57 H 1.089169 -3.693861 -3.882571 0
M  V30 58 H 1.006541 -1.958188 -4.337609 0
M  V30 59 H 0.363155 -2.450077 -2.727354 0
M  V30 60 H -1.719887 -0.053460 -1.222472 0
M  V30 61 H 6.333817 0.508016 3.827916 0
M  V30 END ATOM
M  V30 BEGIN BOND
M  V30 1 1 1 2
M  V30 2 2 2 3
M  V30 3 1 3 4
M  V30 4 1 4 5
M  V30 5 2 5 6
M  V30 6 1 6 7
M  V30 7 2 7 8
M  V30 8 1 8 9
M  V30 9 1 9 10
M  V30 10 1 10 11
M  V30 11 1 11 12
M  V30 12 2 12 13
M  V30 13 1 13 14
M  V30 14 1 14 15
M  V30 15 2 15 16
M  V30 16 1 16 17
M  V30 17 2 17 18
M  V30 18 1 18 19
M  V30 19 2 19 20
M  V30 20 1 20 21
M  V30 21 2 21 22
M  V30 22 1 22 23
M  V30 23 1 23 24
M  V30 24 1 24 25
M  V30 25 2 25 26
M  V30 26 1 25 27
M  V30 27 1 27 28
M  V30 28 1 27 29
M  V30 29 1 27 30
M  V30 30 2 23 31
M  V30 31 1 18 32
M  V30 32 2 32 33
M  V30 33 2 11 34
M  V30 34 1 34 35
M  V30 35 1 4 36
M  V30 36 2 36 37
M  V30 37 1 37 2
M  V30 38 1 35 5
M  V30 39 2 35 9
M  V30 40 1 33 12
M  V30 41 1 33 15
M  V30 42 1 31 19
M  V30 43 1 1 38
M  V30 44 1 1 39
M  V30 45 1 1 40
M  V30 46 1 3 41
M  V30 47 1 6 42
M  V30 48 1 8 43
M  V30 49 1 10 44
M  V30 50 1 14 45
M  V30 51 1 16 46
M  V30 52 1 17 47
M  V30 53 1 20 48
M  V30 54 1 22 49
M  V30 55 1 24 50
M  V30 56 1 28 51
M  V30 57 1 28 52
M  V30 58 1 28 53
M  V30 59 1 29 54
M  V30 60 1 29 55
M  V30 61 1 29 56
M  V30 62 1 30 57
M  V30 63 1 30 58
M  V30 64 1 30 59
M  V30 65 1 31 60
M  V30 66 1 36 61
M  V30 END BOND
M  V30 END CTAB
M  END
>  <Dataset>  (678) 
ChEMBL_Kinases

>  <Ligand_Instance>  (678) 
nan

>  <PDB_ID>  (678) 
nan

>  <Standardized_SMILES>  (678) 
Cc1cn(-c2cncc3[nH]c(-c4n[nH]c5ccc(-c6cncc(NC(=O)C(C)(C)C)c6)nc45)nc23)cn1

>  <Name>  (678) 
nan

>  <Pocket>  (678) 
nan

>  <ATP_Site>  (678) 
nan

>  <Peripheral>  (678) 
nan

>  <Num_H_Atoms_ProtBoundConf>  (678) 
nan

>  <Num_Resolved_Atoms>  (678) 
nan

>  <Num_Not_Resolved_Atoms>  (678) 
nan

$$$$
CHEMBL4758482
     RDKit          3D

  0  0  0  0  0  0  0  0  0  0999 V3000
M  V30 BEGIN CTAB
M  V30 COUNTS 56 61 0 0 0
M  V30 BEGIN ATOM
M  V30 1 C 6.224851 -0.984823 2.196768 0
M  V30 2 C 5.519425 -0.731158 0.864417 0
M  V30 3 N 4.268222 -1.433978 0.923609 0
M  V30 4 C 3.458247 -1.315858 -0.253569 0
M  V30 5 C 3.085128 0.064368 -0.577670 0
M  V30 6 C 3.875306 0.868118 -1.406714 0
M  V30 7 N 3.551337 2.142740 -1.718160 0
M  V30 8 C 2.419425 2.694769 -1.222276 0
M  V30 9 C 1.572626 1.970172 -0.389474 0
M  V30 10 C 0.336984 2.551911 0.161804 0
M  V30 11 C 0.262632 3.909785 0.451512 0
M  V30 12 N -0.905907 4.356090 0.953290 0
M  V30 13 C -1.970453 3.564617 1.178104 0
M  V30 14 N -3.212665 3.738131 1.653761 0
M  V30 15 N -3.858270 2.600644 1.662968 0
M  V30 16 C -3.113599 1.586921 1.201464 0
M  V30 17 C -3.553371 0.215005 1.092999 0
M  V30 18 C -3.030985 -0.977654 0.675462 0
M  V30 19 C -3.905807 -2.013509 0.787337 0
M  V30 20 C -3.781498 -3.351961 0.481785 0
M  V30 21 C -2.553269 -3.920778 -0.057179 0
M  V30 22 C -1.257850 -3.724688 0.401601 0
M  V30 23 C -0.230290 -4.359357 -0.264049 0
M  V30 24 C -0.435053 -5.173650 -1.357005 0
M  V30 25 N -1.701011 -5.361551 -1.800335 0
M  V30 26 C -2.731260 -4.740315 -1.152660 0
M  V30 27 C -4.865623 -4.173714 0.707002 0
M  V30 28 C -6.020443 -3.585031 1.232971 0
M  V30 29 N -6.094526 -2.272749 1.515866 0
M  V30 30 C -5.048338 -1.447537 1.304694 0
M  V30 31 N -4.795535 -0.138669 1.467969 0
M  V30 32 C -1.928658 2.208149 0.900261 0
M  V30 33 C -0.744392 1.732364 0.387156 0
M  V30 34 C 1.943614 0.671800 -0.098264 0
M  V30 35 H 7.220512 -0.520506 2.240385 0
M  V30 36 H 6.369291 -2.089395 2.301473 0
M  V30 37 H 5.552074 -0.687209 3.022464 0
M  V30 38 H 5.408082 0.356092 0.760797 0
M  V30 39 H 6.152191 -1.165546 0.065911 0
M  V30 40 H 4.326075 -2.375593 1.314069 0
M  V30 41 H 2.579525 -1.967648 -0.122828 0
M  V30 42 H 4.057384 -1.742571 -1.089742 0
M  V30 43 H 4.799044 0.461409 -1.829045 0
M  V30 44 H 2.166750 3.733075 -1.483210 0
M  V30 45 H 1.124083 4.543584 0.268236 0
M  V30 46 H -3.627865 4.637363 1.975741 0
M  V30 47 H -2.031709 -1.085066 0.294985 0
M  V30 48 H -1.167183 -3.079454 1.262429 0
M  V30 49 H 0.773421 -4.168734 0.141137 0
M  V30 50 H 0.466131 -5.601465 -1.772780 0
M  V30 51 H -3.713939 -4.949128 -1.579075 0
M  V30 52 H -4.836093 -5.230772 0.489801 0
M  V30 53 H -6.842739 -4.267371 1.392316 0
M  V30 54 H -5.588022 0.436981 1.862587 0
M  V30 55 H -0.652083 0.708333 0.156045 0
M  V30 56 H 1.309579 0.079150 0.545700 0
M  V30 END ATOM
M  V30 BEGIN BOND
M  V30 1 1 1 2
M  V30 2 1 2 3
M  V30 3 1 3 4
M  V30 4 1 4 5
M  V30 5 2 5 6
M  V30 6 1 6 7
M  V30 7 2 7 8
M  V30 8 1 8 9
M  V30 9 1 9 10
M  V30 10 2 10 11
M  V30 11 1 11 12
M  V30 12 2 12 13
M  V30 13 1 13 14
M  V30 14 1 14 15
M  V30 15 2 15 16
M  V30 16 1 16 17
M  V30 17 2 17 18
M  V30 18 1 18 19
M  V30 19 2 19 20
M  V30 20 1 20 21
M  V30 21 2 21 22
M  V30 22 1 22 23
M  V30 23 2 23 24
M  V30 24 1 24 25
M  V30 25 2 25 26
M  V30 26 1 20 27
M  V30 27 2 27 28
M  V30 28 1 28 29
M  V30 29 2 29 30
M  V30 30 1 30 31
M  V30 31 1 16 32
M  V30 32 2 32 33
M  V30 33 2 9 34
M  V30 34 1 34 5
M  V30 35 1 33 10
M  V30 36 1 32 13
M  V30 37 1 31 17
M  V30 38 1 30 19
M  V30 39 1 26 21
M  V30 40 1 1 35
M  V30 41 1 1 36
M  V30 42 1 1 37
M  V30 43 1 2 38
M  V30 44 1 2 39
M  V30 45 1 3 40
M  V30 46 1 4 41
M  V30 47 1 4 42
M  V30 48 1 6 43
M  V30 49 1 8 44
M  V30 50 1 11 45
M  V30 51 1 14 46
M  V30 52 1 18 47
M  V30 53 1 22 48
M  V30 54 1 23 49
M  V30 55 1 24 50
M  V30 56 1 26 51
M  V30 57 1 27 52
M  V30 58 1 28 53
M  V30 59 1 31 54
M  V30 60 1 33 55
M  V30 61 1 34 56
M  V30 END BOND
M  V30 END CTAB
M  END
>  <Dataset>  (679) 
ChEMBL_Kinases

>  <Ligand_Instance>  (679) 
nan

>  <PDB_ID>  (679) 
nan

>  <Standardized_SMILES>  (679) 
CCNCc1cncc(-c2cnc3[nH]nc(-c4cc5c(-c6cccnc6)ccnc5[nH]4)c3c2)c1

>  <Name>  (679) 
nan

>  <Pocket>  (679) 
nan

>  <ATP_Site>  (679) 
nan

>  <Peripheral>  (679) 
nan

>  <Num_H_Atoms_ProtBoundConf>  (679) 
nan

>  <Num_Resolved_Atoms>  (679) 
nan

>  <Num_Not_Resolved_Atoms>  (679) 
nan

$$$$
CHEMBL3670498
     RDKit          3D

  0  0  0  0  0  0  0  0  0  0999 V3000
M  V30 BEGIN CTAB
M  V30 COUNTS 56 59 0 0 0
M  V30 BEGIN ATOM
M  V30 1 C -3.713369 -7.462423 0.425037 0
M  V30 2 N -3.253788 -6.394080 1.282874 0
M  V30 3 C -2.429634 -6.576113 2.477503 0
M  V30 4 C -3.654754 -5.076211 0.903062 0
M  V30 5 C -4.819039 -4.494469 1.347973 0
M  V30 6 C -5.035938 -3.201494 0.865833 0
M  V30 7 C -4.145503 -2.565830 0.010163 0
M  V30 8 C -2.999644 -3.215180 -0.391067 0
M  V30 9 C -2.111193 -2.488661 -1.288831 0
M  V30 10 O -2.354106 -1.306787 -1.701835 0
M  V30 11 N -0.890668 -3.008792 -1.798012 0
M  V30 12 C -0.254680 -2.047565 -2.651078 0
M  V30 13 C -0.454663 -1.939599 -4.013981 0
M  V30 14 C 0.201843 -0.981831 -4.757479 0
M  V30 15 C 1.078412 -0.105656 -4.149202 0
M  V30 16 C 1.314636 -0.174420 -2.772986 0
M  V30 17 C 2.257031 0.768472 -2.122609 0
M  V30 18 N 1.506326 1.935986 -1.703831 0
M  V30 19 C 2.248850 2.958913 -1.054792 0
M  V30 20 N 3.571506 2.863397 -0.834912 0
M  V30 21 C 4.305492 3.809919 -0.224887 0
M  V30 22 N 3.760991 4.955693 0.224809 0
M  V30 23 C 2.444159 5.126219 0.042727 0
M  V30 24 C 1.846377 6.290420 0.490679 0
M  V30 25 C 2.684804 7.290817 1.148052 0
M  V30 26 N 2.133406 8.507899 1.631134 0
M  V30 27 O 3.916047 7.075257 1.290934 0
M  V30 28 C 0.495578 6.522659 0.331880 0
M  V30 29 C -0.246241 5.524986 -0.304697 0
M  V30 30 C 0.376580 4.382454 -0.737027 0
M  V30 31 C 1.714719 4.140491 -0.585526 0
M  V30 32 C 0.637017 -1.144259 -2.080058 0
M  V30 33 N -2.763001 -4.476373 0.063663 0
M  V30 34 H -3.554189 -8.477555 0.860487 0
M  V30 35 H -3.095959 -7.423663 -0.495149 0
M  V30 36 H -4.773963 -7.327564 0.102331 0
M  V30 37 H -1.882945 -7.548909 2.432802 0
M  V30 38 H -1.637918 -5.798542 2.547212 0
M  V30 39 H -3.028941 -6.574985 3.406760 0
M  V30 40 H -5.471930 -5.019634 2.003554 0
M  V30 41 H -5.952823 -2.684679 1.188209 0
M  V30 42 H -4.375878 -1.558119 -0.327558 0
M  V30 43 H -0.602917 -3.984446 -1.511199 0
M  V30 44 H -1.157715 -2.653496 -4.457463 0
M  V30 45 H 0.034997 -0.908435 -5.828232 0
M  V30 46 H 1.614752 0.660771 -4.692908 0
M  V30 47 H 3.051864 1.022406 -2.854948 0
M  V30 48 H 2.668946 0.318731 -1.194491 0
M  V30 49 H 0.485404 1.981518 -1.887295 0
M  V30 50 H 5.364837 3.602730 -0.112587 0
M  V30 51 H 2.152405 8.968577 2.567141 0
M  V30 52 H 1.568866 9.186482 1.050050 0
M  V30 53 H 0.096691 7.447210 0.702903 0
M  V30 54 H -1.310984 5.705999 -0.430868 0
M  V30 55 H -0.265053 3.683351 -1.207635 0
M  V30 56 H 0.823578 -1.192315 -1.018028 0
M  V30 END ATOM
M  V30 BEGIN BOND
M  V30 1 1 1 2
M  V30 2 1 2 3
M  V30 3 1 2 4
M  V30 4 2 4 5
M  V30 5 1 5 6
M  V30 6 2 6 7
M  V30 7 1 7 8
M  V30 8 1 8 9
M  V30 9 2 9 10
M  V30 10 1 9 11
M  V30 11 1 11 12
M  V30 12 2 12 13
M  V30 13 1 13 14
M  V30 14 2 14 15
M  V30 15 1 15 16
M  V30 16 1 16 17
M  V30 17 1 17 18
M  V30 18 1 18 19
M  V30 19 2 19 20
M  V30 20 1 20 21
M  V30 21 2 21 22
M  V30 22 1 22 23
M  V30 23 2 23 24
M  V30 24 1 24 25
M  V30 25 1 25 26
M  V30 26 2 25 27
M  V30 27 1 24 28
M  V30 28 2 28 29
M  V30 29 1 29 30
M  V30 30 2 30 31
M  V30 31 2 16 32
M  V30 32 2 8 33
M  V30 33 1 33 4
M  V30 34 1 32 12
M  V30 35 1 31 19
M  V30 36 1 31 23
M  V30 37 1 1 34
M  V30 38 1 1 35
M  V30 39 1 1 36
M  V30 40 1 3 37
M  V30 41 1 3 38
M  V30 42 1 3 39
M  V30 43 1 5 40
M  V30 44 1 6 41
M  V30 45 1 7 42
M  V30 46 1 11 43
M  V30 47 1 13 44
M  V30 48 1 14 45
M  V30 49 1 15 46
M  V30 50 1 17 47
M  V30 51 1 17 48
M  V30 52 1 18 49
M  V30 53 1 21 50
M  V30 54 1 26 51
M  V30 55 1 26 52
M  V30 56 1 28 53
M  V30 57 1 29 54
M  V30 58 1 30 55
M  V30 59 1 32 56
M  V30 END BOND
M  V30 END CTAB
M  END
>  <Dataset>  (680) 
ChEMBL_Kinases

>  <Ligand_Instance>  (680) 
nan

>  <PDB_ID>  (680) 
nan

>  <Standardized_SMILES>  (680) 
CN(C)c1cccc(C(=O)Nc2cccc(CNc3ncnc4c(C(N)=O)cccc34)c2)n1

>  <Name>  (680) 
nan

>  <Pocket>  (680) 
nan

>  <ATP_Site>  (680) 
nan

>  <Peripheral>  (680) 
nan

>  <Num_H_Atoms_ProtBoundConf>  (680) 
nan

>  <Num_Resolved_Atoms>  (680) 
nan

>  <Num_Not_Resolved_Atoms>  (680) 
nan

$$$$
CHEMBL3670499
     RDKit          3D

  0  0  0  0  0  0  0  0  0  0999 V3000
M  V30 BEGIN CTAB
M  V30 COUNTS 39 41 0 0 0
M  V30 BEGIN ATOM
M  V30 1 N 2.625950 -6.129088 -0.348963 0
M  V30 2 C 1.727009 -5.046283 -0.489608 0
M  V30 3 O 0.561948 -5.389298 -0.852943 0
M  V30 4 C 2.167525 -3.676597 -0.223670 0
M  V30 5 C 3.464293 -3.422557 0.167567 0
M  V30 6 C 3.813822 -2.103122 0.402669 0
M  V30 7 O 5.112253 -1.873305 0.791870 0
M  V30 8 C 2.857929 -1.124003 0.235167 0
M  V30 9 C 1.556789 -1.341221 -0.153492 0
M  V30 10 C 0.681016 -0.313875 -0.293370 0
M  V30 11 N 1.014165 1.040379 -0.062585 0
M  V30 12 C 0.110481 2.164686 -0.198362 0
M  V30 13 C -1.049659 2.113253 0.723609 0
M  V30 14 C -0.708593 2.687007 1.955486 0
M  V30 15 C -1.608526 2.781439 3.007508 0
M  V30 16 C -2.885916 2.291369 2.831257 0
M  V30 17 C -3.894380 2.365324 3.925971 0
M  V30 18 F -3.271038 1.943409 5.102978 0
M  V30 19 F -4.438614 3.617867 4.078182 0
M  V30 20 F -4.916447 1.458990 3.720917 0
M  V30 21 C -3.226161 1.725993 1.620494 0
M  V30 22 C -2.331829 1.632611 0.575717 0
M  V30 23 N -0.537184 -0.705460 -0.676653 0
M  V30 24 C -0.907006 -1.973739 -0.912160 0
M  V30 25 N -0.019939 -2.977314 -0.766653 0
M  V30 26 C 1.249918 -2.663553 -0.376890 0
M  V30 27 H 2.747630 -6.847878 -1.097679 0
M  V30 28 H 3.320105 -6.575059 0.283107 0
M  V30 29 H 4.107251 -4.286349 0.258973 0
M  V30 30 H 5.427576 -1.030544 1.276542 0
M  V30 31 H 3.245704 -0.139684 0.446366 0
M  V30 32 H 1.973317 1.317024 0.233197 0
M  V30 33 H -0.269075 2.075431 -1.267814 0
M  V30 34 H 0.650892 3.108808 -0.154013 0
M  V30 35 H 0.263109 3.116503 2.241186 0
M  V30 36 H -1.407243 3.204177 3.959595 0
M  V30 37 H -4.208268 1.321951 1.411982 0
M  V30 38 H -2.490746 1.220131 -0.407620 0
M  V30 39 H -1.921092 -2.208227 -1.221752 0
M  V30 END ATOM
M  V30 BEGIN BOND
M  V30 1 1 1 2
M  V30 2 2 2 3
M  V30 3 1 2 4
M  V30 4 2 4 5
M  V30 5 1 5 6
M  V30 6 1 6 7
M  V30 7 2 6 8
M  V30 8 1 8 9
M  V30 9 2 9 10
M  V30 10 1 10 11
M  V30 11 1 11 12
M  V30 12 1 12 13
M  V30 13 2 13 14
M  V30 14 1 14 15
M  V30 15 2 15 16
M  V30 16 1 16 17
M  V30 17 1 17 18
M  V30 18 1 17 19
M  V30 19 1 17 20
M  V30 20 1 16 21
M  V30 21 2 21 22
M  V30 22 1 10 23
M  V30 23 2 23 24
M  V30 24 1 24 25
M  V30 25 2 25 26
M  V30 26 1 26 4
M  V30 27 1 26 9
M  V30 28 1 22 13
M  V30 29 1 1 27
M  V30 30 1 1 28
M  V30 31 1 5 29
M  V30 32 1 7 30
M  V30 33 1 8 31
M  V30 34 1 11 32
M  V30 35 1 12 33
M  V30 36 1 12 34
M  V30 37 1 14 35
M  V30 38 1 15 36
M  V30 39 1 21 37
M  V30 40 1 22 38
M  V30 41 1 24 39
M  V30 END BOND
M  V30 END CTAB
M  END
>  <Dataset>  (681) 
ChEMBL_Kinases

>  <Ligand_Instance>  (681) 
nan

>  <PDB_ID>  (681) 
nan

>  <Standardized_SMILES>  (681) 
NC(=O)c1cc(O)cc2c(NCc3ccc(C(F)(F)F)cc3)ncnc12

>  <Name>  (681) 
nan

>  <Pocket>  (681) 
nan

>  <ATP_Site>  (681) 
nan

>  <Peripheral>  (681) 
nan

>  <Num_H_Atoms_ProtBoundConf>  (681) 
nan

>  <Num_Resolved_Atoms>  (681) 
nan

>  <Num_Not_Resolved_Atoms>  (681) 
nan

$$$$
CHEMBL3670501
     RDKit          3D

  0  0  0  0  0  0  0  0  0  0999 V3000
M  V30 BEGIN CTAB
M  V30 COUNTS 58 61 0 0 0
M  V30 BEGIN ATOM
M  V30 1 N 3.269565 -2.105178 3.575153 0
M  V30 2 C 2.902268 -0.823983 3.094870 0
M  V30 3 O 3.209991 0.137034 3.853965 0
M  V30 4 C 2.232792 -0.629155 1.843395 0
M  V30 5 C 1.787174 0.594627 1.432386 0
M  V30 6 C 1.145264 0.853608 0.258458 0
M  V30 7 O 0.636176 1.962012 -0.310504 0
M  V30 8 C 0.604114 3.236978 0.201092 0
M  V30 9 C -0.231153 3.363098 1.449874 0
M  V30 10 N -0.266927 4.713267 1.978321 0
M  V30 11 C -0.973933 5.657177 1.186919 0
M  V30 12 C -2.324740 6.039928 1.717206 0
M  V30 13 O -2.443558 6.080045 3.079435 0
M  V30 14 C -2.131483 4.784059 3.559824 0
M  V30 15 C -0.611552 4.715363 3.373005 0
M  V30 16 C 0.971102 -0.291193 -0.535373 0
M  V30 17 C 1.397981 -1.542708 -0.173968 0
M  V30 18 C 1.213534 -2.645982 -0.979694 0
M  V30 19 N 0.556724 -2.592043 -2.240535 0
M  V30 20 C 0.330203 -3.680509 -3.129937 0
M  V30 21 C -0.431578 -4.823367 -2.601674 0
M  V30 22 C 0.165373 -5.953475 -2.084251 0
M  V30 23 C -0.547589 -7.019438 -1.572170 0
M  V30 24 C -1.925922 -6.998210 -1.556880 0
M  V30 25 C -2.709590 -8.136236 -1.008192 0
M  V30 26 F -3.334828 -8.794185 -2.064618 0
M  V30 27 F -1.798075 -9.062690 -0.475377 0
M  V30 28 F -3.613745 -7.752515 -0.044381 0
M  V30 29 C -2.546051 -5.878458 -2.069760 0
M  V30 30 C -1.832539 -4.819176 -2.578452 0
M  V30 31 N 1.653215 -3.818965 -0.571456 0
M  V30 32 C 2.273132 -3.974673 0.601203 0
M  V30 33 N 2.471516 -2.926039 1.414299 0
M  V30 34 C 2.038410 -1.723654 1.029963 0
M  V30 35 H 4.169869 -2.655547 3.453271 0
M  V30 36 H 2.514658 -2.554201 4.134261 0
M  V30 37 H 1.983047 1.398598 2.085959 0
M  V30 38 H 1.662187 3.563188 0.438348 0
M  V30 39 H 0.272118 4.003639 -0.541862 0
M  V30 40 H -1.288354 3.098780 1.209051 0
M  V30 41 H 0.190621 2.738748 2.237942 0
M  V30 42 H -0.347948 6.560564 1.010635 0
M  V30 43 H -1.155358 5.226220 0.178552 0
M  V30 44 H -3.139765 5.412299 1.274872 0
M  V30 45 H -2.539201 7.072565 1.333149 0
M  V30 46 H -2.613279 4.046978 2.894444 0
M  V30 47 H -2.369446 4.677097 4.616471 0
M  V30 48 H -0.197412 5.560912 3.947778 0
M  V30 49 H -0.268469 3.764254 3.820278 0
M  V30 50 H 0.483252 -0.207292 -1.473672 0
M  V30 51 H 0.171148 -1.696703 -2.618776 0
M  V30 52 H 1.349249 -4.112022 -3.386787 0
M  V30 53 H -0.069369 -3.340578 -4.081976 0
M  V30 54 H 1.236583 -6.080523 -2.056336 0
M  V30 55 H -0.058275 -7.903121 -1.167577 0
M  V30 56 H -3.625572 -5.855091 -2.060636 0
M  V30 57 H -2.390357 -3.973944 -2.962964 0
M  V30 58 H 2.639415 -4.928035 0.950694 0
M  V30 END ATOM
M  V30 BEGIN BOND
M  V30 1 1 1 2
M  V30 2 2 2 3
M  V30 3 1 2 4
M  V30 4 2 4 5
M  V30 5 1 5 6
M  V30 6 1 6 7
M  V30 7 1 7 8
M  V30 8 1 8 9
M  V30 9 1 9 10
M  V30 10 1 10 11
M  V30 11 1 11 12
M  V30 12 1 12 13
M  V30 13 1 13 14
M  V30 14 1 14 15
M  V30 15 2 6 16
M  V30 16 1 16 17
M  V30 17 2 17 18
M  V30 18 1 18 19
M  V30 19 1 19 20
M  V30 20 1 20 21
M  V30 21 2 21 22
M  V30 22 1 22 23
M  V30 23 2 23 24
M  V30 24 1 24 25
M  V30 25 1 25 26
M  V30 26 1 25 27
M  V30 27 1 25 28
M  V30 28 1 24 29
M  V30 29 2 29 30
M  V30 30 1 18 31
M  V30 31 2 31 32
M  V30 32 1 32 33
M  V30 33 2 33 34
M  V30 34 1 34 4
M  V30 35 1 15 10
M  V30 36 1 34 17
M  V30 37 1 30 21
M  V30 38 1 1 35
M  V30 39 1 1 36
M  V30 40 1 5 37
M  V30 41 1 8 38
M  V30 42 1 8 39
M  V30 43 1 9 40
M  V30 44 1 9 41
M  V30 45 1 11 42
M  V30 46 1 11 43
M  V30 47 1 12 44
M  V30 48 1 12 45
M  V30 49 1 14 46
M  V30 50 1 14 47
M  V30 51 1 15 48
M  V30 52 1 15 49
M  V30 53 1 16 50
M  V30 54 1 19 51
M  V30 55 1 20 52
M  V30 56 1 20 53
M  V30 57 1 22 54
M  V30 58 1 23 55
M  V30 59 1 29 56
M  V30 60 1 30 57
M  V30 61 1 32 58
M  V30 END BOND
M  V30 END CTAB
M  END
>  <Dataset>  (682) 
ChEMBL_Kinases

>  <Ligand_Instance>  (682) 
nan

>  <PDB_ID>  (682) 
nan

>  <Standardized_SMILES>  (682) 
NC(=O)c1cc(OCCN2CCOCC2)cc2c(NCc3ccc(C(F)(F)F)cc3)ncnc12

>  <Name>  (682) 
nan

>  <Pocket>  (682) 
nan

>  <ATP_Site>  (682) 
nan

>  <Peripheral>  (682) 
nan

>  <Num_H_Atoms_ProtBoundConf>  (682) 
nan

>  <Num_Resolved_Atoms>  (682) 
nan

>  <Num_Not_Resolved_Atoms>  (682) 
nan

$$$$
CHEMBL3670504
     RDKit          3D

  0  0  0  0  0  0  0  0  0  0999 V3000
M  V30 BEGIN CTAB
M  V30 COUNTS 63 65 0 0 0
M  V30 BEGIN ATOM
M  V30 1 C 4.549003 -3.258197 5.056577 0
M  V30 2 O 3.611217 -3.279532 4.031433 0
M  V30 3 C 3.559213 -2.017718 3.397032 0
M  V30 4 C 2.567090 -1.998068 2.289289 0
M  V30 5 N 2.490555 -0.692908 1.606968 0
M  V30 6 C 1.887947 0.279716 2.512311 0
M  V30 7 C 3.796707 -0.280153 1.202969 0
M  V30 8 C 3.882040 0.935424 0.328804 0
M  V30 9 C 3.178391 0.784691 -0.986471 0
M  V30 10 O 1.822951 0.547672 -0.961789 0
M  V30 11 C 0.807397 1.321853 -0.497229 0
M  V30 12 C 0.773727 2.567253 0.073875 0
M  V30 13 C -0.363140 3.213983 0.496053 0
M  V30 14 C -0.250433 4.539736 1.086810 0
M  V30 15 N 1.014743 5.168600 1.228066 0
M  V30 16 O -1.307658 5.101050 1.463936 0
M  V30 17 C -1.571871 2.575547 0.340455 0
M  V30 18 N -2.698773 3.208204 0.753884 0
M  V30 19 C -3.892682 2.609666 0.613442 0
M  V30 20 N -3.942438 1.389524 0.062495 0
M  V30 21 C -2.846184 0.722125 -0.363164 0
M  V30 22 N -2.991556 -0.570575 -0.935180 0
M  V30 23 C -4.308571 -1.142619 -1.052580 0
M  V30 24 C -4.380971 -2.469456 -1.645234 0
M  V30 25 C -4.281514 -3.499221 -0.725779 0
M  V30 26 C -4.326460 -4.843307 -1.075084 0
M  V30 27 C -4.481692 -5.115388 -2.438786 0
M  V30 28 C -4.543614 -6.513587 -2.949696 0
M  V30 29 F -5.699113 -6.796324 -3.630940 0
M  V30 30 F -4.336215 -7.353992 -1.875794 0
M  V30 31 F -3.440073 -6.712116 -3.790314 0
M  V30 32 C -4.584324 -4.110623 -3.382310 0
M  V30 33 C -4.533719 -2.769519 -2.983766 0
M  V30 34 C -1.612958 1.320883 -0.226875 0
M  V30 35 C -0.446605 0.712699 -0.634734 0
M  V30 36 H 5.545148 -3.019736 4.629188 0
M  V30 37 H 4.544400 -4.235256 5.577245 0
M  V30 38 H 4.320054 -2.422298 5.777235 0
M  V30 39 H 4.601699 -1.836268 3.058729 0
M  V30 40 H 3.360111 -1.262417 4.171737 0
M  V30 41 H 1.560201 -2.207702 2.718931 0
M  V30 42 H 2.759683 -2.746641 1.504704 0
M  V30 43 H 1.983465 0.011374 3.566181 0
M  V30 44 H 2.403964 1.242017 2.379337 0
M  V30 45 H 0.813537 0.363220 2.210282 0
M  V30 46 H 4.400820 -0.051627 2.120269 0
M  V30 47 H 4.315433 -1.117705 0.667910 0
M  V30 48 H 3.541710 1.813542 0.875528 0
M  V30 49 H 4.992861 1.045476 0.109406 0
M  V30 50 H 3.445491 1.647203 -1.676354 0
M  V30 51 H 3.666604 -0.091902 -1.524782 0
M  V30 52 H 1.716636 3.054425 0.177669 0
M  V30 53 H 1.221148 4.659859 2.130264 0
M  V30 54 H 1.164186 5.826132 0.406791 0
M  V30 55 H -4.855088 3.021988 0.907792 0
M  V30 56 H -2.286018 -1.205266 -1.300551 0
M  V30 57 H -4.776269 -1.092826 -0.044377 0
M  V30 58 H -4.921330 -0.409386 -1.656758 0
M  V30 59 H -4.159111 -3.356211 0.353903 0
M  V30 60 H -4.248635 -5.649718 -0.359708 0
M  V30 61 H -4.704284 -4.276583 -4.426605 0
M  V30 62 H -4.605848 -1.946736 -3.653353 0
M  V30 63 H -0.556449 -0.264846 -1.068992 0
M  V30 END ATOM
M  V30 BEGIN BOND
M  V30 1 1 1 2
M  V30 2 1 2 3
M  V30 3 1 3 4
M  V30 4 1 4 5
M  V30 5 1 5 6
M  V30 6 1 5 7
M  V30 7 1 7 8
M  V30 8 1 8 9
M  V30 9 1 9 10
M  V30 10 1 10 11
M  V30 11 2 11 12
M  V30 12 1 12 13
M  V30 13 1 13 14
M  V30 14 1 14 15
M  V30 15 2 14 16
M  V30 16 2 13 17
M  V30 17 1 17 18
M  V30 18 2 18 19
M  V30 19 1 19 20
M  V30 20 2 20 21
M  V30 21 1 21 22
M  V30 22 1 22 23
M  V30 23 1 23 24
M  V30 24 2 24 25
M  V30 25 1 25 26
M  V30 26 2 26 27
M  V30 27 1 27 28
M  V30 28 1 28 29
M  V30 29 1 28 30
M  V30 30 1 28 31
M  V30 31 1 27 32
M  V30 32 2 32 33
M  V30 33 1 21 34
M  V30 34 2 34 35
M  V30 35 1 35 11
M  V30 36 1 34 17
M  V30 37 1 33 24
M  V30 38 1 1 36
M  V30 39 1 1 37
M  V30 40 1 1 38
M  V30 41 1 3 39
M  V30 42 1 3 40
M  V30 43 1 4 41
M  V30 44 1 4 42
M  V30 45 1 6 43
M  V30 46 1 6 44
M  V30 47 1 6 45
M  V30 48 1 7 46
M  V30 49 1 7 47
M  V30 50 1 8 48
M  V30 51 1 8 49
M  V30 52 1 9 50
M  V30 53 1 9 51
M  V30 54 1 12 52
M  V30 55 1 15 53
M  V30 56 1 15 54
M  V30 57 1 19 55
M  V30 58 1 22 56
M  V30 59 1 23 57
M  V30 60 1 23 58
M  V30 61 1 25 59
M  V30 62 1 26 60
M  V30 63 1 32 61
M  V30 64 1 33 62
M  V30 65 1 35 63
M  V30 END BOND
M  V30 END CTAB
M  END
>  <Dataset>  (683) 
ChEMBL_Kinases

>  <Ligand_Instance>  (683) 
nan

>  <PDB_ID>  (683) 
nan

>  <Standardized_SMILES>  (683) 
COCCN(C)CCCOc1cc(C(N)=O)c2ncnc(NCc3ccc(C(F)(F)F)cc3)c2c1

>  <Name>  (683) 
nan

>  <Pocket>  (683) 
nan

>  <ATP_Site>  (683) 
nan

>  <Peripheral>  (683) 
nan

>  <Num_H_Atoms_ProtBoundConf>  (683) 
nan

>  <Num_Resolved_Atoms>  (683) 
nan

>  <Num_Not_Resolved_Atoms>  (683) 
nan

$$$$
CHEMBL3670505
     RDKit          3D

  0  0  0  0  0  0  0  0  0  0999 V3000
M  V30 BEGIN CTAB
M  V30 COUNTS 69 72 0 0 0
M  V30 BEGIN ATOM
M  V30 1 N 4.976729 0.433379 3.635552 0
M  V30 2 C 4.384138 1.026568 2.504712 0
M  V30 3 O 5.450025 1.602564 2.658169 0
M  V30 4 C 3.123847 0.732721 1.878095 0
M  V30 5 C 2.677189 0.940926 0.591353 0
M  V30 6 C 1.326985 0.612176 0.336357 0
M  V30 7 O 1.040111 0.893070 -0.998645 0
M  V30 8 C 2.031171 1.383738 -1.830972 0
M  V30 9 C 1.692274 1.756330 -3.214387 0
M  V30 10 C 1.056995 0.805178 -4.133748 0
M  V30 11 N -0.258239 0.413180 -3.880658 0
M  V30 12 C -1.244286 1.439411 -4.083217 0
M  V30 13 C -1.796253 1.817725 -2.745041 0
M  V30 14 N -2.410927 0.714014 -2.065513 0
M  V30 15 C -2.796692 1.072848 -0.740445 0
M  V30 16 C -3.915635 2.102333 -0.731547 0
M  V30 17 O -5.047501 1.624630 -1.374823 0
M  V30 18 C -1.756597 -0.518265 -2.135680 0
M  V30 19 C -0.630236 -0.681501 -3.121997 0
M  V30 20 C 0.558644 0.094583 1.417399 0
M  V30 21 C 0.959904 -0.176004 2.886900 0
M  V30 22 C -0.130314 -0.530248 2.990633 0
M  V30 23 N -1.492698 -0.961863 3.156551 0
M  V30 24 C -2.211830 -1.684606 2.126881 0
M  V30 25 C -1.629031 -3.103607 2.262605 0
M  V30 26 C -2.341558 -3.964286 3.130631 0
M  V30 27 C -1.722439 -5.192476 3.215000 0
M  V30 28 C -0.591940 -5.668279 2.618917 0
M  V30 29 C -0.201918 -7.046239 2.941553 0
M  V30 30 F -0.152842 -7.251546 4.320285 0
M  V30 31 F -1.130757 -7.924142 2.422942 0
M  V30 32 F 1.073222 -7.303696 2.490685 0
M  V30 33 C -0.002916 -4.745889 1.806046 0
M  V30 34 C -0.463143 -3.472630 1.591951 0
M  V30 35 N 0.176493 -0.623030 4.421312 0
M  V30 36 C 1.431213 -0.298329 4.881912 0
M  V30 37 N 2.439979 0.116093 4.111979 0
M  V30 38 C 2.250584 0.245765 2.746953 0
M  V30 39 H 5.042863 -0.180102 4.490947 0
M  V30 40 H 4.766128 -0.238308 4.403885 0
M  V30 41 H 3.503605 1.318426 0.061103 0
M  V30 42 H 2.891697 0.635479 -1.910414 0
M  V30 43 H 2.503094 2.257192 -1.283283 0
M  V30 44 H 2.692129 2.080505 -3.670566 0
M  V30 45 H 1.158010 2.753651 -3.163844 0
M  V30 46 H 1.082679 1.215887 -5.181985 0
M  V30 47 H 1.723933 -0.095461 -4.206117 0
M  V30 48 H -2.066340 1.018145 -4.699897 0
M  V30 49 H -0.834083 2.323825 -4.575184 0
M  V30 50 H -1.022720 2.359078 -2.176575 0
M  V30 51 H -2.601932 2.577542 -2.934223 0
M  V30 52 H -3.251384 0.164515 -0.285356 0
M  V30 53 H -2.000124 1.458415 -0.089193 0
M  V30 54 H -3.592678 3.101317 -1.081329 0
M  V30 55 H -4.173225 2.251529 0.342989 0
M  V30 56 H -5.529733 0.949761 -0.821044 0
M  V30 57 H -2.545656 -1.284142 -2.427298 0
M  V30 58 H -1.438253 -0.877539 -1.138454 0
M  V30 59 H 0.244707 -1.124759 -2.598424 0
M  V30 60 H -0.899833 -1.517380 -3.863389 0
M  V30 61 H -0.387346 -0.020801 0.820773 0
M  V30 62 H -2.165240 -0.792890 3.966201 0
M  V30 63 H -2.130282 -1.347466 1.113956 0
M  V30 64 H -3.275352 -1.733245 2.379700 0
M  V30 65 H -3.244615 -3.684342 3.642302 0
M  V30 66 H -2.295168 -5.861208 3.894857 0
M  V30 67 H 0.913173 -5.099408 1.302245 0
M  V30 68 H 0.024197 -2.767860 0.939922 0
M  V30 69 H 1.794833 -0.326728 5.963322 0
M  V30 END ATOM
M  V30 BEGIN BOND
M  V30 1 1 1 2
M  V30 2 2 2 3
M  V30 3 1 2 4
M  V30 4 2 4 5
M  V30 5 1 5 6
M  V30 6 1 6 7
M  V30 7 1 7 8
M  V30 8 1 8 9
M  V30 9 1 9 10
M  V30 10 1 10 11
M  V30 11 1 11 12
M  V30 12 1 12 13
M  V30 13 1 13 14
M  V30 14 1 14 15
M  V30 15 1 15 16
M  V30 16 1 16 17
M  V30 17 1 14 18
M  V30 18 1 18 19
M  V30 19 2 6 20
M  V30 20 1 20 21
M  V30 21 2 21 22
M  V30 22 1 22 23
M  V30 23 1 23 24
M  V30 24 1 24 25
M  V30 25 2 25 26
M  V30 26 1 26 27
M  V30 27 2 27 28
M  V30 28 1 28 29
M  V30 29 1 29 30
M  V30 30 1 29 31
M  V30 31 1 29 32
M  V30 32 1 28 33
M  V30 33 2 33 34
M  V30 34 1 22 35
M  V30 35 2 35 36
M  V30 36 1 36 37
M  V30 37 2 37 38
M  V30 38 1 38 4
M  V30 39 1 19 11
M  V30 40 1 38 21
M  V30 41 1 34 25
M  V30 42 1 1 39
M  V30 43 1 1 40
M  V30 44 1 5 41
M  V30 45 1 8 42
M  V30 46 1 8 43
M  V30 47 1 9 44
M  V30 48 1 9 45
M  V30 49 1 10 46
M  V30 50 1 10 47
M  V30 51 1 12 48
M  V30 52 1 12 49
M  V30 53 1 13 50
M  V30 54 1 13 51
M  V30 55 1 15 52
M  V30 56 1 15 53
M  V30 57 1 16 54
M  V30 58 1 16 55
M  V30 59 1 17 56
M  V30 60 1 18 57
M  V30 61 1 18 58
M  V30 62 1 19 59
M  V30 63 1 19 60
M  V30 64 1 20 61
M  V30 65 1 23 62
M  V30 66 1 24 63
M  V30 67 1 24 64
M  V30 68 1 26 65
M  V30 69 1 27 66
M  V30 70 1 33 67
M  V30 71 1 34 68
M  V30 72 1 36 69
M  V30 END BOND
M  V30 END CTAB
M  END
>  <Dataset>  (684) 
ChEMBL_Kinases

>  <Ligand_Instance>  (684) 
nan

>  <PDB_ID>  (684) 
nan

>  <Standardized_SMILES>  (684) 
NC(=O)c1cc(OCCCN2CCN(CCO)CC2)cc2c(NCc3ccc(C(F)(F)F)cc3)ncnc12

>  <Name>  (684) 
nan

>  <Pocket>  (684) 
nan

>  <ATP_Site>  (684) 
nan

>  <Peripheral>  (684) 
nan

>  <Num_H_Atoms_ProtBoundConf>  (684) 
nan

>  <Num_Resolved_Atoms>  (684) 
nan

>  <Num_Not_Resolved_Atoms>  (684) 
nan

$$$$
CHEMBL3670506
     RDKit          3D

  0  0  0  0  0  0  0  0  0  0999 V3000
M  V30 BEGIN CTAB
M  V30 COUNTS 61 64 0 0 0
M  V30 BEGIN ATOM
M  V30 1 N 2.009415 -1.103804 6.635902 0
M  V30 2 C 1.049775 -1.821296 5.898108 0
M  V30 3 O 0.557640 -2.848619 6.419550 0
M  V30 4 C 0.696766 -1.317085 4.578568 0
M  V30 5 C 1.253407 -0.166460 4.006620 0
M  V30 6 C 0.863010 0.258935 2.726823 0
M  V30 7 O 1.532039 1.378615 2.400880 0
M  V30 8 C 1.503899 2.168436 1.241422 0
M  V30 9 C 1.932890 1.483241 -0.005753 0
M  V30 10 C 1.955712 2.276741 -1.263680 0
M  V30 11 N 0.763295 2.858359 -1.734491 0
M  V30 12 C 0.202703 3.951525 -1.035519 0
M  V30 13 C -0.235385 5.080411 -1.967936 0
M  V30 14 O 0.704226 5.413841 -2.904528 0
M  V30 15 C 1.293439 4.340980 -3.529416 0
M  V30 16 C 0.665262 3.016593 -3.150510 0
M  V30 17 C -0.078816 -0.525544 2.109937 0
M  V30 18 C -0.649005 -1.657566 2.631435 0
M  V30 19 C -1.587473 -2.369524 1.918063 0
M  V30 20 N -2.023446 -1.986176 0.628540 0
M  V30 21 C -2.993636 -2.652729 -0.210105 0
M  V30 22 C -2.470660 -4.002896 -0.544879 0
M  V30 23 C -1.624518 -3.953675 -1.647162 0
M  V30 24 C -1.017765 -5.101713 -2.157861 0
M  V30 25 C -1.265526 -6.313448 -1.551590 0
M  V30 26 C -0.706874 -7.639314 -1.959232 0
M  V30 27 F -0.155846 -7.517357 -3.202603 0
M  V30 28 F -1.775359 -8.535201 -1.973708 0
M  V30 29 F 0.223260 -8.045717 -1.013489 0
M  V30 30 C -2.114770 -6.357722 -0.446353 0
M  V30 31 C -2.702152 -5.209029 0.038290 0
M  V30 32 N -2.056785 -3.445466 2.541900 0
M  V30 33 C -1.670595 -3.824938 3.750988 0
M  V30 34 N -0.758499 -3.154387 4.472948 0
M  V30 35 C -0.244152 -2.045864 3.885939 0
M  V30 36 H 2.667591 -0.541343 7.194611 0
M  V30 37 H 3.043266 -1.175389 6.797633 0
M  V30 38 H 1.979127 0.293383 4.679696 0
M  V30 39 H 0.466935 2.602587 1.151617 0
M  V30 40 H 2.159904 3.039699 1.442500 0
M  V30 41 H 3.011173 1.130442 0.136992 0
M  V30 42 H 1.400695 0.529289 -0.228687 0
M  V30 43 H 2.293146 1.551027 -2.076647 0
M  V30 44 H 2.802312 3.026115 -1.269828 0
M  V30 45 H 0.813059 4.425207 -0.260122 0
M  V30 46 H -0.759859 3.629706 -0.549162 0
M  V30 47 H -1.227896 4.810373 -2.415598 0
M  V30 48 H -0.432830 5.958052 -1.320912 0
M  V30 49 H 2.351457 4.312113 -3.175476 0
M  V30 50 H 1.275361 4.466164 -4.651236 0
M  V30 51 H 1.173281 2.218077 -3.721021 0
M  V30 52 H -0.402896 2.999405 -3.434852 0
M  V30 53 H -0.341665 -0.147957 1.151515 0
M  V30 54 H -1.671100 -1.154879 0.145605 0
M  V30 55 H -3.283639 -2.112839 -1.110362 0
M  V30 56 H -3.924892 -2.774376 0.414629 0
M  V30 57 H -1.322375 -3.077292 -2.243471 0
M  V30 58 H -0.352847 -5.132402 -3.007200 0
M  V30 59 H -2.373798 -7.262447 0.102166 0
M  V30 60 H -3.362664 -5.187049 0.870457 0
M  V30 61 H -2.084136 -4.718430 4.225488 0
M  V30 END ATOM
M  V30 BEGIN BOND
M  V30 1 1 1 2
M  V30 2 2 2 3
M  V30 3 1 2 4
M  V30 4 2 4 5
M  V30 5 1 5 6
M  V30 6 1 6 7
M  V30 7 1 7 8
M  V30 8 1 8 9
M  V30 9 1 9 10
M  V30 10 1 10 11
M  V30 11 1 11 12
M  V30 12 1 12 13
M  V30 13 1 13 14
M  V30 14 1 14 15
M  V30 15 1 15 16
M  V30 16 2 6 17
M  V30 17 1 17 18
M  V30 18 2 18 19
M  V30 19 1 19 20
M  V30 20 1 20 21
M  V30 21 1 21 22
M  V30 22 2 22 23
M  V30 23 1 23 24
M  V30 24 2 24 25
M  V30 25 1 25 26
M  V30 26 1 26 27
M  V30 27 1 26 28
M  V30 28 1 26 29
M  V30 29 1 25 30
M  V30 30 2 30 31
M  V30 31 1 19 32
M  V30 32 2 32 33
M  V30 33 1 33 34
M  V30 34 2 34 35
M  V30 35 1 35 4
M  V30 36 1 16 11
M  V30 37 1 35 18
M  V30 38 1 31 22
M  V30 39 1 1 36
M  V30 40 1 1 37
M  V30 41 1 5 38
M  V30 42 1 8 39
M  V30 43 1 8 40
M  V30 44 1 9 41
M  V30 45 1 9 42
M  V30 46 1 10 43
M  V30 47 1 10 44
M  V30 48 1 12 45
M  V30 49 1 12 46
M  V30 50 1 13 47
M  V30 51 1 13 48
M  V30 52 1 15 49
M  V30 53 1 15 50
M  V30 54 1 16 51
M  V30 55 1 16 52
M  V30 56 1 17 53
M  V30 57 1 20 54
M  V30 58 1 21 55
M  V30 59 1 21 56
M  V30 60 1 23 57
M  V30 61 1 24 58
M  V30 62 1 30 59
M  V30 63 1 31 60
M  V30 64 1 33 61
M  V30 END BOND
M  V30 END CTAB
M  END
>  <Dataset>  (685) 
ChEMBL_Kinases

>  <Ligand_Instance>  (685) 
nan

>  <PDB_ID>  (685) 
nan

>  <Standardized_SMILES>  (685) 
NC(=O)c1cc(OCCCN2CCOCC2)cc2c(NCc3ccc(C(F)(F)F)cc3)ncnc12

>  <Name>  (685) 
nan

>  <Pocket>  (685) 
nan

>  <ATP_Site>  (685) 
nan

>  <Peripheral>  (685) 
nan

>  <Num_H_Atoms_ProtBoundConf>  (685) 
nan

>  <Num_Resolved_Atoms>  (685) 
nan

>  <Num_Not_Resolved_Atoms>  (685) 
nan

$$$$
CHEMBL5078362
     RDKit          3D

  0  0  0  0  0  0  0  0  0  0999 V3000
M  V30 BEGIN CTAB
M  V30 COUNTS 158 164 0 0 0
M  V30 BEGIN ATOM
M  V30 1 C 8.842081 -4.056358 -0.049996 0
M  V30 2 C 9.360837 -3.095320 -1.056692 0
M  V30 3 N 10.597447 -2.726541 -0.870124 0
M  V30 4 C 11.108618 -1.855591 -1.770325 0
M  V30 5 S 9.720548 -1.558884 -2.944551 0
M  V30 6 C 8.576672 -2.647817 -2.101203 0
M  V30 7 C 7.267414 -2.848665 -2.551453 0
M  V30 8 C 6.305495 -3.638218 -2.027398 0
M  V30 9 C 5.019107 -3.819268 -2.478300 0
M  V30 10 C 4.644577 -3.106684 -3.617114 0
M  V30 11 C 3.257602 -3.283905 -4.125108 0 CFG=2
M  V30 12 C 3.307267 -4.181976 -5.349832 0
M  V30 13 N 2.642247 -2.013322 -4.430871 0
M  V30 14 C 1.607468 -1.552987 -3.527780 0
M  V30 15 O 1.420963 -2.392751 -2.556656 0
M  V30 16 C 0.639679 -0.514526 -3.219345 0 CFG=2
M  V30 17 C -0.740123 -1.212838 -3.204123 0
M  V30 18 C -0.955775 -1.369422 -4.690587 0 CFG=1
M  V30 19 O -2.314830 -1.473470 -5.004640 0
M  V30 20 C -0.325423 -0.151155 -5.269628 0
M  V30 21 N 0.398875 0.511341 -4.174944 0
M  V30 22 C 0.766523 1.860923 -3.954579 0
M  V30 23 O 1.472414 2.231708 -2.953731 0
M  V30 24 C 0.657881 3.250901 -4.469457 0 CFG=1
M  V30 25 N 1.352623 4.204042 -3.658879 0
M  V30 26 C 0.889273 4.450100 -2.345290 0
M  V30 27 O -0.057678 3.951883 -1.689576 0
M  V30 28 C 1.377474 5.392106 -1.287859 0
M  V30 29 C 1.186473 4.829344 0.071448 0
M  V30 30 C 1.622376 5.762396 1.208321 0
M  V30 31 C 1.501734 4.854693 2.449169 0
M  V30 32 C 1.867426 5.549739 3.704692 0
M  V30 33 C 1.853266 4.570857 4.891925 0
M  V30 34 C 2.898839 3.526629 4.645864 0
M  V30 35 C 2.942402 2.520958 5.769437 0
M  V30 36 C 4.057021 1.510365 5.467732 0
M  V30 37 C 3.850671 0.825503 4.170835 0
M  V30 38 C 2.683558 -0.056503 4.045653 0
M  V30 39 O 2.141931 -0.621160 5.026330 0
M  V30 40 N 2.140218 -0.283361 2.752859 0
M  V30 41 C 1.044929 -1.130201 2.377697 0
M  V30 42 C -0.248097 -0.931598 3.084695 0
M  V30 43 N -0.750507 0.396451 2.976951 0
M  V30 44 C -2.077337 0.489186 3.613328 0
M  V30 45 C -3.134153 -0.193979 2.794858 0 CFG=1
M  V30 46 C -4.485855 -0.175986 3.456244 0
M  V30 47 O -5.427200 0.657613 3.218996 0
M  V30 48 N -4.666484 -1.215464 4.413892 0
M  V30 49 C -3.780306 -2.295844 4.882128 0
M  V30 50 C -4.292844 -3.529175 4.134105 0
M  V30 51 N -5.669017 -3.307704 3.641943 0
M  V30 52 C -6.418354 -3.399147 2.437381 0
M  V30 53 N -6.883503 -2.180940 2.096727 0
M  V30 54 C -7.619313 -1.963390 0.995578 0
M  V30 55 N -7.871741 -3.042297 0.237806 0
M  V30 56 C -7.430767 -4.280836 0.532365 0
M  V30 57 C -6.663753 -4.496152 1.686528 0
M  V30 58 C -6.312652 -5.892435 1.815837 0 CFG=2
M  V30 59 C -5.110413 -6.276925 2.569467 0
M  V30 60 C -6.306391 -6.333239 0.361080 0
M  V30 61 C -7.566775 -5.611289 -0.152942 0 CFG=1
M  V30 62 O -8.725412 -6.272852 0.138099 0
M  V30 63 C -6.402498 -2.839014 4.836934 0
M  V30 64 C -5.934717 -1.403776 5.143521 0
M  V30 65 C -3.280788 0.586241 1.488568 0
M  V30 66 C -3.541182 1.951448 1.664685 0
M  V30 67 C -3.726671 2.809280 0.571389 0
M  V30 68 C -3.645178 2.265964 -0.685924 0
M  V30 69 Cl -3.864305 3.260450 -2.128375 0
M  V30 70 C -3.389799 0.929941 -0.862084 0
M  V30 71 C -3.208291 0.096660 0.209913 0
M  V30 72 C 0.992603 3.449398 -5.896388 0
M  V30 73 C 2.438309 2.998501 -6.175011 0
M  V30 74 C 0.132340 2.762362 -6.899000 0
M  V30 75 C 1.018380 4.962968 -6.193580 0
M  V30 76 C 5.560249 -2.281681 -4.212612 0
M  V30 77 C 6.819920 -2.165376 -3.690317 0
M  V30 78 H 8.580540 -5.019932 -0.543719 0
M  V30 79 H 9.571919 -4.338458 0.740151 0
M  V30 80 H 7.992512 -3.605093 0.527405 0
M  V30 81 H 12.128570 -1.416214 -1.799247 0
M  V30 82 H 6.514580 -4.219475 -1.151033 0
M  V30 83 H 4.302612 -4.474762 -2.001273 0
M  V30 84 H 2.712355 -3.837665 -3.351795 0
M  V30 85 H 4.208920 -4.809876 -5.267647 0
M  V30 86 H 3.310730 -3.612330 -6.296620 0
M  V30 87 H 2.398190 -4.835672 -5.335177 0
M  V30 88 H 2.654983 -1.228668 -5.111306 0
M  V30 89 H 0.850272 -0.107084 -2.197062 0
M  V30 90 H -0.639005 -2.205117 -2.700553 0
M  V30 91 H -1.486025 -0.582111 -2.712190 0
M  V30 92 H -0.435378 -2.280487 -5.057850 0
M  V30 93 H -2.740630 -0.566777 -5.011070 0
M  V30 94 H -1.144648 0.500569 -5.634711 0
M  V30 95 H 0.316657 -0.400727 -6.115996 0
M  V30 96 H -0.454169 3.485330 -4.270654 0
M  V30 97 H 2.189967 4.826042 -3.784341 0
M  V30 98 H 2.452935 5.616539 -1.501030 0
M  V30 99 H 0.835493 6.363890 -1.422361 0
M  V30 100 H 0.097580 4.656104 0.233954 0
M  V30 101 H 1.768973 3.879131 0.134646 0
M  V30 102 H 2.679191 6.047305 1.142855 0
M  V30 103 H 1.003430 6.654906 1.272583 0
M  V30 104 H 2.080954 3.968517 2.170193 0
M  V30 105 H 0.403505 4.597596 2.524424 0
M  V30 106 H 2.876036 5.972125 3.589136 0
M  V30 107 H 1.091601 6.304132 3.934861 0
M  V30 108 H 2.001726 5.110477 5.842779 0
M  V30 109 H 0.839697 4.115090 4.937850 0
M  V30 110 H 2.691967 3.042850 3.677071 0
M  V30 111 H 3.883510 4.026866 4.589998 0
M  V30 112 H 1.986757 2.021471 5.956458 0
M  V30 113 H 3.246739 3.049759 6.685197 0
M  V30 114 H 5.053357 1.978811 5.487730 0
M  V30 115 H 4.025470 0.766288 6.284960 0
M  V30 116 H 4.750231 0.140467 4.048123 0
M  V30 117 H 3.963207 1.505693 3.288463 0
M  V30 118 H 2.627369 0.260676 1.991832 0
M  V30 119 H 1.370817 -2.225648 2.431825 0
M  V30 120 H 0.908312 -1.009536 1.255866 0
M  V30 121 H -0.060138 -1.150775 4.167685 0
M  V30 122 H -0.952307 -1.697964 2.656249 0
M  V30 123 H -0.110063 1.104273 3.356113 0
M  V30 124 H -2.272951 1.570059 3.725203 0
M  V30 125 H -1.949198 0.074049 4.608372 0
M  V30 126 H -2.887723 -1.217259 2.560100 0
M  V30 127 H -2.744743 -2.168903 4.573837 0
M  V30 128 H -3.806803 -2.427595 5.973601 0
M  V30 129 H -3.634183 -3.768762 3.280048 0
M  V30 130 H -4.347349 -4.343349 4.877889 0
M  V30 131 H -8.037401 -1.052720 0.626852 0
M  V30 132 H -7.212285 -6.419923 2.253511 0
M  V30 133 H -4.948762 -7.381288 2.376095 0
M  V30 134 H -4.169887 -5.819925 2.196089 0
M  V30 135 H -5.246299 -6.219201 3.657186 0
M  V30 136 H -5.439975 -5.887265 -0.170219 0
M  V30 137 H -6.447375 -7.401879 0.225901 0
M  V30 138 H -7.449742 -5.463073 -1.256873 0
M  V30 139 H -9.125211 -6.598894 -0.724879 0
M  V30 140 H -7.486301 -2.752066 4.625347 0
M  V30 141 H -6.278765 -3.509869 5.689590 0
M  V30 142 H -6.631083 -0.673659 4.708854 0
M  V30 143 H -5.697641 -1.262157 6.205743 0
M  V30 144 H -3.633677 2.519663 2.594394 0
M  V30 145 H -3.930546 3.863443 0.612585 0
M  V30 146 H -3.347936 0.550819 -1.868829 0
M  V30 147 H -3.006499 -0.940057 0.152594 0
M  V30 148 H 2.426056 2.054194 -6.776199 0
M  V30 149 H 2.995986 3.727790 -6.760336 0
M  V30 150 H 2.906039 2.733901 -5.201872 0
M  V30 151 H 0.220495 3.356178 -7.848273 0
M  V30 152 H -0.927476 2.674146 -6.670023 0
M  V30 153 H 0.529979 1.749869 -7.201500 0
M  V30 154 H 0.677680 5.530873 -5.289598 0
M  V30 155 H 0.274619 5.146557 -6.973751 0
M  V30 156 H 2.025495 5.282505 -6.503734 0
M  V30 157 H 5.232256 -1.752186 -5.081459 0
M  V30 158 H 7.449449 -1.479558 -4.252387 0
M  V30 END ATOM
M  V30 BEGIN BOND
M  V30 1 1 1 2
M  V30 2 1 2 3
M  V30 3 2 3 4
M  V30 4 1 4 5
M  V30 5 1 5 6
M  V30 6 1 6 7
M  V30 7 2 7 8
M  V30 8 1 8 9
M  V30 9 2 9 10
M  V30 10 1 10 11
M  V30 11 1 11 12
M  V30 12 1 11 13
M  V30 13 1 13 14
M  V30 14 2 14 15
M  V30 15 1 14 16
M  V30 16 1 16 17
M  V30 17 1 17 18
M  V30 18 1 18 19
M  V30 19 1 18 20
M  V30 20 1 20 21
M  V30 21 1 21 22
M  V30 22 2 22 23
M  V30 23 1 22 24
M  V30 24 1 24 25
M  V30 25 1 25 26
M  V30 26 2 26 27
M  V30 27 1 26 28
M  V30 28 1 28 29
M  V30 29 1 29 30
M  V30 30 1 30 31
M  V30 31 1 31 32
M  V30 32 1 32 33
M  V30 33 1 33 34
M  V30 34 1 34 35
M  V30 35 1 35 36
M  V30 36 1 36 37
M  V30 37 1 37 38
M  V30 38 2 38 39
M  V30 39 1 38 40
M  V30 40 1 40 41
M  V30 41 1 41 42
M  V30 42 1 42 43
M  V30 43 1 43 44
M  V30 44 1 44 45
M  V30 45 1 45 46
M  V30 46 2 46 47
M  V30 47 1 46 48
M  V30 48 1 48 49
M  V30 49 1 49 50
M  V30 50 1 50 51
M  V30 51 1 51 52
M  V30 52 2 52 53
M  V30 53 1 53 54
M  V30 54 2 54 55
M  V30 55 1 55 56
M  V30 56 2 56 57
M  V30 57 1 57 58
M  V30 58 1 58 59
M  V30 59 1 58 60
M  V30 60 1 60 61
M  V30 61 1 61 62
M  V30 62 1 51 63
M  V30 63 1 63 64
M  V30 64 1 45 65
M  V30 65 2 65 66
M  V30 66 1 66 67
M  V30 67 2 67 68
M  V30 68 1 68 69
M  V30 69 1 68 70
M  V30 70 2 70 71
M  V30 71 1 24 72
M  V30 72 1 72 73
M  V30 73 1 72 74
M  V30 74 1 72 75
M  V30 75 1 10 76
M  V30 76 2 76 77
M  V30 77 2 6 2
M  V30 78 1 77 7
M  V30 79 1 21 16
M  V30 80 1 64 48
M  V30 81 1 71 65
M  V30 82 1 57 52
M  V30 83 1 61 56
M  V30 84 1 1 78
M  V30 85 1 1 79
M  V30 86 1 1 80
M  V30 87 1 4 81
M  V30 88 1 8 82
M  V30 89 1 9 83
M  V30 90 1 11 84 CFG=1
M  V30 91 1 12 85
M  V30 92 1 12 86
M  V30 93 1 12 87
M  V30 94 1 13 88
M  V30 95 1 16 89 CFG=1
M  V30 96 1 17 90
M  V30 97 1 17 91
M  V30 98 1 18 92 CFG=3
M  V30 99 1 19 93
M  V30 100 1 20 94
M  V30 101 1 20 95
M  V30 102 1 24 96 CFG=3
M  V30 103 1 25 97
M  V30 104 1 28 98
M  V30 105 1 28 99
M  V30 106 1 29 100
M  V30 107 1 29 101
M  V30 108 1 30 102
M  V30 109 1 30 103
M  V30 110 1 31 104
M  V30 111 1 31 105
M  V30 112 1 32 106
M  V30 113 1 32 107
M  V30 114 1 33 108
M  V30 115 1 33 109
M  V30 116 1 34 110
M  V30 117 1 34 111
M  V30 118 1 35 112
M  V30 119 1 35 113
M  V30 120 1 36 114
M  V30 121 1 36 115
M  V30 122 1 37 116
M  V30 123 1 37 117
M  V30 124 1 40 118
M  V30 125 1 41 119
M  V30 126 1 41 120
M  V30 127 1 42 121
M  V30 128 1 42 122
M  V30 129 1 43 123
M  V30 130 1 44 124
M  V30 131 1 44 125
M  V30 132 1 45 126 CFG=3
M  V30 133 1 49 127
M  V30 134 1 49 128
M  V30 135 1 50 129
M  V30 136 1 50 130
M  V30 137 1 54 131
M  V30 138 1 58 132 CFG=1
M  V30 139 1 59 133
M  V30 140 1 59 134
M  V30 141 1 59 135
M  V30 142 1 60 136
M  V30 143 1 60 137
M  V30 144 1 61 138 CFG=3
M  V30 145 1 62 139
M  V30 146 1 63 140
M  V30 147 1 63 141
M  V30 148 1 64 142
M  V30 149 1 64 143
M  V30 150 1 66 144
M  V30 151 1 67 145
M  V30 152 1 70 146
M  V30 153 1 71 147
M  V30 154 1 73 148
M  V30 155 1 73 149
M  V30 156 1 73 150
M  V30 157 1 74 151
M  V30 158 1 74 152
M  V30 159 1 74 153
M  V30 160 1 75 154
M  V30 161 1 75 155
M  V30 162 1 75 156
M  V30 163 1 76 157
M  V30 164 1 77 158
M  V30 END BOND
M  V30 END CTAB
M  END
>  <Dataset>  (686) 
ChEMBL_Kinases

>  <Ligand_Instance>  (686) 
nan

>  <PDB_ID>  (686) 
nan

>  <Standardized_SMILES>  (686) 
Cc1ncsc1-c1ccc([C@H](C)NC(=O)[C@@H]2C[C@@H](O)CN2C(=O)[C@@H](NC(=O)CCCCCCCCCCC(=O)NCCNC[C@@H](C(=O)N2CCN(c3ncnc4c3[C@H](C)C[C@H]4O)CC2)c2ccc(Cl)cc2)C(C)(C)C)cc1

>  <Name>  (686) 
nan

>  <Pocket>  (686) 
nan

>  <ATP_Site>  (686) 
nan

>  <Peripheral>  (686) 
nan

>  <Num_H_Atoms_ProtBoundConf>  (686) 
nan

>  <Num_Resolved_Atoms>  (686) 
nan

>  <Num_Not_Resolved_Atoms>  (686) 
nan

$$$$
CHEMBL367106
     RDKit          3D

  0  0  0  0  0  0  0  0  0  0999 V3000
M  V30 BEGIN CTAB
M  V30 COUNTS 75 82 0 0 0
M  V30 BEGIN ATOM
M  V30 1 O 1.091258 -3.141828 5.938188 0
M  V30 2 C 0.592075 -3.589639 4.886743 0
M  V30 3 N 0.204495 -4.951669 4.745246 0
M  V30 4 C -0.325829 -5.083402 3.408741 0
M  V30 5 O -0.736634 -6.222830 3.058242 0
M  V30 6 C -0.240124 -3.752299 2.763897 0
M  V30 7 C -0.810436 -3.722604 1.425314 0
M  V30 8 N -0.218378 -4.345799 0.363520 0
M  V30 9 N -0.944334 -4.203278 -0.712773 0
M  V30 10 C -0.613234 -4.699999 -2.034074 0
M  V30 11 C 0.287984 -3.732039 -2.803965 0
M  V30 12 C -0.368630 -2.397731 -2.953588 0
M  V30 13 N 0.416170 -1.493093 -3.661750 0
M  V30 14 C 0.607981 -1.763716 -5.025570 0
M  V30 15 C 1.430737 -0.691405 -5.727515 0
M  V30 16 O 1.272568 0.545702 -5.172902 0
M  V30 17 C 1.403554 0.674492 -3.825110 0
M  V30 18 C 1.274946 -0.597881 -3.023928 0
M  V30 19 C -2.060806 -3.489326 -0.461395 0
M  V30 20 C -3.195366 -3.026335 -1.123042 0
M  V30 21 C -4.185708 -2.309407 -0.498237 0
M  V30 22 C -4.079750 -2.019316 0.845436 0
M  V30 23 C -2.954458 -2.483007 1.485437 0
M  V30 24 C -1.959191 -3.197038 0.881379 0
M  V30 25 C 0.297646 -2.899860 3.638637 0
M  V30 26 C 0.539449 -1.507836 3.296643 0
M  V30 27 C -0.101218 -0.450913 2.728458 0
M  V30 28 N 0.631843 0.668945 2.600473 0
M  V30 29 C 0.054320 1.842121 2.003160 0
M  V30 30 C 0.095070 1.687896 0.608647 0
M  V30 31 C -0.397885 2.655810 -0.240830 0
M  V30 32 C -0.936879 3.789839 0.314520 0
M  V30 33 C -1.453879 4.801569 -0.484200 0
M  V30 34 C -1.994767 5.932571 0.080451 0
M  V30 35 C -2.018590 6.053126 1.465622 0
M  V30 36 C -1.509579 5.059578 2.292232 0
M  V30 37 C -0.976645 3.941318 1.671222 0
M  V30 38 C -0.493155 2.993591 2.524697 0
M  V30 39 C 1.839243 0.350552 3.111758 0
M  V30 40 C 2.920281 1.200097 3.184796 0
M  V30 41 C 4.084021 0.710828 3.730357 0
M  V30 42 C 4.140019 -0.590041 4.180758 0
M  V30 43 C 3.012432 -1.370473 4.069917 0
M  V30 44 C 1.808272 -0.965881 3.540657 0
M  V30 45 H 0.304028 -5.688098 5.500271 0
M  V30 46 H -0.001299 -5.631391 -1.909532 0
M  V30 47 H -1.505370 -4.963261 -2.632149 0
M  V30 48 H 0.494366 -4.160612 -3.817686 0
M  V30 49 H 1.238844 -3.611132 -2.240351 0
M  V30 50 H -1.369035 -2.581736 -3.450734 0
M  V30 51 H -0.646994 -2.059052 -1.922290 0
M  V30 52 H 1.198524 -2.701711 -5.149085 0
M  V30 53 H -0.331793 -1.954453 -5.602247 0
M  V30 54 H 2.506370 -1.014749 -5.834524 0
M  V30 55 H 1.048957 -0.634446 -6.767692 0
M  V30 56 H 2.336505 1.195617 -3.483439 0
M  V30 57 H 0.581675 1.363519 -3.479477 0
M  V30 58 H 0.829566 -0.313593 -2.030188 0
M  V30 59 H 2.260505 -1.034980 -2.756411 0
M  V30 60 H -3.250136 -3.271432 -2.170275 0
M  V30 61 H -5.008023 -2.015693 -1.138980 0
M  V30 62 H -4.892967 -1.449021 1.291240 0
M  V30 63 H -2.881402 -2.248814 2.543781 0
M  V30 64 H -1.130328 -0.576107 2.430104 0
M  V30 65 H 0.497125 0.834175 0.042225 0
M  V30 66 H -0.388093 2.583358 -1.325887 0
M  V30 67 H -1.401149 4.641035 -1.552611 0
M  V30 68 H -2.367708 6.648610 -0.625506 0
M  V30 69 H -2.453596 6.957870 1.840109 0
M  V30 70 H -1.538773 5.172411 3.371862 0
M  V30 71 H -0.449060 2.963840 3.606698 0
M  V30 72 H 2.899709 2.219754 2.838727 0
M  V30 73 H 4.945948 1.365974 3.795985 0
M  V30 74 H 5.056730 -0.953369 4.602296 0
M  V30 75 H 3.144102 -2.373018 4.430342 0
M  V30 END ATOM
M  V30 BEGIN BOND
M  V30 1 2 1 2
M  V30 2 1 2 3
M  V30 3 1 3 4
M  V30 4 2 4 5
M  V30 5 1 4 6
M  V30 6 1 6 7
M  V30 7 2 7 8
M  V30 8 1 8 9
M  V30 9 1 9 10
M  V30 10 1 10 11
M  V30 11 1 11 12
M  V30 12 1 12 13
M  V30 13 1 13 14
M  V30 14 1 14 15
M  V30 15 1 15 16
M  V30 16 1 16 17
M  V30 17 1 17 18
M  V30 18 1 9 19
M  V30 19 2 19 20
M  V30 20 1 20 21
M  V30 21 2 21 22
M  V30 22 1 22 23
M  V30 23 2 23 24
M  V30 24 2 6 25
M  V30 25 1 25 26
M  V30 26 2 26 27
M  V30 27 1 27 28
M  V30 28 1 28 29
M  V30 29 2 29 30
M  V30 30 1 30 31
M  V30 31 2 31 32
M  V30 32 1 32 33
M  V30 33 2 33 34
M  V30 34 1 34 35
M  V30 35 2 35 36
M  V30 36 1 36 37
M  V30 37 2 37 38
M  V30 38 1 28 39
M  V30 39 2 39 40
M  V30 40 1 40 41
M  V30 41 2 41 42
M  V30 42 1 42 43
M  V30 43 2 43 44
M  V30 44 1 25 2
M  V30 45 1 44 26
M  V30 46 1 24 7
M  V30 47 1 38 29
M  V30 48 1 44 39
M  V30 49 1 18 13
M  V30 50 1 24 19
M  V30 51 1 37 32
M  V30 52 1 3 45
M  V30 53 1 10 46
M  V30 54 1 10 47
M  V30 55 1 11 48
M  V30 56 1 11 49
M  V30 57 1 12 50
M  V30 58 1 12 51
M  V30 59 1 14 52
M  V30 60 1 14 53
M  V30 61 1 15 54
M  V30 62 1 15 55
M  V30 63 1 17 56
M  V30 64 1 17 57
M  V30 65 1 18 58
M  V30 66 1 18 59
M  V30 67 1 20 60
M  V30 68 1 21 61
M  V30 69 1 22 62
M  V30 70 1 23 63
M  V30 71 1 27 64
M  V30 72 1 30 65
M  V30 73 1 31 66
M  V30 74 1 33 67
M  V30 75 1 34 68
M  V30 76 1 35 69
M  V30 77 1 36 70
M  V30 78 1 38 71
M  V30 79 1 40 72
M  V30 80 1 41 73
M  V30 81 1 42 74
M  V30 82 1 43 75
M  V30 END BOND
M  V30 END CTAB
M  END
>  <Dataset>  (687) 
ChEMBL_Kinases

>  <Ligand_Instance>  (687) 
nan

>  <PDB_ID>  (687) 
nan

>  <Standardized_SMILES>  (687) 
O=C1NC(=O)C(c2nn(CCCN3CCOCC3)c3ccccc23)=C1c1cn(-c2ccc3ccccc3c2)c2ccccc12

>  <Name>  (687) 
nan

>  <Pocket>  (687) 
nan

>  <ATP_Site>  (687) 
nan

>  <Peripheral>  (687) 
nan

>  <Num_H_Atoms_ProtBoundConf>  (687) 
nan

>  <Num_Resolved_Atoms>  (687) 
nan

>  <Num_Not_Resolved_Atoms>  (687) 
nan

$$$$
CHEMBL367107
     RDKit          3D

  0  0  0  0  0  0  0  0  0  0999 V3000
M  V30 BEGIN CTAB
M  V30 COUNTS 74 81 0 0 0
M  V30 BEGIN ATOM
M  V30 1 O 3.793240 -1.939894 4.252299 0
M  V30 2 C 2.535080 -1.723029 4.251836 0
M  V30 3 N 1.836611 -1.407690 5.454620 0
M  V30 4 C 0.466442 -1.238114 5.039556 0
M  V30 5 O -0.359459 -0.942327 5.970027 0
M  V30 6 C 0.373344 -1.459162 3.579485 0
M  V30 7 C -0.912666 -1.331816 2.909682 0
M  V30 8 N -1.316057 -0.670629 1.810534 0
M  V30 9 N -2.593328 -0.870016 1.557839 0
M  V30 10 C -3.438141 -0.361911 0.495191 0
M  V30 11 C -4.109293 0.949852 0.850973 0
M  V30 12 C -3.103188 2.049877 1.135289 0
M  V30 13 N -2.276945 2.292156 -0.060774 0
M  V30 14 C -3.115626 2.870157 -1.057360 0
M  V30 15 C -2.395031 3.965619 -1.750446 0
M  V30 16 C -1.032631 3.937961 -1.081717 0
M  V30 17 C -1.277884 3.273323 0.259780 0
M  V30 18 C -3.103327 -1.700523 2.512415 0
M  V30 19 C -4.372418 -2.234598 2.721153 0
M  V30 20 C -4.641117 -3.075349 3.777984 0
M  V30 21 C -3.600709 -3.374480 4.631248 0
M  V30 22 C -2.357525 -2.828324 4.394693 0
M  V30 23 C -2.053579 -1.991705 3.360315 0
M  V30 24 C 1.577824 -1.740477 3.121572 0
M  V30 25 C 1.935863 -1.996341 1.747395 0
M  V30 26 C 1.664010 -1.341073 0.568967 0
M  V30 27 N 2.199657 -1.978338 -0.515633 0
M  V30 28 C 2.025221 -1.449152 -1.827180 0
M  V30 29 C 0.722400 -1.072480 -2.166517 0
M  V30 30 C 0.379931 -0.537608 -3.401407 0
M  V30 31 C 1.421736 -0.387345 -4.317289 0
M  V30 32 C 1.083509 0.142700 -5.544534 0
M  V30 33 C 2.116625 0.296628 -6.468360 0
M  V30 34 C 3.388963 -0.079459 -6.115832 0
M  V30 35 C 3.739700 -0.606955 -4.900605 0
M  V30 36 C 2.718703 -0.758128 -3.989920 0
M  V30 37 C 3.025458 -1.285539 -2.757012 0
M  V30 38 C 2.831661 -3.066419 -0.043189 0
M  V30 39 C 3.516835 -4.013952 -0.780718 0
M  V30 40 C 4.103016 -5.073751 -0.128758 0
M  V30 41 C 3.980896 -5.143719 1.240908 0
M  V30 42 C 3.287362 -4.172975 1.928895 0
M  V30 43 C 2.678797 -3.088076 1.327426 0
M  V30 44 H 2.279585 -1.327313 6.416722 0
M  V30 45 H -4.234189 -1.080502 0.248449 0
M  V30 46 H -2.885353 -0.194847 -0.450700 0
M  V30 47 H -4.622885 1.265318 -0.103699 0
M  V30 48 H -4.891254 0.873364 1.603759 0
M  V30 49 H -3.677627 2.957733 1.387193 0
M  V30 50 H -2.424978 1.689258 1.918792 0
M  V30 51 H -3.412265 2.103357 -1.830770 0
M  V30 52 H -4.041476 3.297872 -0.605586 0
M  V30 53 H -2.895491 4.954868 -1.596724 0
M  V30 54 H -2.289730 3.776161 -2.838260 0
M  V30 55 H -0.598365 4.948623 -0.993407 0
M  V30 56 H -0.373192 3.258657 -1.674173 0
M  V30 57 H -1.622435 3.996330 1.019774 0
M  V30 58 H -0.329022 2.756280 0.545386 0
M  V30 59 H -5.193725 -2.007443 2.059593 0
M  V30 60 H -5.618586 -3.501175 3.958335 0
M  V30 61 H -3.828877 -4.035981 5.456094 0
M  V30 62 H -1.626279 -3.141583 5.118452 0
M  V30 63 H 1.092314 -0.417188 0.527359 0
M  V30 64 H -0.108768 -1.187276 -1.451368 0
M  V30 65 H -0.641054 -0.256107 -3.631743 0
M  V30 66 H 0.078275 0.437328 -5.816188 0
M  V30 67 H 1.878562 0.705719 -7.428083 0
M  V30 68 H 4.170938 0.052246 -6.855538 0
M  V30 69 H 4.754440 -0.891558 -4.658544 0
M  V30 70 H 4.017599 -1.585492 -2.461542 0
M  V30 71 H 3.610220 -3.956119 -1.855622 0
M  V30 72 H 4.659129 -5.869632 -0.598633 0
M  V30 73 H 4.437124 -5.978145 1.787801 0
M  V30 74 H 3.229618 -4.294879 3.001503 0
M  V30 END ATOM
M  V30 BEGIN BOND
M  V30 1 2 1 2
M  V30 2 1 2 3
M  V30 3 1 3 4
M  V30 4 2 4 5
M  V30 5 1 4 6
M  V30 6 1 6 7
M  V30 7 2 7 8
M  V30 8 1 8 9
M  V30 9 1 9 10
M  V30 10 1 10 11
M  V30 11 1 11 12
M  V30 12 1 12 13
M  V30 13 1 13 14
M  V30 14 1 14 15
M  V30 15 1 15 16
M  V30 16 1 16 17
M  V30 17 1 9 18
M  V30 18 2 18 19
M  V30 19 1 19 20
M  V30 20 2 20 21
M  V30 21 1 21 22
M  V30 22 2 22 23
M  V30 23 2 6 24
M  V30 24 1 24 25
M  V30 25 2 25 26
M  V30 26 1 26 27
M  V30 27 1 27 28
M  V30 28 2 28 29
M  V30 29 1 29 30
M  V30 30 2 30 31
M  V30 31 1 31 32
M  V30 32 2 32 33
M  V30 33 1 33 34
M  V30 34 2 34 35
M  V30 35 1 35 36
M  V30 36 2 36 37
M  V30 37 1 27 38
M  V30 38 2 38 39
M  V30 39 1 39 40
M  V30 40 2 40 41
M  V30 41 1 41 42
M  V30 42 2 42 43
M  V30 43 1 24 2
M  V30 44 1 43 25
M  V30 45 1 23 7
M  V30 46 1 37 28
M  V30 47 1 43 38
M  V30 48 1 17 13
M  V30 49 1 23 18
M  V30 50 1 36 31
M  V30 51 1 3 44
M  V30 52 1 10 45
M  V30 53 1 10 46
M  V30 54 1 11 47
M  V30 55 1 11 48
M  V30 56 1 12 49
M  V30 57 1 12 50
M  V30 58 1 14 51
M  V30 59 1 14 52
M  V30 60 1 15 53
M  V30 61 1 15 54
M  V30 62 1 16 55
M  V30 63 1 16 56
M  V30 64 1 17 57
M  V30 65 1 17 58
M  V30 66 1 19 59
M  V30 67 1 20 60
M  V30 68 1 21 61
M  V30 69 1 22 62
M  V30 70 1 26 63
M  V30 71 1 29 64
M  V30 72 1 30 65
M  V30 73 1 32 66
M  V30 74 1 33 67
M  V30 75 1 34 68
M  V30 76 1 35 69
M  V30 77 1 37 70
M  V30 78 1 39 71
M  V30 79 1 40 72
M  V30 80 1 41 73
M  V30 81 1 42 74
M  V30 END BOND
M  V30 END CTAB
M  END
>  <Dataset>  (688) 
ChEMBL_Kinases

>  <Ligand_Instance>  (688) 
nan

>  <PDB_ID>  (688) 
nan

>  <Standardized_SMILES>  (688) 
O=C1NC(=O)C(c2nn(CCCN3CCCC3)c3ccccc23)=C1c1cn(-c2ccc3ccccc3c2)c2ccccc12

>  <Name>  (688) 
nan

>  <Pocket>  (688) 
nan

>  <ATP_Site>  (688) 
nan

>  <Peripheral>  (688) 
nan

>  <Num_H_Atoms_ProtBoundConf>  (688) 
nan

>  <Num_Resolved_Atoms>  (688) 
nan

>  <Num_Not_Resolved_Atoms>  (688) 
nan

$$$$
CHEMBL573702
     RDKit          3D

  0  0  0  0  0  0  0  0  0  0999 V3000
M  V30 BEGIN CTAB
M  V30 COUNTS 42 45 0 0 0
M  V30 BEGIN ATOM
M  V30 1 C -0.408689 -4.061988 1.962013 0
M  V30 2 N -0.428212 -5.056594 0.913823 0
M  V30 3 C -1.634867 -5.830251 1.097512 0
M  V30 4 C -0.399927 -4.448478 -0.405198 0
M  V30 5 C 0.846671 -3.622804 -0.573956 0
M  V30 6 N 0.834551 -2.352685 -0.237593 0
M  V30 7 C 1.893325 -1.535188 -0.351928 0
M  V30 8 C 2.960114 -2.202007 -0.857388 0
M  V30 9 S 4.247539 -0.941757 -0.927278 0
M  V30 10 C 3.199031 0.396567 -0.251902 0
M  V30 11 C 3.548397 1.749202 -0.006738 0
M  V30 12 C 2.554806 2.536528 0.507259 0
M  V30 13 C 1.333563 1.951151 0.733087 0
M  V30 14 C 0.264060 2.817587 1.290111 0
M  V30 15 C -0.730742 2.340752 2.120912 0
M  V30 16 C -1.681921 3.253482 2.580564 0
M  V30 17 C -1.652046 4.589068 2.232551 0
M  V30 18 C -2.634099 5.521842 2.709352 0
M  V30 19 N -3.430253 6.285313 3.116273 0
M  V30 20 C -0.659899 5.070312 1.402631 0
M  V30 21 C 0.275359 4.160429 0.953654 0
M  V30 22 C 0.994673 0.643716 0.496571 0
M  V30 23 C 1.937862 -0.212751 -0.019884 0
M  V30 24 C 3.004958 -3.529503 -1.218857 0
M  V30 25 O 4.097251 -3.935514 -1.663895 0
M  V30 26 N 1.904083 -4.278655 -1.073622 0
M  V30 27 H 0.588413 -3.585227 2.058573 0
M  V30 28 H -1.206468 -3.313600 1.842289 0
M  V30 29 H -0.600488 -4.619291 2.915248 0
M  V30 30 H -2.450509 -5.183225 1.522307 0
M  V30 31 H -2.048927 -6.249100 0.163353 0
M  V30 32 H -1.462473 -6.654201 1.809731 0
M  V30 33 H -0.487165 -5.207705 -1.186207 0
M  V30 34 H -1.249687 -3.745075 -0.475038 0
M  V30 35 H 4.554229 2.010177 -0.250662 0
M  V30 36 H 2.805967 3.565211 0.698326 0
M  V30 37 H -0.735358 1.291547 2.380831 0
M  V30 38 H -2.468721 2.880028 3.236731 0
M  V30 39 H -0.628630 6.112581 1.125363 0
M  V30 40 H 1.041348 4.568596 0.303866 0
M  V30 41 H -0.008039 0.304546 0.718963 0
M  V30 42 H 1.985811 -5.275582 -1.360036 0
M  V30 END ATOM
M  V30 BEGIN BOND
M  V30 1 1 1 2
M  V30 2 1 2 3
M  V30 3 1 2 4
M  V30 4 1 4 5
M  V30 5 2 5 6
M  V30 6 1 6 7
M  V30 7 2 7 8
M  V30 8 1 8 9
M  V30 9 1 9 10
M  V30 10 2 10 11
M  V30 11 1 11 12
M  V30 12 2 12 13
M  V30 13 1 13 14
M  V30 14 2 14 15
M  V30 15 1 15 16
M  V30 16 2 16 17
M  V30 17 1 17 18
M  V30 18 3 18 19
M  V30 19 1 17 20
M  V30 20 2 20 21
M  V30 21 1 13 22
M  V30 22 2 22 23
M  V30 23 1 8 24
M  V30 24 2 24 25
M  V30 25 1 24 26
M  V30 26 1 26 5
M  V30 27 1 23 7
M  V30 28 1 23 10
M  V30 29 1 21 14
M  V30 30 1 1 27
M  V30 31 1 1 28
M  V30 32 1 1 29
M  V30 33 1 3 30
M  V30 34 1 3 31
M  V30 35 1 3 32
M  V30 36 1 4 33
M  V30 37 1 4 34
M  V30 38 1 11 35
M  V30 39 1 12 36
M  V30 40 1 15 37
M  V30 41 1 16 38
M  V30 42 1 20 39
M  V30 43 1 21 40
M  V30 44 1 22 41
M  V30 45 1 26 42
M  V30 END BOND
M  V30 END CTAB
M  END
>  <Dataset>  (689) 
ChEMBL_Kinases

>  <Ligand_Instance>  (689) 
nan

>  <PDB_ID>  (689) 
nan

>  <Standardized_SMILES>  (689) 
CN(C)Cc1nc2c(sc3ccc(-c4ccc(C#N)cc4)cc32)c(=O)[nH]1

>  <Name>  (689) 
nan

>  <Pocket>  (689) 
nan

>  <ATP_Site>  (689) 
nan

>  <Peripheral>  (689) 
nan

>  <Num_H_Atoms_ProtBoundConf>  (689) 
nan

>  <Num_Resolved_Atoms>  (689) 
nan

>  <Num_Not_Resolved_Atoms>  (689) 
nan

$$$$
CHEMBL393545
     RDKit          3D

  0  0  0  0  0  0  0  0  0  0999 V3000
M  V30 BEGIN CTAB
M  V30 COUNTS 30 34 0 0 0
M  V30 BEGIN ATOM
M  V30 1 O 2.750937 1.503119 1.919934 0
M  V30 2 C 2.239846 0.447823 2.246632 0
M  V30 3 N 2.736880 -0.155769 3.427992 0
M  V30 4 C 2.050638 -1.377514 3.687117 0
M  V30 5 O 2.181287 -2.210786 4.618130 0
M  V30 6 C 1.098488 -1.456906 2.560545 0
M  V30 7 C 1.200747 -0.387256 1.705564 0
M  V30 8 C 0.386444 -0.323780 0.621256 0
M  V30 9 C 0.302251 0.616108 -0.349292 0
M  V30 10 C 0.858701 1.788492 -0.726543 0
M  V30 11 C 0.524101 2.534739 -1.834476 0
M  V30 12 C -0.489485 2.059246 -2.674145 0
M  V30 13 C -1.095688 0.858828 -2.333793 0
M  V30 14 C -0.690472 0.179428 -1.198374 0
M  V30 15 N -1.178433 -1.004703 -0.724031 0
M  V30 16 C -0.519150 -1.337923 0.413078 0
M  V30 17 C -0.607136 -2.391354 1.271124 0
M  V30 18 C -1.452698 -3.484158 1.210929 0
M  V30 19 C -1.142959 -4.255972 2.311050 0
M  V30 20 C -0.132420 -3.581544 2.963901 0
M  V30 21 N 0.192723 -2.453346 2.335872 0
M  V30 22 H 3.494230 0.135201 4.114531 0
M  V30 23 H 1.636748 2.234016 -0.156064 0
M  V30 24 H 0.990463 3.472034 -2.108998 0
M  V30 25 H -0.831912 2.548665 -3.555717 0
M  V30 26 H -1.870492 0.470141 -2.952460 0
M  V30 27 H -1.941802 -1.588892 -1.148478 0
M  V30 28 H -2.217743 -3.751263 0.492741 0
M  V30 29 H -1.615556 -5.186017 2.571045 0
M  V30 30 H 0.344337 -3.917796 3.873834 0
M  V30 END ATOM
M  V30 BEGIN BOND
M  V30 1 2 1 2
M  V30 2 1 2 3
M  V30 3 1 3 4
M  V30 4 2 4 5
M  V30 5 1 4 6
M  V30 6 2 6 7
M  V30 7 1 7 8
M  V30 8 1 8 9
M  V30 9 2 9 10
M  V30 10 1 10 11
M  V30 11 2 11 12
M  V30 12 1 12 13
M  V30 13 2 13 14
M  V30 14 1 14 15
M  V30 15 1 15 16
M  V30 16 1 16 17
M  V30 17 2 17 18
M  V30 18 1 18 19
M  V30 19 2 19 20
M  V30 20 1 20 21
M  V30 21 1 7 2
M  V30 22 2 16 8
M  V30 23 1 21 17
M  V30 24 1 21 6
M  V30 25 1 14 9
M  V30 26 1 3 22
M  V30 27 1 10 23
M  V30 28 1 11 24
M  V30 29 1 12 25
M  V30 30 1 13 26
M  V30 31 1 15 27
M  V30 32 1 18 28
M  V30 33 1 19 29
M  V30 34 1 20 30
M  V30 END BOND
M  V30 END CTAB
M  END
>  <Dataset>  (690) 
ChEMBL_Kinases

>  <Ligand_Instance>  (690) 
nan

>  <PDB_ID>  (690) 
nan

>  <Standardized_SMILES>  (690) 
O=C1NC(=O)c2c1c1c3ccccc3[nH]c1c1cccn21

>  <Name>  (690) 
nan

>  <Pocket>  (690) 
nan

>  <ATP_Site>  (690) 
nan

>  <Peripheral>  (690) 
nan

>  <Num_H_Atoms_ProtBoundConf>  (690) 
nan

>  <Num_Resolved_Atoms>  (690) 
nan

>  <Num_Not_Resolved_Atoms>  (690) 
nan

$$$$
CHEMBL3781696
     RDKit          3D

  0  0  0  0  0  0  0  0  0  0999 V3000
M  V30 BEGIN CTAB
M  V30 COUNTS 54 58 0 0 0
M  V30 BEGIN ATOM
M  V30 1 C 0.568178 -5.632492 3.341440 0
M  V30 2 O 1.790528 -5.345989 2.727981 0
M  V30 3 C 2.157173 -4.124566 2.180911 0
M  V30 4 C 3.401494 -3.977880 1.602967 0
M  V30 5 C 3.828817 -2.792518 1.041461 0
M  V30 6 C 3.003573 -1.687998 1.040344 0
M  V30 7 C 3.356969 -0.391176 0.473979 0
M  V30 8 C 4.560424 -0.134105 -0.127465 0
M  V30 9 N 4.930318 1.042348 -0.665370 0
M  V30 10 C 4.057885 2.066074 -0.618585 0
M  V30 11 C 4.370212 3.290304 -1.146519 0
M  V30 12 N 3.450734 4.290091 -1.071167 0
M  V30 13 C 2.252915 4.078934 -0.486811 0
M  V30 14 C 1.881583 2.849293 0.068254 0
M  V30 15 N 0.597437 2.746074 0.658947 0
M  V30 16 C -0.492564 1.898823 0.333368 0
M  V30 17 C -0.465441 0.999947 -0.709389 0
M  V30 18 C -1.536842 0.184857 -1.005714 0
M  V30 19 C -2.688652 0.247715 -0.251704 0
M  V30 20 N -3.835560 -0.556251 -0.488916 0
M  V30 21 C -5.093941 -0.576856 0.229470 0
M  V30 22 C -5.196246 -1.925429 0.911081 0
M  V30 23 O -5.344414 -2.858790 -0.114026 0
M  V30 24 C -4.177517 -2.910047 -0.877718 0
M  V30 25 C -3.956754 -1.538029 -1.530869 0
M  V30 26 C -2.700451 1.152237 0.788282 0
M  V30 27 C -1.632758 1.979290 1.100513 0
M  V30 28 C 2.832987 1.855602 -0.022839 0
M  V30 29 N 2.510573 0.670716 0.497286 0
M  V30 30 C 1.738512 -1.797701 1.615356 0
M  V30 31 C 1.352907 -3.002429 2.165277 0
M  V30 32 H 0.163189 -6.638306 3.042327 0
M  V30 33 H 0.687375 -5.716279 4.459468 0
M  V30 34 H -0.241296 -4.923133 3.146009 0
M  V30 35 H 4.078563 -4.834223 1.587825 0
M  V30 36 H 4.804879 -2.706630 0.597443 0
M  V30 37 H 5.308594 -0.904349 -0.202019 0
M  V30 38 H 5.330408 3.461027 -1.615699 0
M  V30 39 H 1.583084 4.926649 -0.470096 0
M  V30 40 H 0.546800 3.428162 1.429633 0
M  V30 41 H 0.412777 0.913196 -1.330263 0
M  V30 42 H -1.464595 -0.495725 -1.825881 0
M  V30 43 H -5.168053 0.175444 1.033707 0
M  V30 44 H -5.955023 -0.392482 -0.447334 0
M  V30 45 H -6.058718 -1.959641 1.585326 0
M  V30 46 H -4.234389 -2.116112 1.407425 0
M  V30 47 H -3.319724 -3.134990 -0.232646 0
M  V30 48 H -4.370653 -3.678964 -1.654563 0
M  V30 49 H -4.882501 -1.399566 -2.163671 0
M  V30 50 H -3.106097 -1.604245 -2.214523 0
M  V30 51 H -3.553445 1.304831 1.467932 0
M  V30 52 H -1.652833 2.688384 1.922179 0
M  V30 53 H 1.082651 -0.956266 1.626074 0
M  V30 54 H 0.377887 -3.060280 2.600224 0
M  V30 END ATOM
M  V30 BEGIN BOND
M  V30 1 1 1 2
M  V30 2 1 2 3
M  V30 3 2 3 4
M  V30 4 1 4 5
M  V30 5 2 5 6
M  V30 6 1 6 7
M  V30 7 2 7 8
M  V30 8 1 8 9
M  V30 9 2 9 10
M  V30 10 1 10 11
M  V30 11 2 11 12
M  V30 12 1 12 13
M  V30 13 2 13 14
M  V30 14 1 14 15
M  V30 15 1 15 16
M  V30 16 2 16 17
M  V30 17 1 17 18
M  V30 18 2 18 19
M  V30 19 1 19 20
M  V30 20 1 20 21
M  V30 21 1 21 22
M  V30 22 1 22 23
M  V30 23 1 23 24
M  V30 24 1 24 25
M  V30 25 1 19 26
M  V30 26 2 26 27
M  V30 27 1 14 28
M  V30 28 2 28 29
M  V30 29 1 6 30
M  V30 30 2 30 31
M  V30 31 1 31 3
M  V30 32 1 29 7
M  V30 33 1 28 10
M  V30 34 1 27 16
M  V30 35 1 25 20
M  V30 36 1 1 32
M  V30 37 1 1 33
M  V30 38 1 1 34
M  V30 39 1 4 35
M  V30 40 1 5 36
M  V30 41 1 8 37
M  V30 42 1 11 38
M  V30 43 1 13 39
M  V30 44 1 15 40
M  V30 45 1 17 41
M  V30 46 1 18 42
M  V30 47 1 21 43
M  V30 48 1 21 44
M  V30 49 1 22 45
M  V30 50 1 22 46
M  V30 51 1 24 47
M  V30 52 1 24 48
M  V30 53 1 25 49
M  V30 54 1 25 50
M  V30 55 1 26 51
M  V30 56 1 27 52
M  V30 57 1 30 53
M  V30 58 1 31 54
M  V30 END BOND
M  V30 END CTAB
M  END
>  <Dataset>  (691) 
ChEMBL_Kinases

>  <Ligand_Instance>  (691) 
nan

>  <PDB_ID>  (691) 
nan

>  <Standardized_SMILES>  (691) 
COc1ccc(-c2cnc3cncc(Nc4ccc(N5CCOCC5)cc4)c3n2)cc1

>  <Name>  (691) 
nan

>  <Pocket>  (691) 
nan

>  <ATP_Site>  (691) 
nan

>  <Peripheral>  (691) 
nan

>  <Num_H_Atoms_ProtBoundConf>  (691) 
nan

>  <Num_Resolved_Atoms>  (691) 
nan

>  <Num_Not_Resolved_Atoms>  (691) 
nan

$$$$
CHEMBL3781479
     RDKit          3D

  0  0  0  0  0  0  0  0  0  0999 V3000
M  V30 BEGIN CTAB
M  V30 COUNTS 52 56 0 0 0
M  V30 BEGIN ATOM
M  V30 1 C -0.562830 -7.766825 2.675700 0
M  V30 2 C -0.403859 -7.878793 1.313910 0
M  V30 3 C -0.005820 -6.799353 0.520042 0
M  V30 4 C 0.238419 -5.577942 1.107051 0
M  V30 5 C 0.652271 -4.476601 0.248331 0
M  V30 6 C 0.930324 -3.206545 0.701780 0
M  V30 7 N 1.310159 -2.233121 -0.144106 0
M  V30 8 C 1.436642 -2.442832 -1.453140 0
M  V30 9 C 1.828098 -1.453414 -2.342318 0
M  V30 10 N 2.099352 -0.184483 -1.815920 0
M  V30 11 C 1.309732 0.743003 -1.110721 0
M  V30 12 C 1.883006 1.910776 -0.649785 0
M  V30 13 C 1.119961 2.829044 0.040300 0
M  V30 14 C -0.217181 2.662622 0.313439 0
M  V30 15 N -0.991276 3.609574 1.029107 0
M  V30 16 C -0.486764 4.805682 1.658231 0
M  V30 17 C -0.920518 4.958471 3.080620 0
M  V30 18 C -1.766194 3.866616 3.640259 0
M  V30 19 C -2.514731 3.020706 2.686162 0
M  V30 20 C -2.423041 3.515995 1.234868 0
M  V30 21 C -0.761882 1.490225 -0.157741 0
M  V30 22 C -0.031113 0.546261 -0.852703 0
M  V30 23 C 1.936624 -1.761395 -3.702891 0
M  V30 24 N 1.652586 -3.029276 -4.110073 0
M  V30 25 C 1.271084 -3.992455 -3.241302 0
M  V30 26 C 1.154676 -3.727237 -1.905990 0
M  V30 27 N 0.768093 -4.729791 -1.067959 0
M  V30 28 C 0.076131 -5.476777 2.471330 0
M  V30 29 C -0.313653 -6.525403 3.265723 0
M  V30 30 H -0.864967 -8.568484 3.314643 0
M  V30 31 H -0.608127 -8.863189 0.896510 0
M  V30 32 H 0.091312 -6.980804 -0.527242 0
M  V30 33 H 0.839197 -2.995583 1.759286 0
M  V30 34 H 3.081379 0.006546 -2.042597 0
M  V30 35 H 2.930370 2.066876 -0.850550 0
M  V30 36 H 1.648288 3.696924 0.354717 0
M  V30 37 H 0.607625 4.920976 1.563996 0
M  V30 38 H -0.899859 5.651894 1.034504 0
M  V30 39 H -1.479808 5.911619 3.174044 0
M  V30 40 H -0.013122 5.113552 3.717869 0
M  V30 41 H -2.455148 4.246243 4.423857 0
M  V30 42 H -1.075725 3.170893 4.203597 0
M  V30 43 H -2.126788 1.961794 2.618187 0
M  V30 44 H -3.562063 2.909016 2.996179 0
M  V30 45 H -2.921684 2.745638 0.633310 0
M  V30 46 H -2.938489 4.502355 1.167532 0
M  V30 47 H -1.796677 1.218557 -0.019815 0
M  V30 48 H -0.472405 -0.374413 -1.220414 0
M  V30 49 H 2.239241 -0.981493 -4.361745 0
M  V30 50 H 1.047573 -5.000679 -3.582444 0
M  V30 51 H 0.257958 -4.544675 2.950714 0
M  V30 52 H -0.432036 -6.406837 4.347350 0
M  V30 END ATOM
M  V30 BEGIN BOND
M  V30 1 2 1 2
M  V30 2 1 2 3
M  V30 3 2 3 4
M  V30 4 1 4 5
M  V30 5 2 5 6
M  V30 6 1 6 7
M  V30 7 2 7 8
M  V30 8 1 8 9
M  V30 9 1 9 10
M  V30 10 1 10 11
M  V30 11 2 11 12
M  V30 12 1 12 13
M  V30 13 2 13 14
M  V30 14 1 14 15
M  V30 15 1 15 16
M  V30 16 1 16 17
M  V30 17 1 17 18
M  V30 18 1 18 19
M  V30 19 1 19 20
M  V30 20 1 14 21
M  V30 21 2 21 22
M  V30 22 2 9 23
M  V30 23 1 23 24
M  V30 24 2 24 25
M  V30 25 1 25 26
M  V30 26 2 26 27
M  V30 27 1 4 28
M  V30 28 2 28 29
M  V30 29 1 29 1
M  V30 30 1 27 5
M  V30 31 1 26 8
M  V30 32 1 22 11
M  V30 33 1 20 15
M  V30 34 1 1 30
M  V30 35 1 2 31
M  V30 36 1 3 32
M  V30 37 1 6 33
M  V30 38 1 10 34
M  V30 39 1 12 35
M  V30 40 1 13 36
M  V30 41 1 16 37
M  V30 42 1 16 38
M  V30 43 1 17 39
M  V30 44 1 17 40
M  V30 45 1 18 41
M  V30 46 1 18 42
M  V30 47 1 19 43
M  V30 48 1 19 44
M  V30 49 1 20 45
M  V30 50 1 20 46
M  V30 51 1 21 47
M  V30 52 1 22 48
M  V30 53 1 23 49
M  V30 54 1 25 50
M  V30 55 1 28 51
M  V30 56 1 29 52
M  V30 END BOND
M  V30 END CTAB
M  END
>  <Dataset>  (692) 
ChEMBL_Kinases

>  <Ligand_Instance>  (692) 
nan

>  <PDB_ID>  (692) 
nan

>  <Standardized_SMILES>  (692) 
c1ccc(-c2cnc3c(Nc4ccc(N5CCCCC5)cc4)cncc3n2)cc1

>  <Name>  (692) 
nan

>  <Pocket>  (692) 
nan

>  <ATP_Site>  (692) 
nan

>  <Peripheral>  (692) 
nan

>  <Num_H_Atoms_ProtBoundConf>  (692) 
nan

>  <Num_Resolved_Atoms>  (692) 
nan

>  <Num_Not_Resolved_Atoms>  (692) 
nan

$$$$
CHEMBL3780971
     RDKit          3D

  0  0  0  0  0  0  0  0  0  0999 V3000
M  V30 BEGIN CTAB
M  V30 COUNTS 56 60 0 0 0
M  V30 BEGIN ATOM
M  V30 1 C 2.218594 -5.738240 4.553853 0
M  V30 2 O 1.750825 -5.099570 3.381556 0
M  V30 3 C 2.224143 -3.874641 2.931975 0
M  V30 4 C 3.194924 -3.093977 3.524068 0
M  V30 5 C 3.579866 -1.887629 2.974303 0
M  V30 6 C 3.007947 -1.430314 1.823133 0
M  V30 7 C 3.349988 -0.172924 1.168339 0
M  V30 8 C 4.307465 0.687601 1.663326 0
M  V30 9 N 4.654932 1.864970 1.081365 0
M  V30 10 C 4.017885 2.214008 -0.059109 0
M  V30 11 C 4.348425 3.405458 -0.679571 0
M  V30 12 N 3.694586 3.708852 -1.805697 0
M  V30 13 C 2.761155 2.940191 -2.349753 0
M  V30 14 C 2.388608 1.727583 -1.765485 0
M  V30 15 N 1.391035 0.904661 -2.354171 0
M  V30 16 C 0.155520 0.498877 -1.786246 0
M  V30 17 C -0.280878 0.957533 -0.561438 0
M  V30 18 C -1.497097 0.511951 -0.073022 0
M  V30 19 C -2.321911 -0.368871 -0.724749 0
M  V30 20 N -3.565047 -0.793588 -0.187421 0
M  V30 21 C -4.130871 -0.228408 0.995637 0
M  V30 22 C -5.640383 -0.164706 0.935656 0
M  V30 23 C -6.181117 -0.093743 -0.475196 0
M  V30 24 C -5.651832 -1.224038 -1.331042 0
M  V30 25 C -4.391557 -1.818712 -0.736170 0
M  V30 26 C -1.830780 -0.788214 -1.939351 0
M  V30 27 C -0.621944 -0.388289 -2.496775 0
M  V30 28 C 3.046883 1.384282 -0.598657 0
M  V30 29 N 2.754117 0.232324 0.032399 0
M  V30 30 C 2.035078 -2.214973 1.231823 0
M  V30 31 C 1.619739 -3.432504 1.751370 0
M  V30 32 H 1.706849 -5.323105 5.427806 0
M  V30 33 H 3.320936 -5.627525 4.654964 0
M  V30 34 H 2.018527 -6.836067 4.453031 0
M  V30 35 H 3.607821 -3.504186 4.425773 0
M  V30 36 H 4.341921 -1.296250 3.457852 0
M  V30 37 H 4.842493 0.460025 2.564011 0
M  V30 38 H 5.096722 4.078173 -0.293514 0
M  V30 39 H 2.286798 3.287398 -3.278713 0
M  V30 40 H 1.686143 0.619126 -3.298401 0
M  V30 41 H 0.354817 1.654618 -0.031526 0
M  V30 42 H -1.737720 0.927049 0.881500 0
M  V30 43 H -3.810903 -0.864204 1.867655 0
M  V30 44 H -3.725958 0.786594 1.171891 0
M  V30 45 H -5.969935 0.802333 1.416613 0
M  V30 46 H -6.072902 -0.979272 1.523102 0
M  V30 47 H -5.902406 0.875265 -0.913881 0
M  V30 48 H -7.277827 -0.218871 -0.400653 0
M  V30 49 H -5.422148 -0.802101 -2.330348 0
M  V30 50 H -6.381837 -2.041342 -1.439128 0
M  V30 51 H -4.660525 -2.536971 0.076929 0
M  V30 52 H -3.822339 -2.394309 -1.486136 0
M  V30 53 H -2.382729 -1.479732 -2.552791 0
M  V30 54 H -0.282510 -0.749178 -3.455927 0
M  V30 55 H 1.566066 -1.872229 0.316720 0
M  V30 56 H 0.855853 -3.996052 1.241062 0
M  V30 END ATOM
M  V30 BEGIN BOND
M  V30 1 1 1 2
M  V30 2 1 2 3
M  V30 3 2 3 4
M  V30 4 1 4 5
M  V30 5 2 5 6
M  V30 6 1 6 7
M  V30 7 2 7 8
M  V30 8 1 8 9
M  V30 9 2 9 10
M  V30 10 1 10 11
M  V30 11 2 11 12
M  V30 12 1 12 13
M  V30 13 2 13 14
M  V30 14 1 14 15
M  V30 15 1 15 16
M  V30 16 2 16 17
M  V30 17 1 17 18
M  V30 18 2 18 19
M  V30 19 1 19 20
M  V30 20 1 20 21
M  V30 21 1 21 22
M  V30 22 1 22 23
M  V30 23 1 23 24
M  V30 24 1 24 25
M  V30 25 1 19 26
M  V30 26 2 26 27
M  V30 27 1 14 28
M  V30 28 2 28 29
M  V30 29 1 6 30
M  V30 30 2 30 31
M  V30 31 1 31 3
M  V30 32 1 29 7
M  V30 33 1 28 10
M  V30 34 1 27 16
M  V30 35 1 25 20
M  V30 36 1 1 32
M  V30 37 1 1 33
M  V30 38 1 1 34
M  V30 39 1 4 35
M  V30 40 1 5 36
M  V30 41 1 8 37
M  V30 42 1 11 38
M  V30 43 1 13 39
M  V30 44 1 15 40
M  V30 45 1 17 41
M  V30 46 1 18 42
M  V30 47 1 21 43
M  V30 48 1 21 44
M  V30 49 1 22 45
M  V30 50 1 22 46
M  V30 51 1 23 47
M  V30 52 1 23 48
M  V30 53 1 24 49
M  V30 54 1 24 50
M  V30 55 1 25 51
M  V30 56 1 25 52
M  V30 57 1 26 53
M  V30 58 1 27 54
M  V30 59 1 30 55
M  V30 60 1 31 56
M  V30 END BOND
M  V30 END CTAB
M  END
>  <Dataset>  (693) 
ChEMBL_Kinases

>  <Ligand_Instance>  (693) 
nan

>  <PDB_ID>  (693) 
nan

>  <Standardized_SMILES>  (693) 
COc1ccc(-c2cnc3cncc(Nc4ccc(N5CCCCC5)cc4)c3n2)cc1

>  <Name>  (693) 
nan

>  <Pocket>  (693) 
nan

>  <ATP_Site>  (693) 
nan

>  <Peripheral>  (693) 
nan

>  <Num_H_Atoms_ProtBoundConf>  (693) 
nan

>  <Num_Resolved_Atoms>  (693) 
nan

>  <Num_Not_Resolved_Atoms>  (693) 
nan

$$$$
CHEMBL5079920
     RDKit          3D

  0  0  0  0  0  0  0  0  0  0999 V3000
M  V30 BEGIN CTAB
M  V30 COUNTS 53 55 0 0 0
M  V30 BEGIN ATOM
M  V30 1 C -5.183995 -3.471155 -2.626054 0
M  V30 2 C -3.818469 -3.581336 -2.018452 0
M  V30 3 N -3.361367 -4.490979 -1.165588 0
M  V30 4 N -2.110268 -4.270611 -0.848569 0
M  V30 5 C -1.417743 -5.134552 0.060334 0
M  V30 6 C -1.627323 -4.579799 1.465351 0
M  V30 7 F -2.997157 -4.590252 1.673315 0
M  V30 8 F -0.953879 -5.387110 2.351297 0
M  V30 9 F -1.154595 -3.299298 1.509220 0
M  V30 10 C -1.754416 -3.168998 -1.531771 0
M  V30 11 C -2.804595 -2.679216 -2.299998 0
M  V30 12 N -2.805368 -1.541687 -3.152968 0
M  V30 13 C -1.730274 -0.640906 -3.386906 0
M  V30 14 N -1.931563 0.356873 -4.273220 0
M  V30 15 C -0.982371 1.253157 -4.559821 0
M  V30 16 C 0.208239 1.091651 -3.894242 0
M  V30 17 Br 1.594986 2.364821 -4.284641 0
M  V30 18 C 0.460702 0.074971 -2.969543 0
M  V30 19 N 1.752169 -0.012284 -2.331668 0
M  V30 20 C 2.028678 -1.038371 -1.376182 0
M  V30 21 C 1.326129 -0.920439 -0.065569 0
M  V30 22 C 1.698886 0.323925 0.694937 0
M  V30 23 N 1.356966 1.497787 -0.065660 0
M  V30 24 C 1.767111 2.621079 0.751844 0
M  V30 25 O 2.300715 2.322843 1.881303 0
M  V30 26 C 1.651562 4.073436 0.454460 0
M  V30 27 C 2.191755 4.879424 1.606427 0
M  V30 28 C 0.825782 4.729605 2.231935 0
M  V30 29 C 0.294961 4.615649 0.822162 0
M  V30 30 N -0.553626 -0.778757 -2.746198 0
M  V30 31 H -5.849829 -4.187882 -2.108943 0
M  V30 32 H -5.140710 -3.792567 -3.697405 0
M  V30 33 H -5.564622 -2.451382 -2.611447 0
M  V30 34 H -1.743149 -6.181764 -0.004975 0
M  V30 35 H -0.319022 -5.069178 -0.172049 0
M  V30 36 H -0.761831 -2.765677 -1.454032 0
M  V30 37 H -3.722712 -1.389181 -3.643459 0
M  V30 38 H -1.139919 2.053611 -5.269306 0
M  V30 39 H 2.461999 0.700748 -2.599634 0
M  V30 40 H 1.799193 -2.019397 -1.847665 0
M  V30 41 H 3.128952 -1.035841 -1.182969 0
M  V30 42 H 0.222250 -0.974823 -0.241098 0
M  V30 43 H 1.533844 -1.790253 0.604110 0
M  V30 44 H 2.800218 0.319924 0.883127 0
M  V30 45 H 1.161121 0.359534 1.668039 0
M  V30 46 H 0.953175 1.963524 -0.927293 0
M  V30 47 H 2.024401 4.369332 -0.545138 0
M  V30 48 H 2.383663 5.923584 1.243290 0
M  V30 49 H 3.038348 4.428797 2.156226 0
M  V30 50 H 0.732381 3.770112 2.760695 0
M  V30 51 H 0.468515 5.618720 2.791178 0
M  V30 52 H -0.549193 3.913484 0.692265 0
M  V30 53 H 0.154070 5.612559 0.331357 0
M  V30 END ATOM
M  V30 BEGIN BOND
M  V30 1 1 1 2
M  V30 2 2 2 3
M  V30 3 1 3 4
M  V30 4 1 4 5
M  V30 5 1 5 6
M  V30 6 1 6 7
M  V30 7 1 6 8
M  V30 8 1 6 9
M  V30 9 1 4 10
M  V30 10 2 10 11
M  V30 11 1 11 12
M  V30 12 1 12 13
M  V30 13 2 13 14
M  V30 14 1 14 15
M  V30 15 2 15 16
M  V30 16 1 16 17
M  V30 17 1 16 18
M  V30 18 1 18 19
M  V30 19 1 19 20
M  V30 20 1 20 21
M  V30 21 1 21 22
M  V30 22 1 22 23
M  V30 23 1 23 24
M  V30 24 2 24 25
M  V30 25 1 24 26
M  V30 26 1 26 27
M  V30 27 1 27 28
M  V30 28 1 28 29
M  V30 29 2 18 30
M  V30 30 1 11 2
M  V30 31 1 30 13
M  V30 32 1 29 26
M  V30 33 1 1 31
M  V30 34 1 1 32
M  V30 35 1 1 33
M  V30 36 1 5 34
M  V30 37 1 5 35
M  V30 38 1 10 36
M  V30 39 1 12 37
M  V30 40 1 15 38
M  V30 41 1 19 39
M  V30 42 1 20 40
M  V30 43 1 20 41
M  V30 44 1 21 42
M  V30 45 1 21 43
M  V30 46 1 22 44
M  V30 47 1 22 45
M  V30 48 1 23 46
M  V30 49 1 26 47
M  V30 50 1 27 48
M  V30 51 1 27 49
M  V30 52 1 28 50
M  V30 53 1 28 51
M  V30 54 1 29 52
M  V30 55 1 29 53
M  V30 END BOND
M  V30 END CTAB
M  END
>  <Dataset>  (694) 
ChEMBL_Kinases

>  <Ligand_Instance>  (694) 
nan

>  <PDB_ID>  (694) 
nan

>  <Standardized_SMILES>  (694) 
Cc1nn(CC(F)(F)F)cc1Nc1ncc(Br)c(NCCCNC(=O)C2CCC2)n1

>  <Name>  (694) 
nan

>  <Pocket>  (694) 
nan

>  <ATP_Site>  (694) 
nan

>  <Peripheral>  (694) 
nan

>  <Num_H_Atoms_ProtBoundConf>  (694) 
nan

>  <Num_Resolved_Atoms>  (694) 
nan

>  <Num_Not_Resolved_Atoms>  (694) 
nan

$$$$
CHEMBL1233747
     RDKit          3D

  0  0  0  0  0  0  0  0  0  0999 V3000
M  V30 BEGIN CTAB
M  V30 COUNTS 61 64 0 0 0
M  V30 BEGIN ATOM
M  V30 1 C 3.790638 -3.463436 4.352583 0
M  V30 2 O 3.869973 -4.366179 3.263414 0
M  V30 3 C 3.487339 -3.875686 2.018757 0
M  V30 4 C 3.053995 -2.572311 1.866853 0
M  V30 5 C 2.664781 -2.042813 0.652217 0
M  V30 6 N 2.224505 -0.694080 0.539208 0
M  V30 7 C 3.025281 0.451440 0.273730 0
M  V30 8 O 4.245905 0.338063 0.112431 0
M  V30 9 C 2.419931 1.778587 0.187408 0
M  V30 10 C 3.275044 2.844871 -0.076593 0
M  V30 11 C 2.794757 4.136997 -0.176345 0
M  V30 12 C 1.462586 4.432258 -0.021634 0
M  V30 13 C 0.604706 3.359654 0.243627 0
M  V30 14 N -0.799187 3.520849 0.426384 0
M  V30 15 C -1.619366 2.874447 -0.452473 0
M  V30 16 C -2.929758 3.177087 -0.079208 0
M  V30 17 N -4.157542 2.736251 -0.693599 0
M  V30 18 C -4.691033 1.524187 -0.180429 0
M  V30 19 O -4.097803 0.913745 0.745939 0
M  V30 20 N -5.897039 0.908700 -0.644491 0
M  V30 21 C -6.381545 -0.307880 -0.090027 0
M  V30 22 C -5.909086 -1.460497 -0.728345 0
M  V30 23 C -6.315236 -2.703068 -0.272786 0
M  V30 24 C -7.177206 -2.817920 0.799256 0
M  V30 25 C -7.649244 -1.670064 1.436847 0
M  V30 26 C -7.246689 -0.426229 0.985824 0
M  V30 27 C -2.846034 4.015316 1.038342 0
M  V30 28 N -1.540345 4.186509 1.295628 0
M  V30 29 C 1.100837 2.065988 0.341259 0
M  V30 30 C 2.728827 -2.894366 -0.433391 0
M  V30 31 C 3.150732 -4.213163 -0.369381 0
M  V30 32 O 3.200958 -5.035866 -1.481343 0
M  V30 33 C 2.810889 -4.531030 -2.741895 0
M  V30 34 C 3.523505 -4.671422 0.876167 0
M  V30 35 O 3.956387 -5.958072 1.053657 0
M  V30 36 C 5.336100 -6.240719 0.927536 0
M  V30 37 H 3.968351 -3.971086 5.320737 0
M  V30 38 H 2.775578 -2.998178 4.435781 0
M  V30 39 H 4.481449 -2.587572 4.213096 0
M  V30 40 H 2.997807 -1.891064 2.708458 0
M  V30 41 H 1.192164 -0.640284 0.681098 0
M  V30 42 H 4.358983 2.779631 -0.225371 0
M  V30 43 H 3.418035 4.997342 -0.379715 0
M  V30 44 H 1.003009 5.404856 -0.082497 0
M  V30 45 H -1.437307 2.241314 -1.291191 0
M  V30 46 H -4.723883 3.166845 -1.461620 0
M  V30 47 H -6.396208 1.417649 -1.420424 0
M  V30 48 H -5.222967 -1.438120 -1.584553 0
M  V30 49 H -5.933704 -3.590989 -0.786486 0
M  V30 50 H -7.506014 -3.792447 1.169367 0
M  V30 51 H -8.328646 -1.724043 2.283342 0
M  V30 52 H -7.574775 0.502644 1.434509 0
M  V30 53 H -3.673017 4.453116 1.602562 0
M  V30 54 H 0.428933 1.246574 0.546380 0
M  V30 55 H 2.420973 -2.484242 -1.408780 0
M  V30 56 H 3.507996 -3.712939 -3.029051 0
M  V30 57 H 1.831687 -4.028729 -2.606523 0
M  V30 58 H 2.753261 -5.347828 -3.492496 0
M  V30 59 H 5.469797 -7.337222 0.707637 0
M  V30 60 H 5.851307 -5.608201 0.189499 0
M  V30 61 H 5.838812 -6.037792 1.916542 0
M  V30 END ATOM
M  V30 BEGIN BOND
M  V30 1 1 1 2
M  V30 2 1 2 3
M  V30 3 2 3 4
M  V30 4 1 4 5
M  V30 5 1 5 6
M  V30 6 1 6 7
M  V30 7 2 7 8
M  V30 8 1 7 9
M  V30 9 2 9 10
M  V30 10 1 10 11
M  V30 11 2 11 12
M  V30 12 1 12 13
M  V30 13 1 13 14
M  V30 14 1 14 15
M  V30 15 2 15 16
M  V30 16 1 16 17
M  V30 17 1 17 18
M  V30 18 2 18 19
M  V30 19 1 18 20
M  V30 20 1 20 21
M  V30 21 2 21 22
M  V30 22 1 22 23
M  V30 23 2 23 24
M  V30 24 1 24 25
M  V30 25 2 25 26
M  V30 26 1 16 27
M  V30 27 2 27 28
M  V30 28 2 13 29
M  V30 29 2 5 30
M  V30 30 1 30 31
M  V30 31 1 31 32
M  V30 32 1 32 33
M  V30 33 2 31 34
M  V30 34 1 34 35
M  V30 35 1 35 36
M  V30 36 1 34 3
M  V30 37 1 29 9
M  V30 38 1 28 14
M  V30 39 1 26 21
M  V30 40 1 1 37
M  V30 41 1 1 38
M  V30 42 1 1 39
M  V30 43 1 4 40
M  V30 44 1 6 41
M  V30 45 1 10 42
M  V30 46 1 11 43
M  V30 47 1 12 44
M  V30 48 1 15 45
M  V30 49 1 17 46
M  V30 50 1 20 47
M  V30 51 1 22 48
M  V30 52 1 23 49
M  V30 53 1 24 50
M  V30 54 1 25 51
M  V30 55 1 26 52
M  V30 56 1 27 53
M  V30 57 1 29 54
M  V30 58 1 30 55
M  V30 59 1 33 56
M  V30 60 1 33 57
M  V30 61 1 33 58
M  V30 62 1 36 59
M  V30 63 1 36 60
M  V30 64 1 36 61
M  V30 END BOND
M  V30 END CTAB
M  END
>  <Dataset>  (695) 
ChEMBL_Kinases

>  <Ligand_Instance>  (695) 
nan

>  <PDB_ID>  (695) 
nan

>  <Standardized_SMILES>  (695) 
COc1cc(NC(=O)c2cccc(-n3cc(NC(=O)Nc4ccccc4)cn3)c2)cc(OC)c1OC

>  <Name>  (695) 
nan

>  <Pocket>  (695) 
nan

>  <ATP_Site>  (695) 
nan

>  <Peripheral>  (695) 
nan

>  <Num_H_Atoms_ProtBoundConf>  (695) 
nan

>  <Num_Resolved_Atoms>  (695) 
nan

>  <Num_Not_Resolved_Atoms>  (695) 
nan

$$$$
CHEMBL5080497
     RDKit          3D

  0  0  0  0  0  0  0  0  0  0999 V3000
M  V30 BEGIN CTAB
M  V30 COUNTS 42 44 0 0 0
M  V30 BEGIN ATOM
M  V30 1 C 0.416885 -4.519057 3.165120 0
M  V30 2 C 0.851917 -3.213451 2.653048 0
M  V30 3 N 2.160935 -2.842511 2.742702 0
M  V30 4 C 2.310477 -1.618204 2.216107 0
M  V30 5 C 3.347758 -0.732479 2.018442 0
M  V30 6 C 3.078472 0.478551 1.415299 0
M  V30 7 C 1.825842 0.847714 1.000542 0
M  V30 8 C 1.484373 2.112261 0.358872 0
M  V30 9 C 0.164692 2.307797 0.009754 0
M  V30 10 C -0.264564 3.478829 -0.606721 0
M  V30 11 N -1.638065 3.652626 -0.956584 0
M  V30 12 N 0.677548 4.424406 -0.850296 0
M  V30 13 C 1.968254 4.243805 -0.513675 0
M  V30 14 N 2.869438 5.302467 -0.816670 0
M  V30 15 C 2.418313 3.092271 0.098049 0
M  V30 16 N 0.845248 -0.047316 1.213614 0
M  V30 17 C 1.046914 -1.252672 1.800838 0
M  V30 18 N 0.135349 -2.227945 2.063937 0
M  V30 19 C -1.284118 -2.255319 1.803420 0
M  V30 20 C -1.650794 -2.801420 0.453264 0
M  V30 21 C -1.181169 -4.210045 0.254425 0
M  V30 22 C -1.589510 -4.700034 -1.122982 0
M  V30 23 F -1.012796 -3.878496 -2.061766 0
M  V30 24 F -1.060135 -5.971761 -1.294909 0
M  V30 25 F -2.959285 -4.685312 -1.179471 0
M  V30 26 H -0.686370 -4.571507 3.278961 0
M  V30 27 H 0.688671 -5.273129 2.394522 0
M  V30 28 H 0.947696 -4.828371 4.087527 0
M  V30 29 H 4.343670 -1.006362 2.339283 0
M  V30 30 H 3.887388 1.174428 1.258815 0
M  V30 31 H -0.616955 1.568049 0.191506 0
M  V30 32 H -2.194630 4.064229 -0.149373 0
M  V30 33 H -2.101285 3.425342 -1.869816 0
M  V30 34 H 2.808933 6.090426 -0.115736 0
M  V30 35 H 3.596410 5.627035 -1.480544 0
M  V30 36 H 3.448967 2.951532 0.365272 0
M  V30 37 H -1.827109 -2.827526 2.582357 0
M  V30 38 H -1.742071 -1.224000 1.847191 0
M  V30 39 H -2.772564 -2.759075 0.402493 0
M  V30 40 H -1.283209 -2.138451 -0.359886 0
M  V30 41 H -0.057293 -4.179093 0.341800 0
M  V30 42 H -1.537333 -4.870778 1.052981 0
M  V30 END ATOM
M  V30 BEGIN BOND
M  V30 1 1 1 2
M  V30 2 2 2 3
M  V30 3 1 3 4
M  V30 4 2 4 5
M  V30 5 1 5 6
M  V30 6 2 6 7
M  V30 7 1 7 8
M  V30 8 2 8 9
M  V30 9 1 9 10
M  V30 10 1 10 11
M  V30 11 2 10 12
M  V30 12 1 12 13
M  V30 13 1 13 14
M  V30 14 2 13 15
M  V30 15 1 7 16
M  V30 16 2 16 17
M  V30 17 1 17 18
M  V30 18 1 18 19
M  V30 19 1 19 20
M  V30 20 1 20 21
M  V30 21 1 21 22
M  V30 22 1 22 23
M  V30 23 1 22 24
M  V30 24 1 22 25
M  V30 25 1 18 2
M  V30 26 1 17 4
M  V30 27 1 15 8
M  V30 28 1 1 26
M  V30 29 1 1 27
M  V30 30 1 1 28
M  V30 31 1 5 29
M  V30 32 1 6 30
M  V30 33 1 9 31
M  V30 34 1 11 32
M  V30 35 1 11 33
M  V30 36 1 14 34
M  V30 37 1 14 35
M  V30 38 1 15 36
M  V30 39 1 19 37
M  V30 40 1 19 38
M  V30 41 1 20 39
M  V30 42 1 20 40
M  V30 43 1 21 41
M  V30 44 1 21 42
M  V30 END BOND
M  V30 END CTAB
M  END
>  <Dataset>  (696) 
ChEMBL_Kinases

>  <Ligand_Instance>  (696) 
nan

>  <PDB_ID>  (696) 
nan

>  <Standardized_SMILES>  (696) 
Cc1nc2ccc(-c3cc(N)nc(N)c3)nc2n1CCCC(F)(F)F

>  <Name>  (696) 
nan

>  <Pocket>  (696) 
nan

>  <ATP_Site>  (696) 
nan

>  <Peripheral>  (696) 
nan

>  <Num_H_Atoms_ProtBoundConf>  (696) 
nan

>  <Num_Resolved_Atoms>  (696) 
nan

>  <Num_Not_Resolved_Atoms>  (696) 
nan

$$$$
CHEMBL1235213
     RDKit          3D

  0  0  0  0  0  0  0  0  0  0999 V3000
M  V30 BEGIN CTAB
M  V30 COUNTS 53 56 0 0 0
M  V30 BEGIN ATOM
M  V30 1 C 2.875979 -7.594497 -0.633117 0
M  V30 2 C 1.746776 -7.435765 0.344860 0
M  V30 3 O 0.854936 -6.385746 0.020843 0
M  V30 4 C 1.261700 -5.064341 -0.081504 0
M  V30 5 C 2.519900 -4.529658 0.095733 0
M  V30 6 C 2.727436 -3.173415 -0.051391 0
M  V30 7 C 1.692160 -2.307947 -0.378764 0
M  V30 8 N 1.917394 -0.910636 -0.528025 0
M  V30 9 C 0.814538 -0.076582 -0.864639 0
M  V30 10 C 0.019546 0.508183 0.122962 0
M  V30 11 C 0.392890 0.209966 1.504725 0
M  V30 12 C -1.048991 1.315899 -0.172504 0
M  V30 13 N -1.893092 1.939536 0.764469 0
M  V30 14 C -2.146828 2.112098 2.154667 0 CFG=1
M  V30 15 C -1.009066 2.757024 2.928062 0
M  V30 16 C -1.507906 3.901491 3.782146 0
M  V30 17 C -2.739031 3.600924 4.564756 0
M  V30 18 N -3.714540 2.833546 3.858234 0
M  V30 19 C -3.435418 2.920495 2.438722 0
M  V30 20 N -1.297874 1.520479 -1.475347 0
M  V30 21 C -0.564018 0.981533 -2.452305 0
M  V30 22 C -0.706385 1.106972 -3.825881 0
M  V30 23 C 0.327430 0.335757 -4.304801 0
M  V30 24 N 1.003049 -0.186289 -3.266867 0
M  V30 25 N 0.471162 0.198535 -2.125665 0
M  V30 26 C 0.439143 -2.856816 -0.552957 0
M  V30 27 C 0.217683 -4.209528 -0.409124 0
M  V30 28 H 2.852688 -8.585549 -1.142412 0
M  V30 29 H 3.843211 -7.578936 -0.089652 0
M  V30 30 H 2.840431 -6.808418 -1.433224 0
M  V30 31 H 2.131951 -7.227208 1.362288 0
M  V30 32 H 1.203322 -8.400681 0.401174 0
M  V30 33 H 3.274659 -5.261420 0.348597 0
M  V30 34 H 3.735163 -2.796211 0.097659 0
M  V30 35 H 2.885765 -0.549252 -0.384580 0
M  V30 36 H -0.425405 0.034443 2.202869 0
M  V30 37 H 1.126203 -0.661433 1.527736 0
M  V30 38 H 1.026589 1.051404 1.901068 0
M  V30 39 H -2.655821 2.525318 0.314458 0
M  V30 40 H -2.369437 1.144398 2.699584 0
M  V30 41 H -0.265186 3.169268 2.219540 0
M  V30 42 H -0.496718 2.023968 3.583365 0
M  V30 43 H -0.679758 4.103328 4.522274 0
M  V30 44 H -1.562141 4.795503 3.155536 0
M  V30 45 H -2.506373 3.088064 5.532414 0
M  V30 46 H -3.193723 4.589171 4.855816 0
M  V30 47 H -4.660554 3.235016 3.991912 0
M  V30 48 H -4.290936 2.423796 1.936938 0
M  V30 49 H -3.347164 3.959800 2.097872 0
M  V30 50 H -1.462723 1.682860 -4.348043 0
M  V30 51 H 0.549241 0.182939 -5.356660 0
M  V30 52 H -0.355536 -2.159890 -0.808724 0
M  V30 53 H -0.830257 -4.505479 -0.577489 0
M  V30 END ATOM
M  V30 BEGIN BOND
M  V30 1 1 1 2
M  V30 2 1 2 3
M  V30 3 1 3 4
M  V30 4 2 4 5
M  V30 5 1 5 6
M  V30 6 2 6 7
M  V30 7 1 7 8
M  V30 8 1 8 9
M  V30 9 2 9 10
M  V30 10 1 10 11
M  V30 11 1 10 12
M  V30 12 1 12 13
M  V30 13 1 13 14
M  V30 14 1 14 15
M  V30 15 1 15 16
M  V30 16 1 16 17
M  V30 17 1 17 18
M  V30 18 1 18 19
M  V30 19 2 12 20
M  V30 20 1 20 21
M  V30 21 2 21 22
M  V30 22 1 22 23
M  V30 23 2 23 24
M  V30 24 1 24 25
M  V30 25 1 7 26
M  V30 26 2 26 27
M  V30 27 1 27 4
M  V30 28 1 25 9
M  V30 29 1 19 14
M  V30 30 1 25 21
M  V30 31 1 1 28
M  V30 32 1 1 29
M  V30 33 1 1 30
M  V30 34 1 2 31
M  V30 35 1 2 32
M  V30 36 1 5 33
M  V30 37 1 6 34
M  V30 38 1 8 35
M  V30 39 1 11 36
M  V30 40 1 11 37
M  V30 41 1 11 38
M  V30 42 1 13 39
M  V30 43 1 14 40 CFG=1
M  V30 44 1 15 41
M  V30 45 1 15 42
M  V30 46 1 16 43
M  V30 47 1 16 44
M  V30 48 1 17 45
M  V30 49 1 17 46
M  V30 50 1 18 47
M  V30 51 1 19 48
M  V30 52 1 19 49
M  V30 53 1 22 50
M  V30 54 1 23 51
M  V30 55 1 26 52
M  V30 56 1 27 53
M  V30 END BOND
M  V30 END CTAB
M  END
>  <Dataset>  (697) 
ChEMBL_Kinases

>  <Ligand_Instance>  (697) 
nan

>  <PDB_ID>  (697) 
nan

>  <Standardized_SMILES>  (697) 
CCOc1ccc(Nc2c(C)c(N[C@H]3CCCNC3)nc3ccnn23)cc1

>  <Name>  (697) 
nan

>  <Pocket>  (697) 
nan

>  <ATP_Site>  (697) 
nan

>  <Peripheral>  (697) 
nan

>  <Num_H_Atoms_ProtBoundConf>  (697) 
nan

>  <Num_Resolved_Atoms>  (697) 
nan

>  <Num_Not_Resolved_Atoms>  (697) 
nan

$$$$
CHEMBL1240961
     RDKit          3D

  0  0  0  0  0  0  0  0  0  0999 V3000
M  V30 BEGIN CTAB
M  V30 COUNTS 28 31 0 0 0
M  V30 BEGIN ATOM
M  V30 1 O -1.577765 -5.523146 3.416114 0
M  V30 2 C -0.868657 -4.850347 2.614005 0
M  V30 3 C -0.933314 -3.418424 2.426690 0
M  V30 4 C -1.804788 -2.611157 3.127435 0
M  V30 5 N -1.650569 -1.330742 2.755181 0
M  V30 6 C -0.684878 -1.308286 1.818733 0
M  V30 7 C -0.210763 -2.585246 1.583629 0
M  V30 8 C 0.789091 -2.886341 0.670628 0
M  V30 9 C 1.343864 -1.837579 -0.048013 0
M  V30 10 C 0.883456 -0.573777 0.176153 0
M  V30 11 C -0.122358 -0.269204 1.094298 0
M  V30 12 N -0.361360 1.055548 1.094026 0
M  V30 13 C 0.464755 1.633955 0.195396 0
M  V30 14 C 0.579273 2.966036 -0.147536 0
M  V30 15 C 1.510793 3.309773 -1.107026 0
M  V30 16 C 2.277355 2.315907 -1.673911 0
M  V30 17 C 2.162383 0.983825 -1.330537 0
M  V30 18 Br 3.276906 -0.265698 -2.188850 0
M  V30 19 C 1.233933 0.640678 -0.374112 0
M  V30 20 H -0.200529 -5.517061 2.085107 0
M  V30 21 H -2.534688 -2.930630 3.888010 0
M  V30 22 H -2.144239 -0.465620 3.081005 0
M  V30 23 H 1.109927 -3.924528 0.541882 0
M  V30 24 H 2.103726 -2.111039 -0.734077 0
M  V30 25 H -1.066638 1.532508 1.691900 0
M  V30 26 H -0.019685 3.743503 0.295238 0
M  V30 27 H 1.644232 4.356923 -1.418535 0
M  V30 28 H 3.006139 2.617183 -2.430225 0
M  V30 END ATOM
M  V30 BEGIN BOND
M  V30 1 2 1 2
M  V30 2 1 2 3
M  V30 3 2 3 4
M  V30 4 1 4 5
M  V30 5 1 5 6
M  V30 6 2 6 7
M  V30 7 1 7 8
M  V30 8 2 8 9
M  V30 9 1 9 10
M  V30 10 2 10 11
M  V30 11 1 11 12
M  V30 12 1 12 13
M  V30 13 2 13 14
M  V30 14 1 14 15
M  V30 15 2 15 16
M  V30 16 1 16 17
M  V30 17 1 17 18
M  V30 18 2 17 19
M  V30 19 1 7 3
M  V30 20 1 19 10
M  V30 21 1 11 6
M  V30 22 1 19 13
M  V30 23 1 2 20
M  V30 24 1 4 21
M  V30 25 1 5 22
M  V30 26 1 8 23
M  V30 27 1 9 24
M  V30 28 1 12 25
M  V30 29 1 14 26
M  V30 30 1 15 27
M  V30 31 1 16 28
M  V30 END BOND
M  V30 END CTAB
M  END
>  <Dataset>  (698) 
ChEMBL_Kinases

>  <Ligand_Instance>  (698) 
nan

>  <PDB_ID>  (698) 
nan

>  <Standardized_SMILES>  (698) 
O=Cc1c[nH]c2c1ccc1c2[nH]c2cccc(Br)c21

>  <Name>  (698) 
nan

>  <Pocket>  (698) 
nan

>  <ATP_Site>  (698) 
nan

>  <Peripheral>  (698) 
nan

>  <Num_H_Atoms_ProtBoundConf>  (698) 
nan

>  <Num_Resolved_Atoms>  (698) 
nan

>  <Num_Not_Resolved_Atoms>  (698) 
nan

$$$$
CHEMBL572781
     RDKit          3D

  0  0  0  0  0  0  0  0  0  0999 V3000
M  V30 BEGIN CTAB
M  V30 COUNTS 46 50 0 0 0
M  V30 BEGIN ATOM
M  V30 1 O 2.423971 3.041910 3.567137 0
M  V30 2 C 2.135202 2.007266 2.954166 0
M  V30 3 N 2.999640 1.192646 2.331472 0
M  V30 4 C 2.494946 0.110888 1.716474 0
M  V30 5 C 3.380419 -0.852471 0.994211 0
M  V30 6 N 3.512152 -0.474218 -0.384871 0
M  V30 7 C 4.104923 0.829275 -0.595468 0
M  V30 8 C 4.722986 0.780531 -1.977601 0
M  V30 9 C 4.827021 -0.660420 -2.343820 0 CFG=2
M  V30 10 O 4.093741 -0.895926 -3.521105 0
M  V30 11 C 4.235836 -1.401475 -1.188089 0
M  V30 12 N 1.198836 -0.213760 1.678837 0
M  V30 13 C 0.234734 0.512911 2.259155 0
M  V30 14 C 0.824961 1.634702 2.888121 0
M  V30 15 S -0.651654 2.536103 3.644704 0
M  V30 16 C -1.899575 1.284687 3.018965 0
M  V30 17 C -3.203888 1.300140 3.196329 0
M  V30 18 C -3.954252 0.283122 2.653435 0
M  V30 19 C -3.220698 -0.659673 1.966427 0
M  V30 20 C -3.988919 -1.776637 1.361724 0
M  V30 21 C -3.424078 -3.032220 1.230442 0
M  V30 22 C -4.148473 -4.054928 0.667834 0
M  V30 23 C -5.448503 -3.791940 0.240726 0
M  V30 24 C -6.027370 -2.546069 0.363914 0
M  V30 25 C -5.272921 -1.539358 0.933636 0
M  V30 26 C -1.858840 -0.661630 1.790208 0
M  V30 27 C -1.106843 0.354553 2.332373 0
M  V30 28 H 3.996574 1.414990 2.345644 0
M  V30 29 H 4.350710 -0.836141 1.505111 0
M  V30 30 H 2.991593 -1.877756 1.033293 0
M  V30 31 H 4.860432 1.114645 0.144893 0
M  V30 32 H 3.301168 1.590383 -0.612683 0
M  V30 33 H 5.726859 1.272792 -2.015189 0
M  V30 34 H 4.109446 1.328165 -2.722931 0
M  V30 35 H 5.867709 -0.964483 -2.577710 0
M  V30 36 H 3.246014 -0.364741 -3.466640 0
M  V30 37 H 3.543934 -2.183941 -1.616940 0
M  V30 38 H 5.009324 -1.954739 -0.594964 0
M  V30 39 H -3.638547 2.110409 3.761765 0
M  V30 40 H -5.009315 0.237055 2.760134 0
M  V30 41 H -2.411024 -3.231522 1.564859 0
M  V30 42 H -3.749133 -5.052256 0.544535 0
M  V30 43 H -6.081568 -4.564053 -0.217182 0
M  V30 44 H -7.056365 -2.360492 0.019454 0
M  V30 45 H -5.732830 -0.561920 1.028051 0
M  V30 46 H -1.420038 -1.470875 1.225062 0
M  V30 END ATOM
M  V30 BEGIN BOND
M  V30 1 2 1 2
M  V30 2 1 2 3
M  V30 3 1 3 4
M  V30 4 1 4 5
M  V30 5 1 5 6
M  V30 6 1 6 7
M  V30 7 1 7 8
M  V30 8 1 8 9
M  V30 9 1 9 10
M  V30 10 1 9 11
M  V30 11 2 4 12
M  V30 12 1 12 13
M  V30 13 2 13 14
M  V30 14 1 14 15
M  V30 15 1 15 16
M  V30 16 2 16 17
M  V30 17 1 17 18
M  V30 18 2 18 19
M  V30 19 1 19 20
M  V30 20 2 20 21
M  V30 21 1 21 22
M  V30 22 2 22 23
M  V30 23 1 23 24
M  V30 24 2 24 25
M  V30 25 1 19 26
M  V30 26 2 26 27
M  V30 27 1 14 2
M  V30 28 1 27 16
M  V30 29 1 11 6
M  V30 30 1 27 13
M  V30 31 1 25 20
M  V30 32 1 3 28
M  V30 33 1 5 29
M  V30 34 1 5 30
M  V30 35 1 7 31
M  V30 36 1 7 32
M  V30 37 1 8 33
M  V30 38 1 8 34
M  V30 39 1 9 35 CFG=3
M  V30 40 1 10 36
M  V30 41 1 11 37
M  V30 42 1 11 38
M  V30 43 1 17 39
M  V30 44 1 18 40
M  V30 45 1 21 41
M  V30 46 1 22 42
M  V30 47 1 23 43
M  V30 48 1 24 44
M  V30 49 1 25 45
M  V30 50 1 26 46
M  V30 END BOND
M  V30 END CTAB
M  END
>  <Dataset>  (699) 
ChEMBL_Kinases

>  <Ligand_Instance>  (699) 
nan

>  <PDB_ID>  (699) 
nan

>  <Standardized_SMILES>  (699) 
O=c1[nH]c(CN2CC[C@H](O)C2)nc2c1sc1ccc(-c3ccccc3)cc12

>  <Name>  (699) 
nan

>  <Pocket>  (699) 
nan

>  <ATP_Site>  (699) 
nan

>  <Peripheral>  (699) 
nan

>  <Num_H_Atoms_ProtBoundConf>  (699) 
nan

>  <Num_Resolved_Atoms>  (699) 
nan

>  <Num_Not_Resolved_Atoms>  (699) 
nan

$$$$
CHEMBL572550
     RDKit          3D

  0  0  0  0  0  0  0  0  0  0999 V3000
M  V30 BEGIN CTAB
M  V30 COUNTS 47 50 0 0 0
M  V30 BEGIN ATOM
M  V30 1 C -1.081311 -7.024146 0.128056 0
M  V30 2 C -2.188372 -6.220017 -0.521583 0
M  V30 3 C -1.821435 -4.807537 -0.705413 0
M  V30 4 C -1.201467 -4.381372 -1.859480 0
M  V30 5 C -0.816229 -3.074042 -2.128636 0
M  V30 6 C -1.085200 -2.140846 -1.147497 0
M  V30 7 C -0.696544 -0.729023 -1.381374 0
M  V30 8 C -0.746199 -0.326443 -2.695768 0
M  V30 9 C -0.390619 0.978813 -2.936789 0
M  V30 10 C -0.016158 1.765735 -1.836100 0
M  V30 11 S 0.500197 3.486716 -1.782355 0
M  V30 12 C 0.748348 3.555058 -0.006446 0
M  V30 13 C 1.162890 4.599583 0.813150 0
M  V30 14 O 1.405859 5.668675 0.241277 0
M  V30 15 N 1.264511 4.371663 2.129756 0
M  V30 16 C 0.950715 3.134819 2.538056 0
M  V30 17 C 1.052319 2.843604 3.999800 0
M  V30 18 N 2.350688 2.365603 4.373446 0
M  V30 19 C 2.401460 2.101108 5.795740 0
M  V30 20 C 2.777094 1.183602 3.676564 0
M  V30 21 N 0.560345 2.161007 1.744147 0
M  V30 22 C 0.421897 2.271021 0.412270 0
M  V30 23 C 0.029320 1.340269 -0.499906 0
M  V30 24 C -0.334770 0.029031 -0.311228 0
M  V30 25 C -1.705406 -2.537761 0.019687 0
M  V30 26 C -2.081604 -3.840047 0.271558 0
M  V30 27 H -1.347030 -8.095549 0.061351 0
M  V30 28 H -0.091905 -6.810453 -0.333922 0
M  V30 29 H -1.022107 -6.743125 1.194057 0
M  V30 30 H -3.036762 -6.230120 0.212426 0
M  V30 31 H -2.507501 -6.688735 -1.471182 0
M  V30 32 H -0.987531 -5.111014 -2.634498 0
M  V30 33 H -0.332889 -2.823399 -3.063232 0
M  V30 34 H -1.029531 -0.917758 -3.537888 0
M  V30 35 H -0.365797 1.477183 -3.889987 0
M  V30 36 H 1.576091 5.165488 2.723812 0
M  V30 37 H 0.288869 2.120158 4.323679 0
M  V30 38 H 0.878457 3.788125 4.552881 0
M  V30 39 H 2.553792 3.000795 6.409198 0
M  V30 40 H 3.185060 1.324498 5.966398 0
M  V30 41 H 1.428565 1.627853 6.090276 0
M  V30 42 H 3.400094 1.452994 2.787197 0
M  V30 43 H 1.936574 0.520488 3.401843 0
M  V30 44 H 3.427432 0.596341 4.353340 0
M  V30 45 H -0.348659 -0.445743 0.675826 0
M  V30 46 H -1.904951 -1.775909 0.776586 0
M  V30 47 H -2.570515 -4.151464 1.192499 0
M  V30 END ATOM
M  V30 BEGIN BOND
M  V30 1 1 1 2
M  V30 2 1 2 3
M  V30 3 2 3 4
M  V30 4 1 4 5
M  V30 5 2 5 6
M  V30 6 1 6 7
M  V30 7 2 7 8
M  V30 8 1 8 9
M  V30 9 2 9 10
M  V30 10 1 10 11
M  V30 11 1 11 12
M  V30 12 1 12 13
M  V30 13 2 13 14
M  V30 14 1 13 15
M  V30 15 1 15 16
M  V30 16 1 16 17
M  V30 17 1 17 18
M  V30 18 1 18 19
M  V30 19 1 18 20
M  V30 20 2 16 21
M  V30 21 1 21 22
M  V30 22 1 22 23
M  V30 23 2 23 24
M  V30 24 1 6 25
M  V30 25 2 25 26
M  V30 26 1 26 3
M  V30 27 1 24 7
M  V30 28 1 23 10
M  V30 29 2 22 12
M  V30 30 1 1 27
M  V30 31 1 1 28
M  V30 32 1 1 29
M  V30 33 1 2 30
M  V30 34 1 2 31
M  V30 35 1 4 32
M  V30 36 1 5 33
M  V30 37 1 8 34
M  V30 38 1 9 35
M  V30 39 1 15 36
M  V30 40 1 17 37
M  V30 41 1 17 38
M  V30 42 1 19 39
M  V30 43 1 19 40
M  V30 44 1 19 41
M  V30 45 1 20 42
M  V30 46 1 20 43
M  V30 47 1 20 44
M  V30 48 1 24 45
M  V30 49 1 25 46
M  V30 50 1 26 47
M  V30 END BOND
M  V30 END CTAB
M  END
>  <Dataset>  (700) 
ChEMBL_Kinases

>  <Ligand_Instance>  (700) 
nan

>  <PDB_ID>  (700) 
nan

>  <Standardized_SMILES>  (700) 
CCc1ccc(-c2ccc3sc4c(=O)[nH]c(CN(C)C)nc4c3c2)cc1

>  <Name>  (700) 
nan

>  <Pocket>  (700) 
nan

>  <ATP_Site>  (700) 
nan

>  <Peripheral>  (700) 
nan

>  <Num_H_Atoms_ProtBoundConf>  (700) 
nan

>  <Num_Resolved_Atoms>  (700) 
nan

>  <Num_Not_Resolved_Atoms>  (700) 
nan

$$$$
CHEMBL3781989
     RDKit          3D

  0  0  0  0  0  0  0  0  0  0999 V3000
M  V30 BEGIN CTAB
M  V30 COUNTS 52 56 0 0 0
M  V30 BEGIN ATOM
M  V30 1 C -0.458262 -5.325667 0.951581 0
M  V30 2 C 0.411374 -5.763777 -0.027736 0
M  V30 3 C 1.436908 -4.982826 -0.518989 0
M  V30 4 C 1.618131 -3.709378 -0.025091 0
M  V30 5 C 2.667921 -2.804392 -0.473626 0
M  V30 6 C 3.591131 -3.115913 -1.432963 0
M  V30 7 N 4.567506 -2.279279 -1.851694 0
M  V30 8 C 4.655304 -1.057102 -1.303366 0
M  V30 9 C 5.606698 -0.111015 -1.642152 0
M  V30 10 N 5.668137 1.102452 -1.073094 0
M  V30 11 C 4.770339 1.454070 -0.115410 0
M  V30 12 C 3.776160 0.565951 0.289926 0
M  V30 13 N 2.860272 0.969575 1.294193 0
M  V30 14 C 1.450529 1.092829 1.223253 0
M  V30 15 C 0.720716 0.887176 0.074519 0
M  V30 16 C -0.654370 1.022234 0.077196 0
M  V30 17 C -1.381820 1.362866 1.194398 0
M  V30 18 N -2.783981 1.494571 1.160239 0
M  V30 19 C -3.619978 1.376829 0.014196 0
M  V30 20 C -4.587256 0.233898 0.070533 0
M  V30 21 C -5.204522 0.014622 1.412380 0
M  V30 22 C -4.448575 0.536885 2.567761 0
M  V30 23 C -3.618241 1.770884 2.309736 0
M  V30 24 C -0.613118 1.556886 2.310440 0
M  V30 25 C 0.756742 1.435374 2.362019 0
M  V30 26 C 3.740238 -0.688092 -0.321821 0
M  V30 27 N 2.799088 -1.568686 0.044033 0
M  V30 28 C 0.747546 -3.275201 0.952999 0
M  V30 29 C -0.286077 -4.033566 1.462848 0
M  V30 30 H -1.259796 -5.947389 1.329716 0
M  V30 31 H 0.276169 -6.754171 -0.416925 0
M  V30 32 H 2.096920 -5.352332 -1.281053 0
M  V30 33 H 3.564568 -4.086791 -1.906166 0
M  V30 34 H 6.301437 -0.420835 -2.402711 0
M  V30 35 H 4.890516 2.441784 0.287099 0
M  V30 36 H 3.376068 1.185131 2.165773 0
M  V30 37 H 1.295866 0.621825 -0.801071 0
M  V30 38 H -1.084539 0.832478 -0.877365 0
M  V30 39 H -3.016527 1.319391 -0.908081 0
M  V30 40 H -4.190623 2.347343 -0.096038 0
M  V30 41 H -5.398586 0.438763 -0.659434 0
M  V30 42 H -4.061069 -0.675178 -0.307951 0
M  V30 43 H -6.252970 0.388369 1.448015 0
M  V30 44 H -5.299887 -1.099821 1.535776 0
M  V30 45 H -3.776271 -0.224721 3.055954 0
M  V30 46 H -5.165032 0.794627 3.382632 0
M  V30 47 H -4.291575 2.626077 2.088556 0
M  V30 48 H -3.048830 1.955933 3.234640 0
M  V30 49 H -1.056663 1.828784 3.256801 0
M  V30 50 H 1.327023 1.600481 3.277603 0
M  V30 51 H 0.875812 -2.259585 1.360744 0
M  V30 52 H -0.926207 -3.618915 2.230867 0
M  V30 END ATOM
M  V30 BEGIN BOND
M  V30 1 2 1 2
M  V30 2 1 2 3
M  V30 3 2 3 4
M  V30 4 1 4 5
M  V30 5 2 5 6
M  V30 6 1 6 7
M  V30 7 2 7 8
M  V30 8 1 8 9
M  V30 9 2 9 10
M  V30 10 1 10 11
M  V30 11 2 11 12
M  V30 12 1 12 13
M  V30 13 1 13 14
M  V30 14 2 14 15
M  V30 15 1 15 16
M  V30 16 2 16 17
M  V30 17 1 17 18
M  V30 18 1 18 19
M  V30 19 1 19 20
M  V30 20 1 20 21
M  V30 21 1 21 22
M  V30 22 1 22 23
M  V30 23 1 17 24
M  V30 24 2 24 25
M  V30 25 1 12 26
M  V30 26 2 26 27
M  V30 27 1 4 28
M  V30 28 2 28 29
M  V30 29 1 29 1
M  V30 30 1 27 5
M  V30 31 1 26 8
M  V30 32 1 25 14
M  V30 33 1 23 18
M  V30 34 1 1 30
M  V30 35 1 2 31
M  V30 36 1 3 32
M  V30 37 1 6 33
M  V30 38 1 9 34
M  V30 39 1 11 35
M  V30 40 1 13 36
M  V30 41 1 15 37
M  V30 42 1 16 38
M  V30 43 1 19 39
M  V30 44 1 19 40
M  V30 45 1 20 41
M  V30 46 1 20 42
M  V30 47 1 21 43
M  V30 48 1 21 44
M  V30 49 1 22 45
M  V30 50 1 22 46
M  V30 51 1 23 47
M  V30 52 1 23 48
M  V30 53 1 24 49
M  V30 54 1 25 50
M  V30 55 1 28 51
M  V30 56 1 29 52
M  V30 END BOND
M  V30 END CTAB
M  END
>  <Dataset>  (701) 
ChEMBL_Kinases

>  <Ligand_Instance>  (701) 
nan

>  <PDB_ID>  (701) 
nan

>  <Standardized_SMILES>  (701) 
c1ccc(-c2cnc3cncc(Nc4ccc(N5CCCCC5)cc4)c3n2)cc1

>  <Name>  (701) 
nan

>  <Pocket>  (701) 
nan

>  <ATP_Site>  (701) 
nan

>  <Peripheral>  (701) 
nan

>  <Num_H_Atoms_ProtBoundConf>  (701) 
nan

>  <Num_Resolved_Atoms>  (701) 
nan

>  <Num_Not_Resolved_Atoms>  (701) 
nan

$$$$
CHEMBL3670464
     RDKit          3D

  0  0  0  0  0  0  0  0  0  0999 V3000
M  V30 BEGIN CTAB
M  V30 COUNTS 40 42 0 0 0
M  V30 BEGIN ATOM
M  V30 1 N 0.779524 -4.218892 2.325929 0
M  V30 2 C 1.260905 -2.958167 1.750358 0
M  V30 3 C 0.499275 -1.826784 2.403171 0 CFG=1
M  V30 4 N 0.880600 -0.520768 1.927049 0
M  V30 5 C 0.936614 -0.164014 0.527757 0
M  V30 6 N 0.661547 -1.008351 -0.451081 0
M  V30 7 C 0.721578 -0.692285 -1.748839 0
M  V30 8 N 1.081293 0.559074 -2.156982 0
M  V30 9 C 1.380715 1.487552 -1.201030 0
M  V30 10 C 1.746833 2.756764 -1.591372 0
M  V30 11 C 1.806782 3.083990 -3.012793 0
M  V30 12 N 1.489497 2.100216 -3.991137 0
M  V30 13 O 2.137571 4.233767 -3.403726 0
M  V30 14 C 2.057926 3.724188 -0.658902 0
M  V30 15 C 1.988927 3.374289 0.674280 0
M  V30 16 C 1.616196 2.087865 1.007283 0
M  V30 17 C 1.299760 1.099177 0.114350 0
M  V30 18 C -0.943994 -2.057143 2.550118 0
M  V30 19 C -1.974117 -1.676766 1.718402 0
M  V30 20 C -3.309201 -1.937183 1.919499 0
M  V30 21 C -3.689920 -2.638943 3.042547 0
M  V30 22 C -2.743819 -3.070506 3.946398 0
M  V30 23 C -1.430538 -2.764753 3.664164 0
M  V30 24 H -0.231302 -4.332717 2.077187 0
M  V30 25 H 1.323810 -5.031264 1.981186 0
M  V30 26 H 1.159625 -3.010218 0.669625 0
M  V30 27 H 2.326471 -2.871073 2.070077 0
M  V30 28 H 0.889535 -1.861549 3.487795 0
M  V30 29 H 1.121028 0.186737 2.650293 0
M  V30 30 H 0.478796 -1.447471 -2.498573 0
M  V30 31 H 2.112621 1.570037 -4.641611 0
M  V30 32 H 0.744432 1.549046 -4.451241 0
M  V30 33 H 2.337105 4.698881 -1.034200 0
M  V30 34 H 2.236823 4.147598 1.388726 0
M  V30 35 H 1.600638 1.938895 2.074485 0
M  V30 36 H -1.734858 -1.130287 0.842512 0
M  V30 37 H -4.050558 -1.610826 1.231301 0
M  V30 38 H -4.712560 -2.880433 3.267920 0
M  V30 39 H -2.973496 -3.624132 4.845282 0
M  V30 40 H -0.678587 -3.111996 4.389623 0
M  V30 END ATOM
M  V30 BEGIN BOND
M  V30 1 1 1 2
M  V30 2 1 2 3
M  V30 3 1 3 4
M  V30 4 1 4 5
M  V30 5 2 5 6
M  V30 6 1 6 7
M  V30 7 2 7 8
M  V30 8 1 8 9
M  V30 9 2 9 10
M  V30 10 1 10 11
M  V30 11 1 11 12
M  V30 12 2 11 13
M  V30 13 1 10 14
M  V30 14 2 14 15
M  V30 15 1 15 16
M  V30 16 2 16 17
M  V30 17 1 3 18
M  V30 18 2 18 19
M  V30 19 1 19 20
M  V30 20 2 20 21
M  V30 21 1 21 22
M  V30 22 2 22 23
M  V30 23 1 17 5
M  V30 24 1 23 18
M  V30 25 1 17 9
M  V30 26 1 1 24
M  V30 27 1 1 25
M  V30 28 1 2 26
M  V30 29 1 2 27
M  V30 30 1 3 28 CFG=1
M  V30 31 1 4 29
M  V30 32 1 7 30
M  V30 33 1 12 31
M  V30 34 1 12 32
M  V30 35 1 14 33
M  V30 36 1 15 34
M  V30 37 1 16 35
M  V30 38 1 19 36
M  V30 39 1 20 37
M  V30 40 1 21 38
M  V30 41 1 22 39
M  V30 42 1 23 40
M  V30 END BOND
M  V30 END CTAB
M  END
>  <Dataset>  (702) 
ChEMBL_Kinases

>  <Ligand_Instance>  (702) 
nan

>  <PDB_ID>  (702) 
nan

>  <Standardized_SMILES>  (702) 
NC[C@@H](Nc1ncnc2c(C(N)=O)cccc12)c1ccccc1

>  <Name>  (702) 
nan

>  <Pocket>  (702) 
nan

>  <ATP_Site>  (702) 
nan

>  <Peripheral>  (702) 
nan

>  <Num_H_Atoms_ProtBoundConf>  (702) 
nan

>  <Num_Resolved_Atoms>  (702) 
nan

>  <Num_Not_Resolved_Atoms>  (702) 
nan

$$$$
CHEMBL3670465
     RDKit          3D

  0  0  0  0  0  0  0  0  0  0999 V3000
M  V30 BEGIN CTAB
M  V30 COUNTS 54 57 0 0 0
M  V30 BEGIN ATOM
M  V30 1 N 5.071926 -4.217109 5.220697 0
M  V30 2 C 4.227524 -3.805908 4.159596 0
M  V30 3 O 3.230937 -4.532079 3.979861 0
M  V30 4 C 4.590798 -2.598753 3.390562 0
M  V30 5 C 5.748519 -1.887360 3.717194 0
M  V30 6 C 6.034947 -0.756200 2.951500 0
M  V30 7 C 5.177088 -0.408403 1.934124 0
M  V30 8 C 4.037259 -1.092537 1.598151 0
M  V30 9 C 3.226623 -0.682454 0.564463 0
M  V30 10 N 3.508131 0.460612 -0.219975 0
M  V30 11 C 2.726532 0.974803 -1.320023 0
M  V30 12 C 1.363957 1.375404 -0.897959 0
M  V30 13 C 1.314694 2.657363 -0.411704 0
M  V30 14 C 0.088454 3.172157 0.013152 0
M  V30 15 C -0.998485 2.335343 -0.091278 0
M  V30 16 C -0.985245 1.051020 -0.571768 0
M  V30 17 N -2.079867 0.167945 -0.692118 0
M  V30 18 C -3.438703 0.374405 -0.357444 0
M  V30 19 O -3.785292 1.481244 0.119560 0
M  V30 20 N -4.486367 -0.571577 -0.509939 0
M  V30 21 C -5.801466 -0.120067 -0.092598 0
M  V30 22 C -6.865770 -1.030414 -0.650359 0
M  V30 23 C -6.585376 -1.468020 -2.060884 0
M  V30 24 C -5.196635 -1.942366 -2.305681 0
M  V30 25 C -4.375708 -1.921003 -1.032176 0
M  V30 26 C 0.241155 0.587814 -0.977693 0
M  V30 27 N 2.161893 -1.472573 0.384413 0
M  V30 28 C 1.861244 -2.562423 1.101717 0
M  V30 29 N 2.667417 -2.943780 2.106248 0
M  V30 30 C 3.775699 -2.199420 2.362832 0
M  V30 31 H 4.645018 -4.502741 6.137145 0
M  V30 32 H 4.993513 -4.546771 6.205238 0
M  V30 33 H 6.373856 -2.214874 4.524523 0
M  V30 34 H 6.931699 -0.219591 3.217121 0
M  V30 35 H 5.494446 0.468526 1.419453 0
M  V30 36 H 4.348971 1.041548 -0.043147 0
M  V30 37 H 2.596362 0.090835 -2.013999 0
M  V30 38 H 3.229517 1.784650 -1.865481 0
M  V30 39 H 2.174905 3.339670 -0.321623 0
M  V30 40 H 0.005363 4.169807 0.399980 0
M  V30 41 H -1.926799 2.757950 0.242816 0
M  V30 42 H -1.953387 -0.793883 -1.073567 0
M  V30 43 H -5.818192 -0.257601 1.018852 0
M  V30 44 H -5.971732 0.940945 -0.304281 0
M  V30 45 H -7.806538 -0.443055 -0.657229 0
M  V30 46 H -6.997651 -1.932703 -0.029001 0
M  V30 47 H -6.895883 -0.642965 -2.762894 0
M  V30 48 H -7.283532 -2.310380 -2.280263 0
M  V30 49 H -4.632528 -1.293460 -3.033618 0
M  V30 50 H -5.161127 -2.977960 -2.743591 0
M  V30 51 H -3.358761 -2.267349 -1.191803 0
M  V30 52 H -4.846345 -2.635182 -0.295355 0
M  V30 53 H 0.337944 -0.410670 -1.377389 0
M  V30 54 H 0.955958 -3.093864 0.824341 0
M  V30 END ATOM
M  V30 BEGIN BOND
M  V30 1 1 1 2
M  V30 2 2 2 3
M  V30 3 1 2 4
M  V30 4 2 4 5
M  V30 5 1 5 6
M  V30 6 2 6 7
M  V30 7 1 7 8
M  V30 8 2 8 9
M  V30 9 1 9 10
M  V30 10 1 10 11
M  V30 11 1 11 12
M  V30 12 2 12 13
M  V30 13 1 13 14
M  V30 14 2 14 15
M  V30 15 1 15 16
M  V30 16 1 16 17
M  V30 17 1 17 18
M  V30 18 2 18 19
M  V30 19 1 18 20
M  V30 20 1 20 21
M  V30 21 1 21 22
M  V30 22 1 22 23
M  V30 23 1 23 24
M  V30 24 1 24 25
M  V30 25 2 16 26
M  V30 26 1 9 27
M  V30 27 2 27 28
M  V30 28 1 28 29
M  V30 29 2 29 30
M  V30 30 1 30 4
M  V30 31 1 30 8
M  V30 32 1 26 12
M  V30 33 1 25 20
M  V30 34 1 1 31
M  V30 35 1 1 32
M  V30 36 1 5 33
M  V30 37 1 6 34
M  V30 38 1 7 35
M  V30 39 1 10 36
M  V30 40 1 11 37
M  V30 41 1 11 38
M  V30 42 1 13 39
M  V30 43 1 14 40
M  V30 44 1 15 41
M  V30 45 1 17 42
M  V30 46 1 21 43
M  V30 47 1 21 44
M  V30 48 1 22 45
M  V30 49 1 22 46
M  V30 50 1 23 47
M  V30 51 1 23 48
M  V30 52 1 24 49
M  V30 53 1 24 50
M  V30 54 1 25 51
M  V30 55 1 25 52
M  V30 56 1 26 53
M  V30 57 1 28 54
M  V30 END BOND
M  V30 END CTAB
M  END
>  <Dataset>  (703) 
ChEMBL_Kinases

>  <Ligand_Instance>  (703) 
nan

>  <PDB_ID>  (703) 
nan

>  <Standardized_SMILES>  (703) 
NC(=O)c1cccc2c(NCc3cccc(NC(=O)N4CCCCC4)c3)ncnc12

>  <Name>  (703) 
nan

>  <Pocket>  (703) 
nan

>  <ATP_Site>  (703) 
nan

>  <Peripheral>  (703) 
nan

>  <Num_H_Atoms_ProtBoundConf>  (703) 
nan

>  <Num_Resolved_Atoms>  (703) 
nan

>  <Num_Not_Resolved_Atoms>  (703) 
nan

$$$$
CHEMBL3670466
     RDKit          3D

  0  0  0  0  0  0  0  0  0  0999 V3000
M  V30 BEGIN CTAB
M  V30 COUNTS 43 45 0 0 0
M  V30 BEGIN ATOM
M  V30 1 N -1.579899 -4.099640 3.568475 0
M  V30 2 C -0.730476 -4.776024 2.652350 0
M  V30 3 O -0.325887 -5.940491 2.907940 0
M  V30 4 C -0.327962 -4.116823 1.413703 0
M  V30 5 C 0.500773 -4.816736 0.550900 0
M  V30 6 C 0.844524 -4.139543 -0.595536 0
M  V30 7 C 0.417951 -2.863718 -0.897699 0
M  V30 8 C -0.398381 -2.200648 -0.026182 0
M  V30 9 C -0.806718 -0.929038 -0.358266 0
M  V30 10 N -0.459336 -0.222919 -1.539083 0
M  V30 11 C -0.956125 1.099912 -1.752873 0
M  V30 12 C -0.427901 2.180931 -0.874315 0
M  V30 13 N 0.947386 2.445525 -0.921936 0
M  V30 14 C 1.914179 1.589270 -0.396073 0
M  V30 15 C 2.066331 1.550646 1.071212 0
M  V30 16 C 2.929309 2.534356 1.566781 0
M  V30 17 C 3.234288 2.695634 2.907428 0
M  V30 18 C 2.675852 1.857178 3.845616 0
M  V30 19 C 1.820373 0.873578 3.403106 0
M  V30 20 C 1.548611 0.753475 2.061409 0
M  V30 21 N -1.611139 -0.341310 0.551989 0
M  V30 22 C -1.988586 -0.943309 1.695193 0
M  V30 23 N -1.583295 -2.192099 2.013987 0
M  V30 24 C -0.770776 -2.839528 1.138455 0
M  V30 25 H -2.575426 -4.042113 3.263104 0
M  V30 26 H -2.565258 -3.784534 3.751866 0
M  V30 27 H 0.813437 -5.808648 0.816807 0
M  V30 28 H 1.500829 -4.657343 -1.308877 0
M  V30 29 H 0.746377 -2.428716 -1.819416 0
M  V30 30 H 0.148802 -0.583055 -2.303112 0
M  V30 31 H -2.083871 1.046491 -1.631565 0
M  V30 32 H -0.831215 1.453674 -2.803102 0
M  V30 33 H -0.949496 3.128648 -1.219559 0
M  V30 34 H -0.842848 2.044755 0.156632 0
M  V30 35 H 1.251998 3.206732 -1.555646 0
M  V30 36 H 1.747125 0.545028 -0.759073 0
M  V30 37 H 2.910347 1.866896 -0.833728 0
M  V30 38 H 3.434252 3.258875 0.928904 0
M  V30 39 H 3.898610 3.454481 3.270590 0
M  V30 40 H 2.854783 1.907181 4.908459 0
M  V30 41 H 1.329734 0.166970 4.044242 0
M  V30 42 H 0.896206 -0.003226 1.687538 0
M  V30 43 H -2.642512 -0.310158 2.308147 0
M  V30 END ATOM
M  V30 BEGIN BOND
M  V30 1 1 1 2
M  V30 2 2 2 3
M  V30 3 1 2 4
M  V30 4 2 4 5
M  V30 5 1 5 6
M  V30 6 2 6 7
M  V30 7 1 7 8
M  V30 8 2 8 9
M  V30 9 1 9 10
M  V30 10 1 10 11
M  V30 11 1 11 12
M  V30 12 1 12 13
M  V30 13 1 13 14
M  V30 14 1 14 15
M  V30 15 2 15 16
M  V30 16 1 16 17
M  V30 17 2 17 18
M  V30 18 1 18 19
M  V30 19 2 19 20
M  V30 20 1 9 21
M  V30 21 2 21 22
M  V30 22 1 22 23
M  V30 23 2 23 24
M  V30 24 1 24 4
M  V30 25 1 24 8
M  V30 26 1 20 15
M  V30 27 1 1 25
M  V30 28 1 1 26
M  V30 29 1 5 27
M  V30 30 1 6 28
M  V30 31 1 7 29
M  V30 32 1 10 30
M  V30 33 1 11 31
M  V30 34 1 11 32
M  V30 35 1 12 33
M  V30 36 1 12 34
M  V30 37 1 13 35
M  V30 38 1 14 36
M  V30 39 1 14 37
M  V30 40 1 16 38
M  V30 41 1 17 39
M  V30 42 1 18 40
M  V30 43 1 19 41
M  V30 44 1 20 42
M  V30 45 1 22 43
M  V30 END BOND
M  V30 END CTAB
M  END
>  <Dataset>  (704) 
ChEMBL_Kinases

>  <Ligand_Instance>  (704) 
nan

>  <PDB_ID>  (704) 
nan

>  <Standardized_SMILES>  (704) 
NC(=O)c1cccc2c(NCCNCc3ccccc3)ncnc12

>  <Name>  (704) 
nan

>  <Pocket>  (704) 
nan

>  <ATP_Site>  (704) 
nan

>  <Peripheral>  (704) 
nan

>  <Num_H_Atoms_ProtBoundConf>  (704) 
nan

>  <Num_Resolved_Atoms>  (704) 
nan

>  <Num_Not_Resolved_Atoms>  (704) 
nan

$$$$
CHEMBL3670467
     RDKit          3D

  0  0  0  0  0  0  0  0  0  0999 V3000
M  V30 BEGIN CTAB
M  V30 COUNTS 53 56 0 0 0
M  V30 BEGIN ATOM
M  V30 1 C 1.141768 -4.139887 8.038993 0
M  V30 2 O 2.270015 -4.335396 7.204520 0
M  V30 3 C 2.437285 -3.626335 6.036693 0
M  V30 4 C 3.516006 -3.786741 5.201289 0
M  V30 5 C 3.622035 -3.038567 4.038454 0
M  V30 6 C 2.678289 -2.109385 3.653345 0
M  V30 7 C 2.888477 -1.377511 2.411266 0
M  V30 8 O 3.924217 -1.649182 1.775474 0
M  V30 9 N 2.015136 -0.397847 1.885758 0
M  V30 10 C 2.133239 0.361145 0.695958 0
M  V30 11 C 3.128263 0.315692 -0.219699 0
M  V30 12 C 3.207854 1.072704 -1.368521 0
M  V30 13 C 2.188679 1.958457 -1.617739 0
M  V30 14 C 1.137439 2.038793 -0.696443 0
M  V30 15 C 0.102211 3.038779 -1.061319 0
M  V30 16 N -0.825590 2.400411 -1.975291 0
M  V30 17 C -1.644164 1.291919 -1.741785 0
M  V30 18 N -1.717555 0.608984 -0.592306 0
M  V30 19 C -2.496733 -0.449686 -0.353446 0
M  V30 20 N -3.305475 -0.922301 -1.315620 0
M  V30 21 C -3.295956 -0.294809 -2.506196 0
M  V30 22 C -4.131262 -0.796922 -3.472923 0
M  V30 23 C -4.977385 -1.953637 -3.198884 0
M  V30 24 N -5.044395 -2.660165 -1.986971 0
M  V30 25 O -5.748174 -2.439121 -4.049042 0
M  V30 26 C -4.197204 -0.233346 -4.714881 0
M  V30 27 C -3.391845 0.867181 -4.973905 0
M  V30 28 C -2.574897 1.325637 -3.965389 0
M  V30 29 C -2.476997 0.791947 -2.707095 0
M  V30 30 C 1.127534 1.259491 0.416171 0
M  V30 31 C 1.608732 -1.971257 4.511219 0
M  V30 32 C 1.479650 -2.703074 5.673627 0
M  V30 33 H 1.111520 -4.924586 8.822645 0
M  V30 34 H 1.092334 -3.153185 8.506755 0
M  V30 35 H 0.187438 -4.277046 7.466320 0
M  V30 36 H 4.263433 -4.516095 5.497149 0
M  V30 37 H 4.531286 -3.265220 3.463647 0
M  V30 38 H 1.191235 -0.268455 2.514055 0
M  V30 39 H 3.954007 -0.360403 -0.076867 0
M  V30 40 H 4.027254 0.990716 -2.059216 0
M  V30 41 H 2.234986 2.566763 -2.523490 0
M  V30 42 H -0.435943 3.387547 -0.139318 0
M  V30 43 H 0.588366 3.916435 -1.484957 0
M  V30 44 H -0.828568 2.871888 -2.882041 0
M  V30 45 H -2.360219 -0.807671 0.654846 0
M  V30 46 H -4.522793 -3.449533 -1.542226 0
M  V30 47 H -5.653778 -2.604783 -1.145080 0
M  V30 48 H -4.859374 -0.642715 -5.459358 0
M  V30 49 H -3.452505 1.299870 -5.950528 0
M  V30 50 H -1.990331 2.181254 -4.263244 0
M  V30 51 H 0.294732 1.363453 1.110964 0
M  V30 52 H 0.846714 -1.253199 4.245737 0
M  V30 53 H 0.587075 -2.514987 6.286501 0
M  V30 END ATOM
M  V30 BEGIN BOND
M  V30 1 1 1 2
M  V30 2 1 2 3
M  V30 3 2 3 4
M  V30 4 1 4 5
M  V30 5 2 5 6
M  V30 6 1 6 7
M  V30 7 2 7 8
M  V30 8 1 7 9
M  V30 9 1 9 10
M  V30 10 2 10 11
M  V30 11 1 11 12
M  V30 12 2 12 13
M  V30 13 1 13 14
M  V30 14 1 14 15
M  V30 15 1 15 16
M  V30 16 1 16 17
M  V30 17 2 17 18
M  V30 18 1 18 19
M  V30 19 2 19 20
M  V30 20 1 20 21
M  V30 21 2 21 22
M  V30 22 1 22 23
M  V30 23 1 23 24
M  V30 24 2 23 25
M  V30 25 1 22 26
M  V30 26 2 26 27
M  V30 27 1 27 28
M  V30 28 2 28 29
M  V30 29 2 14 30
M  V30 30 1 6 31
M  V30 31 2 31 32
M  V30 32 1 32 3
M  V30 33 1 30 10
M  V30 34 1 29 17
M  V30 35 1 29 21
M  V30 36 1 1 33
M  V30 37 1 1 34
M  V30 38 1 1 35
M  V30 39 1 4 36
M  V30 40 1 5 37
M  V30 41 1 9 38
M  V30 42 1 11 39
M  V30 43 1 12 40
M  V30 44 1 13 41
M  V30 45 1 15 42
M  V30 46 1 15 43
M  V30 47 1 16 44
M  V30 48 1 19 45
M  V30 49 1 24 46
M  V30 50 1 24 47
M  V30 51 1 26 48
M  V30 52 1 27 49
M  V30 53 1 28 50
M  V30 54 1 30 51
M  V30 55 1 31 52
M  V30 56 1 32 53
M  V30 END BOND
M  V30 END CTAB
M  END
>  <Dataset>  (705) 
ChEMBL_Kinases

>  <Ligand_Instance>  (705) 
nan

>  <PDB_ID>  (705) 
nan

>  <Standardized_SMILES>  (705) 
COc1ccc(C(=O)Nc2cccc(CNc3ncnc4c(C(N)=O)cccc34)c2)cc1

>  <Name>  (705) 
nan

>  <Pocket>  (705) 
nan

>  <ATP_Site>  (705) 
nan

>  <Peripheral>  (705) 
nan

>  <Num_H_Atoms_ProtBoundConf>  (705) 
nan

>  <Num_Resolved_Atoms>  (705) 
nan

>  <Num_Not_Resolved_Atoms>  (705) 
nan

$$$$
CHEMBL3670468
     RDKit          3D

  0  0  0  0  0  0  0  0  0  0999 V3000
M  V30 BEGIN CTAB
M  V30 COUNTS 49 52 0 0 0
M  V30 BEGIN ATOM
M  V30 1 N 2.232512 -4.981350 3.607929 0
M  V30 2 C 3.554143 -4.479123 3.656170 0
M  V30 3 O 4.327598 -5.021776 4.491150 0
M  V30 4 C 4.014332 -3.396931 2.797992 0
M  V30 5 C 5.319079 -2.969467 2.911560 0
M  V30 6 C 5.715005 -1.941039 2.079386 0
M  V30 7 C 4.809046 -1.401260 1.193802 0
M  V30 8 C 3.504412 -1.808538 1.060803 0
M  V30 9 C 2.657653 -1.219523 0.151677 0
M  V30 10 N 3.055728 -0.172041 -0.704484 0
M  V30 11 C 2.241667 0.508391 -1.685325 0
M  V30 12 C 1.122923 1.189299 -0.984390 0
M  V30 13 C 1.452225 2.454569 -0.488530 0
M  V30 14 C 0.571125 3.273011 0.185121 0
M  V30 15 C -0.713594 2.851096 0.398739 0
M  V30 16 C -1.051441 1.604312 -0.085877 0
M  V30 17 N -2.372679 1.102035 0.101315 0
M  V30 18 C -3.566450 1.185523 -0.667433 0
M  V30 19 O -3.447398 1.829566 -1.729469 0
M  V30 20 C -4.753852 0.524727 -0.133684 0
M  V30 21 C -4.903767 -0.188442 1.032440 0
M  V30 22 C -6.131160 -0.734574 1.345378 0
M  V30 23 C -7.242353 -0.615771 0.558774 0
M  V30 24 Br -8.890313 -1.405878 1.078137 0
M  V30 25 C -7.069947 0.102860 -0.605157 0
M  V30 26 C -5.857790 0.674699 -0.970890 0
M  V30 27 C -0.174632 0.793461 -0.754809 0
M  V30 28 N 1.424719 -1.741163 0.157962 0
M  V30 29 C 1.012596 -2.737026 0.952221 0
M  V30 30 N 1.861339 -3.295084 1.832290 0
M  V30 31 C 3.137349 -2.832398 1.900206 0
M  V30 32 H 1.834634 -5.952117 3.452636 0
M  V30 33 H 1.232977 -4.636754 3.695885 0
M  V30 34 H 5.958685 -3.446997 3.629786 0
M  V30 35 H 6.738970 -1.622090 2.184443 0
M  V30 36 H 5.241515 -0.609593 0.604795 0
M  V30 37 H 4.030198 0.183423 -0.662199 0
M  V30 38 H 1.763654 -0.241964 -2.371724 0
M  V30 39 H 2.836882 1.241920 -2.233776 0
M  V30 40 H 2.457003 2.890273 -0.605289 0
M  V30 41 H 0.855715 4.246836 0.556720 0
M  V30 42 H -1.492132 3.399741 0.911151 0
M  V30 43 H -2.250730 0.614308 1.016290 0
M  V30 44 H -3.999518 -0.250594 1.612330 0
M  V30 45 H -6.189892 -1.287051 2.278657 0
M  V30 46 H -7.957693 0.206321 -1.248501 0
M  V30 47 H -5.878876 1.207325 -1.911143 0
M  V30 48 H -0.404673 -0.181671 -1.156687 0
M  V30 49 H -0.021893 -3.020929 0.809222 0
M  V30 END ATOM
M  V30 BEGIN BOND
M  V30 1 1 1 2
M  V30 2 2 2 3
M  V30 3 1 2 4
M  V30 4 2 4 5
M  V30 5 1 5 6
M  V30 6 2 6 7
M  V30 7 1 7 8
M  V30 8 2 8 9
M  V30 9 1 9 10
M  V30 10 1 10 11
M  V30 11 1 11 12
M  V30 12 2 12 13
M  V30 13 1 13 14
M  V30 14 2 14 15
M  V30 15 1 15 16
M  V30 16 1 16 17
M  V30 17 1 17 18
M  V30 18 2 18 19
M  V30 19 1 18 20
M  V30 20 2 20 21
M  V30 21 1 21 22
M  V30 22 2 22 23
M  V30 23 1 23 24
M  V30 24 1 23 25
M  V30 25 2 25 26
M  V30 26 2 16 27
M  V30 27 1 9 28
M  V30 28 2 28 29
M  V30 29 1 29 30
M  V30 30 2 30 31
M  V30 31 1 31 4
M  V30 32 1 31 8
M  V30 33 1 27 12
M  V30 34 1 26 20
M  V30 35 1 1 32
M  V30 36 1 1 33
M  V30 37 1 5 34
M  V30 38 1 6 35
M  V30 39 1 7 36
M  V30 40 1 10 37
M  V30 41 1 11 38
M  V30 42 1 11 39
M  V30 43 1 13 40
M  V30 44 1 14 41
M  V30 45 1 15 42
M  V30 46 1 17 43
M  V30 47 1 21 44
M  V30 48 1 22 45
M  V30 49 1 25 46
M  V30 50 1 26 47
M  V30 51 1 27 48
M  V30 52 1 29 49
M  V30 END BOND
M  V30 END CTAB
M  END
>  <Dataset>  (706) 
ChEMBL_Kinases

>  <Ligand_Instance>  (706) 
nan

>  <PDB_ID>  (706) 
nan

>  <Standardized_SMILES>  (706) 
NC(=O)c1cccc2c(NCc3cccc(NC(=O)c4ccc(Br)cc4)c3)ncnc12

>  <Name>  (706) 
nan

>  <Pocket>  (706) 
nan

>  <ATP_Site>  (706) 
nan

>  <Peripheral>  (706) 
nan

>  <Num_H_Atoms_ProtBoundConf>  (706) 
nan

>  <Num_Resolved_Atoms>  (706) 
nan

>  <Num_Not_Resolved_Atoms>  (706) 
nan

$$$$
CHEMBL3670470
     RDKit          3D

  0  0  0  0  0  0  0  0  0  0999 V3000
M  V30 BEGIN CTAB
M  V30 COUNTS 57 60 0 0 0
M  V30 BEGIN ATOM
M  V30 1 C 6.893890 -2.294557 5.002247 0
M  V30 2 N 6.956173 -2.166423 3.563147 0
M  V30 3 C 8.258983 -2.668335 3.186683 0
M  V30 4 C 5.963476 -1.660530 2.685263 0
M  V30 5 C 4.747848 -1.209609 3.146014 0
M  V30 6 C 3.797415 -0.719889 2.271468 0
M  V30 7 C 3.985981 -0.646019 0.904488 0
M  V30 8 C 3.033947 -0.144270 -0.071130 0
M  V30 9 O 3.352598 -0.143612 -1.287595 0
M  V30 10 N 1.755888 0.351298 0.249012 0
M  V30 11 C 0.729142 0.868362 -0.584921 0
M  V30 12 C 0.763738 0.997737 -1.950207 0
M  V30 13 C -0.249653 1.505262 -2.731872 0
M  V30 14 C -1.401592 1.921900 -2.100063 0
M  V30 15 C -1.485415 1.812076 -0.728408 0
M  V30 16 C -2.714929 2.234439 0.021378 0
M  V30 17 N -3.632967 1.172450 0.284330 0
M  V30 18 C -4.294350 0.368500 -0.684696 0
M  V30 19 N -4.131848 0.513849 -2.004261 0
M  V30 20 C -4.737587 -0.224470 -2.944717 0
M  V30 21 N -5.594808 -1.213355 -2.606001 0
M  V30 22 C -5.810322 -1.420197 -1.279291 0
M  V30 23 C -6.683962 -2.427654 -0.946977 0
M  V30 24 C -7.337490 -3.225276 -1.952447 0
M  V30 25 N -7.070798 -2.965646 -3.316559 0
M  V30 26 O -8.144361 -4.154241 -1.696044 0
M  V30 27 C -6.963582 -2.708745 0.372582 0
M  V30 28 C -6.325310 -1.931589 1.338091 0
M  V30 29 C -5.459528 -0.935493 0.941650 0
M  V30 30 C -5.160450 -0.631184 -0.363717 0
M  V30 31 C -0.444799 1.299847 -0.008544 0
M  V30 32 C 5.218231 -1.108405 0.485000 0
M  V30 33 C 6.191797 -1.604331 1.329923 0
M  V30 34 H 6.814859 -3.359913 5.316462 0
M  V30 35 H 7.736531 -1.777414 5.506183 0
M  V30 36 H 5.972489 -1.812776 5.363023 0
M  V30 37 H 9.030974 -1.999703 3.656265 0
M  V30 38 H 8.402124 -2.758892 2.111162 0
M  V30 39 H 8.484170 -3.672784 3.610957 0
M  V30 40 H 4.477845 -1.213380 4.180091 0
M  V30 41 H 2.850876 -0.372191 2.660811 0
M  V30 42 H 1.574061 0.314519 1.276064 0
M  V30 43 H 1.638739 0.687351 -2.489135 0
M  V30 44 H -0.154505 1.578326 -3.805355 0
M  V30 45 H -2.193337 2.327312 -2.699298 0
M  V30 46 H -3.206149 3.096429 -0.518720 0
M  V30 47 H -2.403676 2.682649 0.985711 0
M  V30 48 H -3.823579 0.983342 1.290419 0
M  V30 49 H -4.559898 -0.052585 -4.008677 0
M  V30 50 H -6.913906 -2.738853 -4.312109 0
M  V30 51 H -6.368670 -3.407176 -3.975147 0
M  V30 52 H -7.653634 -3.507173 0.553451 0
M  V30 53 H -6.562954 -2.173610 2.364439 0
M  V30 54 H -5.040349 -0.418335 1.775071 0
M  V30 55 H -0.553219 1.232133 1.065839 0
M  V30 56 H 5.415254 -1.069956 -0.594618 0
M  V30 57 H 7.092613 -1.922962 0.854375 0
M  V30 END ATOM
M  V30 BEGIN BOND
M  V30 1 1 1 2
M  V30 2 1 2 3
M  V30 3 1 2 4
M  V30 4 2 4 5
M  V30 5 1 5 6
M  V30 6 2 6 7
M  V30 7 1 7 8
M  V30 8 2 8 9
M  V30 9 1 8 10
M  V30 10 1 10 11
M  V30 11 2 11 12
M  V30 12 1 12 13
M  V30 13 2 13 14
M  V30 14 1 14 15
M  V30 15 1 15 16
M  V30 16 1 16 17
M  V30 17 1 17 18
M  V30 18 2 18 19
M  V30 19 1 19 20
M  V30 20 2 20 21
M  V30 21 1 21 22
M  V30 22 2 22 23
M  V30 23 1 23 24
M  V30 24 1 24 25
M  V30 25 2 24 26
M  V30 26 1 23 27
M  V30 27 2 27 28
M  V30 28 1 28 29
M  V30 29 2 29 30
M  V30 30 2 15 31
M  V30 31 1 7 32
M  V30 32 2 32 33
M  V30 33 1 33 4
M  V30 34 1 31 11
M  V30 35 1 30 18
M  V30 36 1 30 22
M  V30 37 1 1 34
M  V30 38 1 1 35
M  V30 39 1 1 36
M  V30 40 1 3 37
M  V30 41 1 3 38
M  V30 42 1 3 39
M  V30 43 1 5 40
M  V30 44 1 6 41
M  V30 45 1 10 42
M  V30 46 1 12 43
M  V30 47 1 13 44
M  V30 48 1 14 45
M  V30 49 1 16 46
M  V30 50 1 16 47
M  V30 51 1 17 48
M  V30 52 1 20 49
M  V30 53 1 25 50
M  V30 54 1 25 51
M  V30 55 1 27 52
M  V30 56 1 28 53
M  V30 57 1 29 54
M  V30 58 1 31 55
M  V30 59 1 32 56
M  V30 60 1 33 57
M  V30 END BOND
M  V30 END CTAB
M  END
>  <Dataset>  (707) 
ChEMBL_Kinases

>  <Ligand_Instance>  (707) 
nan

>  <PDB_ID>  (707) 
nan

>  <Standardized_SMILES>  (707) 
CN(C)c1ccc(C(=O)Nc2cccc(CNc3ncnc4c(C(N)=O)cccc34)c2)cc1

>  <Name>  (707) 
nan

>  <Pocket>  (707) 
nan

>  <ATP_Site>  (707) 
nan

>  <Peripheral>  (707) 
nan

>  <Num_H_Atoms_ProtBoundConf>  (707) 
nan

>  <Num_Resolved_Atoms>  (707) 
nan

>  <Num_Not_Resolved_Atoms>  (707) 
nan

$$$$
CHEMBL3670471
     RDKit          3D

  0  0  0  0  0  0  0  0  0  0999 V3000
M  V30 BEGIN CTAB
M  V30 COUNTS 52 56 0 0 0
M  V30 BEGIN ATOM
M  V30 1 N 4.793222 -3.359211 -3.633054 0
M  V30 2 C 5.130941 -3.662240 -2.279122 0
M  V30 3 O 5.783919 -4.732720 -2.218996 0
M  V30 4 C 4.747602 -2.814313 -1.156299 0
M  V30 5 C 5.136783 -3.220237 0.103430 0
M  V30 6 C 4.734724 -2.358542 1.127862 0
M  V30 7 C 4.013495 -1.211780 0.867798 0
M  V30 8 C 3.656566 -0.860579 -0.397878 0
M  V30 9 C 2.934026 0.297328 -0.609940 0
M  V30 10 N 2.525089 1.180382 0.421701 0
M  V30 11 C 1.761456 2.407490 0.237754 0
M  V30 12 C 0.423938 2.196763 -0.336448 0
M  V30 13 C -0.026335 2.231984 -1.636415 0
M  V30 14 C -1.325405 1.992915 -1.972868 0
M  V30 15 C -2.255716 1.700950 -1.000080 0
M  V30 16 C -1.862209 1.652868 0.313167 0
M  V30 17 N -2.845132 1.347854 1.307574 0
M  V30 18 C -2.951149 -0.048747 1.559603 0
M  V30 19 O -2.185453 -0.755044 0.884838 0
M  V30 20 C -3.893434 -0.575051 2.538041 0
M  V30 21 C -4.770294 0.160217 3.323755 0
M  V30 22 C -5.616878 -0.450898 4.216052 0
M  V30 23 C -5.626056 -1.837457 4.365300 0
M  V30 24 C -4.763836 -2.587147 3.595292 0
M  V30 25 C -3.910128 -1.964931 2.694981 0
M  V30 26 O -4.945428 -3.929828 3.909346 0
M  V30 27 C -5.631442 -3.989410 5.155157 0
M  V30 28 O -6.332074 -2.762703 5.151268 0
M  V30 29 C -0.544218 1.897948 0.627572 0
M  V30 30 N 2.647254 0.527071 -1.901338 0
M  V30 31 C 3.004429 -0.260419 -2.926664 0
M  V30 32 N 3.708331 -1.391057 -2.735038 0
M  V30 33 C 4.027292 -1.675855 -1.452197 0
M  V30 34 H 3.942085 -3.614882 -4.182617 0
M  V30 35 H 5.252108 -2.831950 -4.430742 0
M  V30 36 H 5.699115 -4.128303 0.232399 0
M  V30 37 H 5.029621 -2.653429 2.143627 0
M  V30 38 H 3.771136 -0.644310 1.733351 0
M  V30 39 H 2.756044 0.995785 1.416630 0
M  V30 40 H 1.685209 2.983341 1.181002 0
M  V30 41 H 2.336428 3.046144 -0.474141 0
M  V30 42 H 0.745838 2.472492 -2.346978 0
M  V30 43 H -1.597856 2.039996 -3.020406 0
M  V30 44 H -3.300601 1.507148 -1.254536 0
M  V30 45 H -3.450380 2.039142 1.826147 0
M  V30 46 H -4.738133 1.222672 3.184993 0
M  V30 47 H -6.292877 0.102609 4.823681 0
M  V30 48 H -3.243107 -2.582485 2.102975 0
M  V30 49 H -4.851948 -3.989035 5.937552 0
M  V30 50 H -6.298818 -4.869308 5.210836 0
M  V30 51 H -0.337392 1.834278 1.699288 0
M  V30 52 H 2.713988 0.027950 -3.943529 0
M  V30 END ATOM
M  V30 BEGIN BOND
M  V30 1 1 1 2
M  V30 2 2 2 3
M  V30 3 1 2 4
M  V30 4 2 4 5
M  V30 5 1 5 6
M  V30 6 2 6 7
M  V30 7 1 7 8
M  V30 8 2 8 9
M  V30 9 1 9 10
M  V30 10 1 10 11
M  V30 11 1 11 12
M  V30 12 2 12 13
M  V30 13 1 13 14
M  V30 14 2 14 15
M  V30 15 1 15 16
M  V30 16 1 16 17
M  V30 17 1 17 18
M  V30 18 2 18 19
M  V30 19 1 18 20
M  V30 20 2 20 21
M  V30 21 1 21 22
M  V30 22 2 22 23
M  V30 23 1 23 24
M  V30 24 2 24 25
M  V30 25 1 24 26
M  V30 26 1 26 27
M  V30 27 1 27 28
M  V30 28 2 16 29
M  V30 29 1 9 30
M  V30 30 2 30 31
M  V30 31 1 31 32
M  V30 32 2 32 33
M  V30 33 1 33 4
M  V30 34 1 33 8
M  V30 35 1 29 12
M  V30 36 1 25 20
M  V30 37 1 28 23
M  V30 38 1 1 34
M  V30 39 1 1 35
M  V30 40 1 5 36
M  V30 41 1 6 37
M  V30 42 1 7 38
M  V30 43 1 10 39
M  V30 44 1 11 40
M  V30 45 1 11 41
M  V30 46 1 13 42
M  V30 47 1 14 43
M  V30 48 1 15 44
M  V30 49 1 17 45
M  V30 50 1 21 46
M  V30 51 1 22 47
M  V30 52 1 25 48
M  V30 53 1 27 49
M  V30 54 1 27 50
M  V30 55 1 29 51
M  V30 56 1 31 52
M  V30 END BOND
M  V30 END CTAB
M  END
>  <Dataset>  (708) 
ChEMBL_Kinases

>  <Ligand_Instance>  (708) 
nan

>  <PDB_ID>  (708) 
nan

>  <Standardized_SMILES>  (708) 
NC(=O)c1cccc2c(NCc3cccc(NC(=O)c4ccc5c(c4)OCO5)c3)ncnc12

>  <Name>  (708) 
nan

>  <Pocket>  (708) 
nan

>  <ATP_Site>  (708) 
nan

>  <Peripheral>  (708) 
nan

>  <Num_H_Atoms_ProtBoundConf>  (708) 
nan

>  <Num_Resolved_Atoms>  (708) 
nan

>  <Num_Not_Resolved_Atoms>  (708) 
nan

$$$$
CHEMBL3670472
     RDKit          3D

  0  0  0  0  0  0  0  0  0  0999 V3000
M  V30 BEGIN CTAB
M  V30 COUNTS 52 55 0 0 0
M  V30 BEGIN ATOM
M  V30 1 N -4.460377 -4.900298 -1.057733 0
M  V30 2 C -5.465137 -4.268068 -0.273796 0
M  V30 3 O -6.292980 -5.032818 0.281631 0
M  V30 4 C -5.522097 -2.811040 -0.130074 0
M  V30 5 C -6.527046 -2.273371 0.641115 0
M  V30 6 C -6.528703 -0.896568 0.741632 0
M  V30 7 C -5.572004 -0.135779 0.099057 0
M  V30 8 C -4.586174 -0.684449 -0.659087 0
M  V30 9 C -3.642502 0.099797 -1.288835 0
M  V30 10 N -3.627030 1.512094 -1.191011 0
M  V30 11 C -2.673234 2.416313 -1.818879 0
M  V30 12 C -1.278255 2.171655 -1.435262 0
M  V30 13 C -0.879241 2.753306 -0.270169 0
M  V30 14 C 0.424380 2.593690 0.179884 0
M  V30 15 C 1.339982 1.834709 -0.558154 0
M  V30 16 C 0.869874 1.286336 -1.708557 0
M  V30 17 N 1.655337 0.496592 -2.566936 0
M  V30 18 C 2.947266 0.011583 -2.585519 0
M  V30 19 O 3.653191 0.349937 -1.551512 0
M  V30 20 C 4.272433 -0.544656 -2.706270 0
M  V30 21 C 5.156601 -0.233353 -1.552904 0
M  V30 22 C 5.981957 0.855321 -1.389015 0
M  V30 23 C 6.762774 1.050340 -0.285006 0
M  V30 24 C 6.750482 0.118671 0.753588 0
M  V30 25 C 5.942730 -0.992313 0.644120 0
M  V30 26 C 5.173986 -1.142520 -0.490404 0
M  V30 27 C -0.403313 1.399079 -2.218908 0
M  V30 28 N -2.736785 -0.581865 -1.997003 0
M  V30 29 C -2.708906 -1.915119 -2.113481 0
M  V30 30 N -3.629979 -2.680310 -1.498761 0
M  V30 31 C -4.565347 -2.056708 -0.773214 0
M  V30 32 H -3.510608 -5.300567 -1.061158 0
M  V30 33 H -4.961726 -4.938323 -1.986041 0
M  V30 34 H -7.239708 -2.953064 1.111785 0
M  V30 35 H -7.302594 -0.446089 1.338895 0
M  V30 36 H -5.668442 0.921792 0.246590 0
M  V30 37 H -4.333181 2.034191 -0.633098 0
M  V30 38 H -2.903742 3.480286 -1.622866 0
M  V30 39 H -2.722102 2.292924 -2.930158 0
M  V30 40 H -1.517072 3.356515 0.363930 0
M  V30 41 H 0.764421 3.041053 1.095124 0
M  V30 42 H 2.356735 1.700281 -0.225826 0
M  V30 43 H 1.470705 0.020289 -3.498329 0
M  V30 44 H 4.830327 -0.155209 -3.607668 0
M  V30 45 H 4.270018 -1.677162 -2.794794 0
M  V30 46 H 5.956846 1.559043 -2.229278 0
M  V30 47 H 7.376641 1.924874 -0.236892 0
M  V30 48 H 7.380515 0.291854 1.628906 0
M  V30 49 H 5.928493 -1.716506 1.444130 0
M  V30 50 H 4.544204 -2.026680 -0.556642 0
M  V30 51 H -0.771247 0.970149 -3.132950 0
M  V30 52 H -1.902682 -2.312151 -2.728304 0
M  V30 END ATOM
M  V30 BEGIN BOND
M  V30 1 1 1 2
M  V30 2 2 2 3
M  V30 3 1 2 4
M  V30 4 2 4 5
M  V30 5 1 5 6
M  V30 6 2 6 7
M  V30 7 1 7 8
M  V30 8 2 8 9
M  V30 9 1 9 10
M  V30 10 1 10 11
M  V30 11 1 11 12
M  V30 12 2 12 13
M  V30 13 1 13 14
M  V30 14 2 14 15
M  V30 15 1 15 16
M  V30 16 1 16 17
M  V30 17 1 17 18
M  V30 18 2 18 19
M  V30 19 1 18 20
M  V30 20 1 20 21
M  V30 21 2 21 22
M  V30 22 1 22 23
M  V30 23 2 23 24
M  V30 24 1 24 25
M  V30 25 2 25 26
M  V30 26 2 16 27
M  V30 27 1 9 28
M  V30 28 2 28 29
M  V30 29 1 29 30
M  V30 30 2 30 31
M  V30 31 1 31 4
M  V30 32 1 31 8
M  V30 33 1 27 12
M  V30 34 1 26 21
M  V30 35 1 1 32
M  V30 36 1 1 33
M  V30 37 1 5 34
M  V30 38 1 6 35
M  V30 39 1 7 36
M  V30 40 1 10 37
M  V30 41 1 11 38
M  V30 42 1 11 39
M  V30 43 1 13 40
M  V30 44 1 14 41
M  V30 45 1 15 42
M  V30 46 1 17 43
M  V30 47 1 20 44
M  V30 48 1 20 45
M  V30 49 1 22 46
M  V30 50 1 23 47
M  V30 51 1 24 48
M  V30 52 1 25 49
M  V30 53 1 26 50
M  V30 54 1 27 51
M  V30 55 1 29 52
M  V30 END BOND
M  V30 END CTAB
M  END
>  <Dataset>  (709) 
ChEMBL_Kinases

>  <Ligand_Instance>  (709) 
nan

>  <PDB_ID>  (709) 
nan

>  <Standardized_SMILES>  (709) 
NC(=O)c1cccc2c(NCc3cccc(NC(=O)Cc4ccccc4)c3)ncnc12

>  <Name>  (709) 
nan

>  <Pocket>  (709) 
nan

>  <ATP_Site>  (709) 
nan

>  <Peripheral>  (709) 
nan

>  <Num_H_Atoms_ProtBoundConf>  (709) 
nan

>  <Num_Resolved_Atoms>  (709) 
nan

>  <Num_Not_Resolved_Atoms>  (709) 
nan

$$$$
CHEMBL3670473
     RDKit          3D

  0  0  0  0  0  0  0  0  0  0999 V3000
M  V30 BEGIN CTAB
M  V30 COUNTS 49 52 0 0 0
M  V30 BEGIN ATOM
M  V30 1 N 2.823488 -5.225130 3.017598 0
M  V30 2 C 4.066994 -4.533484 3.006919 0
M  V30 3 O 4.981322 -5.072213 3.682208 0
M  V30 4 C 4.340853 -3.290820 2.293334 0
M  V30 5 C 5.619429 -2.790286 2.420749 0
M  V30 6 C 5.885996 -1.602343 1.740188 0
M  V30 7 C 4.897374 -1.008819 1.001772 0
M  V30 8 C 3.634378 -1.493854 0.869766 0
M  V30 9 C 2.685270 -0.845274 0.109383 0
M  V30 10 N 2.952649 0.361092 -0.587563 0
M  V30 11 C 2.017057 1.109161 -1.405795 0
M  V30 12 C 0.877363 1.574630 -0.585212 0
M  V30 13 C 1.071115 2.775105 0.093926 0
M  V30 14 C 0.110902 3.383788 0.908266 0
M  V30 15 C -1.092927 2.762187 1.046618 0
M  V30 16 C -1.316796 1.570602 0.386234 0
M  V30 17 N -2.562604 0.871772 0.493860 0
M  V30 18 C -3.752749 0.951843 -0.279448 0
M  V30 19 O -3.718362 1.783488 -1.234449 0
M  V30 20 C -4.871727 0.108834 0.069652 0
M  V30 21 C -4.984134 -0.806032 1.078849 0
M  V30 22 C -6.141669 -1.536736 1.274045 0
M  V30 23 C -7.229865 -1.374590 0.461246 0
M  V30 24 F -8.340951 -2.126585 0.708007 0
M  V30 25 C -7.158205 -0.458376 -0.572850 0
M  V30 26 F -8.234993 -0.294812 -1.380797 0
M  V30 27 C -5.993861 0.260494 -0.750264 0
M  V30 28 C -0.361442 1.008513 -0.396523 0
M  V30 29 N 1.495200 -1.457973 0.086539 0
M  V30 30 C 1.210738 -2.599488 0.730469 0
M  V30 31 N 2.149779 -3.219632 1.468705 0
M  V30 32 C 3.370218 -2.666965 1.541507 0
M  V30 33 H 2.014523 -5.412464 2.385788 0
M  V30 34 H 2.014582 -5.411846 2.384362 0
M  V30 35 H 6.390133 -3.268849 3.006776 0
M  V30 36 H 6.908659 -1.215003 1.850591 0
M  V30 37 H 5.235294 -0.103697 0.531233 0
M  V30 38 H 3.899408 0.791422 -0.537677 0
M  V30 39 H 2.517586 1.996700 -1.840306 0
M  V30 40 H 1.619115 0.482504 -2.239994 0
M  V30 41 H 2.015301 3.314638 0.018504 0
M  V30 42 H 0.330788 4.315470 1.404458 0
M  V30 43 H -1.851946 3.201918 1.664164 0
M  V30 44 H -2.420880 0.234888 1.321049 0
M  V30 45 H -4.088657 -0.897807 1.698877 0
M  V30 46 H -6.105741 -2.223521 2.100475 0
M  V30 47 H -6.023768 0.955065 -1.582447 0
M  V30 48 H -0.532756 0.093770 -0.916163 0
M  V30 49 H 0.241421 -3.078736 0.698973 0
M  V30 END ATOM
M  V30 BEGIN BOND
M  V30 1 1 1 2
M  V30 2 2 2 3
M  V30 3 1 2 4
M  V30 4 2 4 5
M  V30 5 1 5 6
M  V30 6 2 6 7
M  V30 7 1 7 8
M  V30 8 2 8 9
M  V30 9 1 9 10
M  V30 10 1 10 11
M  V30 11 1 11 12
M  V30 12 2 12 13
M  V30 13 1 13 14
M  V30 14 2 14 15
M  V30 15 1 15 16
M  V30 16 1 16 17
M  V30 17 1 17 18
M  V30 18 2 18 19
M  V30 19 1 18 20
M  V30 20 2 20 21
M  V30 21 1 21 22
M  V30 22 2 22 23
M  V30 23 1 23 24
M  V30 24 1 23 25
M  V30 25 1 25 26
M  V30 26 2 25 27
M  V30 27 2 16 28
M  V30 28 1 9 29
M  V30 29 2 29 30
M  V30 30 1 30 31
M  V30 31 2 31 32
M  V30 32 1 32 4
M  V30 33 1 32 8
M  V30 34 1 28 12
M  V30 35 1 27 20
M  V30 36 1 1 33
M  V30 37 1 1 34
M  V30 38 1 5 35
M  V30 39 1 6 36
M  V30 40 1 7 37
M  V30 41 1 10 38
M  V30 42 1 11 39
M  V30 43 1 11 40
M  V30 44 1 13 41
M  V30 45 1 14 42
M  V30 46 1 15 43
M  V30 47 1 17 44
M  V30 48 1 21 45
M  V30 49 1 22 46
M  V30 50 1 27 47
M  V30 51 1 28 48
M  V30 52 1 30 49
M  V30 END BOND
M  V30 END CTAB
M  END
>  <Dataset>  (710) 
ChEMBL_Kinases

>  <Ligand_Instance>  (710) 
nan

>  <PDB_ID>  (710) 
nan

>  <Standardized_SMILES>  (710) 
NC(=O)c1cccc2c(NCc3cccc(NC(=O)c4ccc(F)c(F)c4)c3)ncnc12

>  <Name>  (710) 
nan

>  <Pocket>  (710) 
nan

>  <ATP_Site>  (710) 
nan

>  <Peripheral>  (710) 
nan

>  <Num_H_Atoms_ProtBoundConf>  (710) 
nan

>  <Num_Resolved_Atoms>  (710) 
nan

>  <Num_Not_Resolved_Atoms>  (710) 
nan

$$$$
CHEMBL3670474
     RDKit          3D

  0  0  0  0  0  0  0  0  0  0999 V3000
M  V30 BEGIN CTAB
M  V30 COUNTS 53 56 0 0 0
M  V30 BEGIN ATOM
M  V30 1 N 5.407959 0.517003 6.084463 0
M  V30 2 C 4.285158 1.101111 5.437538 0
M  V30 3 O 3.975418 1.348444 6.615948 0
M  V30 4 C 4.244814 1.031938 3.991288 0
M  V30 5 C 5.227455 0.422934 3.254435 0
M  V30 6 C 5.001408 0.467730 1.900949 0
M  V30 7 C 3.888089 1.071562 1.357889 0
M  V30 8 C 2.925483 1.669911 2.107621 0
M  V30 9 C 1.828463 2.263322 1.526875 0
M  V30 10 N 1.622644 2.297107 0.110889 0
M  V30 11 C 0.488479 2.905827 -0.559170 0
M  V30 12 C -0.817106 2.320268 -0.228757 0
M  V30 13 C -1.732014 2.723108 0.720727 0
M  V30 14 C -2.929789 2.082507 0.951382 0
M  V30 15 C -3.280100 0.970165 0.216307 0
M  V30 16 C -2.403269 0.520194 -0.749732 0
M  V30 17 N -2.757419 -0.628731 -1.516570 0
M  V30 18 C -2.318261 -1.871443 -0.934837 0
M  V30 19 O -1.698158 -1.671403 0.156095 0
M  V30 20 C -2.569552 -3.186796 -1.547122 0
M  V30 21 C -3.242357 -3.412856 -2.733191 0
M  V30 22 C -3.381974 -4.737571 -3.152769 0
M  V30 23 C -2.861562 -5.781227 -2.400745 0
M  V30 24 S -3.125511 -7.429155 -3.077892 0
M  V30 25 C -4.708169 -8.038845 -2.399692 0
M  V30 26 F -5.714969 -7.255649 -2.908994 0
M  V30 27 F -4.958746 -9.341378 -2.749085 0
M  V30 28 F -4.681241 -7.863090 -1.022030 0
M  V30 29 C -2.192281 -5.552585 -1.220427 0
M  V30 30 C -2.060870 -4.246191 -0.817501 0
M  V30 31 C -1.210161 1.185089 -0.956016 0
M  V30 32 N 0.935547 2.827636 2.350863 0
M  V30 33 C 1.131264 2.798416 3.675327 0
M  V30 34 N 2.191471 2.227413 4.274636 0
M  V30 35 C 3.123374 1.641861 3.470367 0
M  V30 36 H 6.227714 -0.075638 5.837965 0
M  V30 37 H 6.201330 0.117290 6.598093 0
M  V30 38 H 6.043819 -0.010612 3.796916 0
M  V30 39 H 5.770896 -0.010728 1.293652 0
M  V30 40 H 3.861216 1.020094 0.291477 0
M  V30 41 H 2.330268 1.855304 -0.515605 0
M  V30 42 H 0.497960 4.018630 -0.424783 0
M  V30 43 H 0.635593 2.768885 -1.648820 0
M  V30 44 H -1.470907 3.595660 1.290749 0
M  V30 45 H -3.594003 2.468461 1.721445 0
M  V30 46 H -4.207162 0.434814 0.360564 0
M  V30 47 H -3.288332 -0.688352 -2.436599 0
M  V30 48 H -3.609962 -2.540543 -3.245702 0
M  V30 49 H -3.919517 -4.879770 -4.095435 0
M  V30 50 H -1.809367 -6.402128 -0.677554 0
M  V30 51 H -1.522796 -4.115813 0.124862 0
M  V30 52 H -0.562099 0.777518 -1.735028 0
M  V30 53 H 0.367898 3.276319 4.302336 0
M  V30 END ATOM
M  V30 BEGIN BOND
M  V30 1 1 1 2
M  V30 2 2 2 3
M  V30 3 1 2 4
M  V30 4 2 4 5
M  V30 5 1 5 6
M  V30 6 2 6 7
M  V30 7 1 7 8
M  V30 8 2 8 9
M  V30 9 1 9 10
M  V30 10 1 10 11
M  V30 11 1 11 12
M  V30 12 2 12 13
M  V30 13 1 13 14
M  V30 14 2 14 15
M  V30 15 1 15 16
M  V30 16 1 16 17
M  V30 17 1 17 18
M  V30 18 2 18 19
M  V30 19 1 18 20
M  V30 20 2 20 21
M  V30 21 1 21 22
M  V30 22 2 22 23
M  V30 23 1 23 24
M  V30 24 1 24 25
M  V30 25 1 25 26
M  V30 26 1 25 27
M  V30 27 1 25 28
M  V30 28 1 23 29
M  V30 29 2 29 30
M  V30 30 2 16 31
M  V30 31 1 9 32
M  V30 32 2 32 33
M  V30 33 1 33 34
M  V30 34 2 34 35
M  V30 35 1 35 4
M  V30 36 1 35 8
M  V30 37 1 31 12
M  V30 38 1 30 20
M  V30 39 1 1 36
M  V30 40 1 1 37
M  V30 41 1 5 38
M  V30 42 1 6 39
M  V30 43 1 7 40
M  V30 44 1 10 41
M  V30 45 1 11 42
M  V30 46 1 11 43
M  V30 47 1 13 44
M  V30 48 1 14 45
M  V30 49 1 15 46
M  V30 50 1 17 47
M  V30 51 1 21 48
M  V30 52 1 22 49
M  V30 53 1 29 50
M  V30 54 1 30 51
M  V30 55 1 31 52
M  V30 56 1 33 53
M  V30 END BOND
M  V30 END CTAB
M  END
>  <Dataset>  (711) 
ChEMBL_Kinases

>  <Ligand_Instance>  (711) 
nan

>  <PDB_ID>  (711) 
nan

>  <Standardized_SMILES>  (711) 
NC(=O)c1cccc2c(NCc3cccc(NC(=O)c4ccc(SC(F)(F)F)cc4)c3)ncnc12

>  <Name>  (711) 
nan

>  <Pocket>  (711) 
nan

>  <ATP_Site>  (711) 
nan

>  <Peripheral>  (711) 
nan

>  <Num_H_Atoms_ProtBoundConf>  (711) 
nan

>  <Num_Resolved_Atoms>  (711) 
nan

>  <Num_Not_Resolved_Atoms>  (711) 
nan

$$$$
CHEMBL573929
     RDKit          3D

  0  0  0  0  0  0  0  0  0  0999 V3000
M  V30 BEGIN CTAB
M  V30 COUNTS 41 44 0 0 0
M  V30 BEGIN ATOM
M  V30 1 O -1.037435 -2.305202 5.209147 0
M  V30 2 C -0.807683 -2.226080 3.976833 0
M  V30 3 N 0.438967 -2.068137 3.504811 0
M  V30 4 C 0.504906 -2.002474 2.167516 0
M  V30 5 C 1.878178 -1.825952 1.571172 0
M  V30 6 N 2.174250 -0.402280 1.439138 0
M  V30 7 C 1.212716 0.250565 0.582112 0
M  V30 8 C 1.524565 1.740586 0.445056 0
M  V30 9 C 2.876690 1.934386 -0.140535 0
M  V30 10 C 3.195013 2.041067 -1.472922 0
M  V30 11 C 4.497473 2.219702 -1.880080 0
M  V30 12 C 5.529587 2.298185 -0.968804 0
M  V30 13 C 5.261056 2.196322 0.387385 0
M  V30 14 C 3.927703 2.015427 0.765507 0
M  V30 15 N -0.527566 -2.079912 1.336539 0
M  V30 16 C -1.796839 -2.237697 1.747750 0
M  V30 17 C -1.893673 -2.308640 3.127861 0
M  V30 18 S -3.576333 -2.509880 3.487580 0
M  V30 19 C -4.107126 -2.489169 1.672837 0
M  V30 20 C -5.413230 -2.610798 1.160009 0
M  V30 21 C -5.506501 -2.561263 -0.210031 0
M  V30 22 C -4.344346 -2.402263 -0.916610 0
M  V30 23 Br -4.526839 -2.338750 -2.832213 0
M  V30 24 C -3.107319 -2.289506 -0.374969 0
M  V30 25 C -2.915597 -2.327859 0.987546 0
M  V30 26 H 1.224323 -2.011190 4.181952 0
M  V30 27 H 1.871410 -2.241883 0.540027 0
M  V30 28 H 2.636570 -2.355500 2.141329 0
M  V30 29 H 2.147929 0.032039 2.372182 0
M  V30 30 H 0.169006 0.161560 0.944983 0
M  V30 31 H 1.342566 -0.202175 -0.433155 0
M  V30 32 H 1.467495 2.259113 1.406601 0
M  V30 33 H 0.749058 2.193690 -0.205059 0
M  V30 34 H 2.361010 1.974871 -2.154878 0
M  V30 35 H 4.732694 2.302199 -2.936406 0
M  V30 36 H 6.579283 2.439838 -1.251673 0
M  V30 37 H 6.039448 2.251900 1.145269 0
M  V30 38 H 3.742053 1.937796 1.844070 0
M  V30 39 H -6.219717 -2.729675 1.845862 0
M  V30 40 H -6.483178 -2.651367 -0.612992 0
M  V30 41 H -2.267733 -2.167642 -1.045666 0
M  V30 END ATOM
M  V30 BEGIN BOND
M  V30 1 2 1 2
M  V30 2 1 2 3
M  V30 3 1 3 4
M  V30 4 1 4 5
M  V30 5 1 5 6
M  V30 6 1 6 7
M  V30 7 1 7 8
M  V30 8 1 8 9
M  V30 9 2 9 10
M  V30 10 1 10 11
M  V30 11 2 11 12
M  V30 12 1 12 13
M  V30 13 2 13 14
M  V30 14 2 4 15
M  V30 15 1 15 16
M  V30 16 2 16 17
M  V30 17 1 17 18
M  V30 18 1 18 19
M  V30 19 2 19 20
M  V30 20 1 20 21
M  V30 21 2 21 22
M  V30 22 1 22 23
M  V30 23 1 22 24
M  V30 24 2 24 25
M  V30 25 1 17 2
M  V30 26 1 25 19
M  V30 27 1 14 9
M  V30 28 1 25 16
M  V30 29 1 3 26
M  V30 30 1 5 27
M  V30 31 1 5 28
M  V30 32 1 6 29
M  V30 33 1 7 30
M  V30 34 1 7 31
M  V30 35 1 8 32
M  V30 36 1 8 33
M  V30 37 1 10 34
M  V30 38 1 11 35
M  V30 39 1 12 36
M  V30 40 1 13 37
M  V30 41 1 14 38
M  V30 42 1 20 39
M  V30 43 1 21 40
M  V30 44 1 24 41
M  V30 END BOND
M  V30 END CTAB
M  END
>  <Dataset>  (712) 
ChEMBL_Kinases

>  <Ligand_Instance>  (712) 
nan

>  <PDB_ID>  (712) 
nan

>  <Standardized_SMILES>  (712) 
O=c1[nH]c(CNCCc2ccccc2)nc2c1sc1ccc(Br)cc12

>  <Name>  (712) 
nan

>  <Pocket>  (712) 
nan

>  <ATP_Site>  (712) 
nan

>  <Peripheral>  (712) 
nan

>  <Num_H_Atoms_ProtBoundConf>  (712) 
nan

>  <Num_Resolved_Atoms>  (712) 
nan

>  <Num_Not_Resolved_Atoms>  (712) 
nan

$$$$
CHEMBL3670478
     RDKit          3D

  0  0  0  0  0  0  0  0  0  0999 V3000
M  V30 BEGIN CTAB
M  V30 COUNTS 52 55 0 0 0
M  V30 BEGIN ATOM
M  V30 1 N 1.361684 -6.630465 -1.384358 0
M  V30 2 C 1.296129 -5.171234 -1.535854 0
M  V30 3 O 0.985810 -4.393345 -2.423336 0
M  V30 4 C 1.736833 -4.607811 -0.238598 0
M  V30 5 C 2.072318 -5.299303 0.934648 0
M  V30 6 C 2.497535 -4.785056 2.127766 0
M  V30 7 C 2.604161 -3.429247 2.169711 0
M  V30 8 C 2.312722 -2.625492 1.109348 0
M  V30 9 C 2.448572 -1.257419 1.195056 0
M  V30 10 N 2.907591 -0.629270 2.381856 0
M  V30 11 C 3.098443 0.779871 2.624546 0
M  V30 12 C 1.812471 1.511429 2.607134 0
M  V30 13 C 1.116290 1.587431 3.822691 0
M  V30 14 C -0.087429 2.229199 4.049451 0
M  V30 15 C -0.633277 2.853981 2.925862 0
M  V30 16 C 0.034654 2.793568 1.713368 0
M  V30 17 N -0.663001 3.492132 0.687722 0
M  V30 18 C -1.537398 2.533125 0.120012 0
M  V30 19 O -2.051818 1.374610 0.015226 0
M  V30 20 C -2.553184 2.596549 -0.990332 0
M  V30 21 C -3.204633 1.281961 -1.160304 0
M  V30 22 C -4.334922 1.067521 -0.384908 0
M  V30 23 C -5.063686 -0.104056 -0.420245 0
M  V30 24 C -4.676972 -1.137495 -1.258829 0
M  V30 25 Cl -5.603351 -2.595165 -1.280415 0
M  V30 26 C -3.547457 -0.908874 -2.026300 0
M  V30 27 C -2.826465 0.263590 -1.984281 0
M  V30 28 C 1.223193 2.146618 1.538722 0
M  V30 29 N 2.139581 -0.584623 0.074346 0
M  V30 30 C 1.726338 -1.150869 -1.067230 0
M  V30 31 N 1.595356 -2.487447 -1.150158 0
M  V30 32 C 1.891476 -3.225014 -0.054026 0
M  V30 33 H 0.664806 -7.069344 -0.713788 0
M  V30 34 H 1.940179 -7.393923 -1.782073 0
M  V30 35 H 1.970429 -6.393672 0.857195 0
M  V30 36 H 2.714437 -5.489596 2.927763 0
M  V30 37 H 2.949349 -3.076357 3.150003 0
M  V30 38 H 3.140654 -1.203539 3.187001 0
M  V30 39 H 3.565143 0.926825 3.614793 0
M  V30 40 H 3.719668 1.221350 1.806777 0
M  V30 41 H 1.555575 1.089598 4.702839 0
M  V30 42 H -0.521111 2.213858 5.041645 0
M  V30 43 H -1.580536 3.358281 3.110895 0
M  V30 44 H -0.839853 4.367363 0.153604 0
M  V30 45 H -2.059344 2.858198 -1.969200 0
M  V30 46 H -3.261772 3.385888 -0.736302 0
M  V30 47 H -4.714792 1.828777 0.309520 0
M  V30 48 H -5.941937 -0.260599 0.191661 0
M  V30 49 H -3.260087 -1.725836 -2.676290 0
M  V30 50 H -1.950457 0.436091 -2.582034 0
M  V30 51 H 1.710316 2.122612 0.598544 0
M  V30 52 H 1.486108 -0.581919 -1.947156 0
M  V30 END ATOM
M  V30 BEGIN BOND
M  V30 1 1 1 2
M  V30 2 2 2 3
M  V30 3 1 2 4
M  V30 4 2 4 5
M  V30 5 1 5 6
M  V30 6 2 6 7
M  V30 7 1 7 8
M  V30 8 2 8 9
M  V30 9 1 9 10
M  V30 10 1 10 11
M  V30 11 1 11 12
M  V30 12 2 12 13
M  V30 13 1 13 14
M  V30 14 2 14 15
M  V30 15 1 15 16
M  V30 16 1 16 17
M  V30 17 1 17 18
M  V30 18 2 18 19
M  V30 19 1 18 20
M  V30 20 1 20 21
M  V30 21 2 21 22
M  V30 22 1 22 23
M  V30 23 2 23 24
M  V30 24 1 24 25
M  V30 25 1 24 26
M  V30 26 2 26 27
M  V30 27 2 16 28
M  V30 28 1 9 29
M  V30 29 2 29 30
M  V30 30 1 30 31
M  V30 31 2 31 32
M  V30 32 1 32 4
M  V30 33 1 32 8
M  V30 34 1 28 12
M  V30 35 1 27 21
M  V30 36 1 1 33
M  V30 37 1 1 34
M  V30 38 1 5 35
M  V30 39 1 6 36
M  V30 40 1 7 37
M  V30 41 1 10 38
M  V30 42 1 11 39
M  V30 43 1 11 40
M  V30 44 1 13 41
M  V30 45 1 14 42
M  V30 46 1 15 43
M  V30 47 1 17 44
M  V30 48 1 20 45
M  V30 49 1 20 46
M  V30 50 1 22 47
M  V30 51 1 23 48
M  V30 52 1 26 49
M  V30 53 1 27 50
M  V30 54 1 28 51
M  V30 55 1 30 52
M  V30 END BOND
M  V30 END CTAB
M  END
>  <Dataset>  (713) 
ChEMBL_Kinases

>  <Ligand_Instance>  (713) 
nan

>  <PDB_ID>  (713) 
nan

>  <Standardized_SMILES>  (713) 
NC(=O)c1cccc2c(NCc3cccc(NC(=O)Cc4ccc(Cl)cc4)c3)ncnc12

>  <Name>  (713) 
nan

>  <Pocket>  (713) 
nan

>  <ATP_Site>  (713) 
nan

>  <Peripheral>  (713) 
nan

>  <Num_H_Atoms_ProtBoundConf>  (713) 
nan

>  <Num_Resolved_Atoms>  (713) 
nan

>  <Num_Not_Resolved_Atoms>  (713) 
nan

$$$$
CHEMBL3670479
     RDKit          3D

  0  0  0  0  0  0  0  0  0  0999 V3000
M  V30 BEGIN CTAB
M  V30 COUNTS 56 59 0 0 0
M  V30 BEGIN ATOM
M  V30 1 C 5.933236 -1.744827 -1.539101 0
M  V30 2 C 5.012943 -2.362676 -0.510568 0
M  V30 3 O 3.771672 -1.720060 -0.514227 0
M  V30 4 C 3.539441 -0.398013 -0.259480 0
M  V30 5 C 4.561405 0.474394 0.042941 0
M  V30 6 C 4.335866 1.806354 0.300369 0
M  V30 7 C 5.422072 2.737904 0.622724 0
M  V30 8 N 6.777724 2.342916 0.693061 0
M  V30 9 O 5.239999 3.949027 0.860105 0
M  V30 10 C 3.053876 2.289475 0.256540 0
M  V30 11 N 2.837808 3.585276 0.507389 0
M  V30 12 C 1.563975 4.013610 0.452793 0
M  V30 13 N 0.555642 3.175459 0.159211 0
M  V30 14 C 0.704907 1.872492 -0.100819 0
M  V30 15 N -0.432082 1.063745 -0.402971 0
M  V30 16 C -1.737951 1.694094 -0.418209 0
M  V30 17 C -2.792685 0.702664 -0.750131 0
M  V30 18 C -3.158603 0.480854 -2.063316 0
M  V30 19 C -4.136715 -0.431023 -2.443337 0
M  V30 20 C -4.777912 -1.154503 -1.458680 0
M  V30 21 C -4.420562 -0.941420 -0.141500 0
M  V30 22 N -5.021357 -1.638380 0.970020 0
M  V30 23 C -4.235190 -2.826112 1.188972 0
M  V30 24 O -3.268789 -2.904653 0.357106 0
M  V30 25 C -4.532372 -3.811822 2.249576 0
M  V30 26 C -5.588310 -3.702544 3.140570 0
M  V30 27 C -5.752490 -4.694653 4.082919 0
M  V30 28 C -4.884164 -5.781606 4.144491 0
M  V30 29 F -5.049347 -6.764511 5.080317 0
M  V30 30 C -3.848777 -5.853631 3.242868 0
M  V30 31 C -3.651175 -4.873863 2.279391 0
M  V30 32 C -3.435788 -0.023375 0.241363 0
M  V30 33 C 2.008606 1.430079 -0.045773 0
M  V30 34 C 2.260341 0.100181 -0.299795 0
M  V30 35 H 6.900333 -1.445822 -1.103793 0
M  V30 36 H 5.459328 -0.882400 -2.054879 0
M  V30 37 H 6.168739 -2.516507 -2.327914 0
M  V30 38 H 5.479722 -2.235274 0.510024 0
M  V30 39 H 4.870916 -3.443465 -0.738648 0
M  V30 40 H 5.594454 0.165104 0.096265 0
M  V30 41 H 7.429393 1.883297 0.009955 0
M  V30 42 H 7.524148 2.394569 1.446881 0
M  V30 43 H 1.244018 5.031391 0.632658 0
M  V30 44 H -0.404592 0.046666 -0.616260 0
M  V30 45 H -1.871448 2.147284 0.590287 0
M  V30 46 H -1.678991 2.465836 -1.214525 0
M  V30 47 H -2.703256 1.008280 -2.895862 0
M  V30 48 H -4.409877 -0.590887 -3.479331 0
M  V30 49 H -5.548243 -1.881485 -1.671021 0
M  V30 50 H -5.841142 -1.474293 1.598085 0
M  V30 51 H -6.221268 -2.854179 3.051138 0
M  V30 52 H -6.576826 -4.600616 4.771501 0
M  V30 53 H -3.147197 -6.686538 3.256555 0
M  V30 54 H -2.818477 -4.981370 1.593817 0
M  V30 55 H -3.162305 0.136800 1.277323 0
M  V30 56 H 1.480832 -0.583109 -0.534235 0
M  V30 END ATOM
M  V30 BEGIN BOND
M  V30 1 1 1 2
M  V30 2 1 2 3
M  V30 3 1 3 4
M  V30 4 2 4 5
M  V30 5 1 5 6
M  V30 6 1 6 7
M  V30 7 1 7 8
M  V30 8 2 7 9
M  V30 9 2 6 10
M  V30 10 1 10 11
M  V30 11 2 11 12
M  V30 12 1 12 13
M  V30 13 2 13 14
M  V30 14 1 14 15
M  V30 15 1 15 16
M  V30 16 1 16 17
M  V30 17 2 17 18
M  V30 18 1 18 19
M  V30 19 2 19 20
M  V30 20 1 20 21
M  V30 21 1 21 22
M  V30 22 1 22 23
M  V30 23 2 23 24
M  V30 24 1 23 25
M  V30 25 2 25 26
M  V30 26 1 26 27
M  V30 27 2 27 28
M  V30 28 1 28 29
M  V30 29 1 28 30
M  V30 30 2 30 31
M  V30 31 2 21 32
M  V30 32 1 14 33
M  V30 33 2 33 34
M  V30 34 1 34 4
M  V30 35 1 33 10
M  V30 36 1 32 17
M  V30 37 1 31 25
M  V30 38 1 1 35
M  V30 39 1 1 36
M  V30 40 1 1 37
M  V30 41 1 2 38
M  V30 42 1 2 39
M  V30 43 1 5 40
M  V30 44 1 8 41
M  V30 45 1 8 42
M  V30 46 1 12 43
M  V30 47 1 15 44
M  V30 48 1 16 45
M  V30 49 1 16 46
M  V30 50 1 18 47
M  V30 51 1 19 48
M  V30 52 1 20 49
M  V30 53 1 22 50
M  V30 54 1 26 51
M  V30 55 1 27 52
M  V30 56 1 30 53
M  V30 57 1 31 54
M  V30 58 1 32 55
M  V30 59 1 34 56
M  V30 END BOND
M  V30 END CTAB
M  END
>  <Dataset>  (714) 
ChEMBL_Kinases

>  <Ligand_Instance>  (714) 
nan

>  <PDB_ID>  (714) 
nan

>  <Standardized_SMILES>  (714) 
CCOc1cc(C(N)=O)c2ncnc(NCc3cccc(NC(=O)c4ccc(F)cc4)c3)c2c1

>  <Name>  (714) 
nan

>  <Pocket>  (714) 
nan

>  <ATP_Site>  (714) 
nan

>  <Peripheral>  (714) 
nan

>  <Num_H_Atoms_ProtBoundConf>  (714) 
nan

>  <Num_Resolved_Atoms>  (714) 
nan

>  <Num_Not_Resolved_Atoms>  (714) 
nan

$$$$
CHEMBL5077422
     RDKit          3D

  0  0  0  0  0  0  0  0  0  0999 V3000
M  V30 BEGIN CTAB
M  V30 COUNTS 46 49 0 0 0
M  V30 BEGIN ATOM
M  V30 1 C 1.417909 -5.566620 2.335132 0
M  V30 2 C 1.469565 -4.068076 2.221987 0
M  V30 3 N 2.586241 -3.445067 2.688863 0
M  V30 4 C 2.455348 -2.123895 2.506939 0
M  V30 5 C 3.183082 -0.980252 2.751947 0
M  V30 6 C 2.621030 0.224394 2.387642 0
M  V30 7 C 1.380784 0.344922 1.796615 0
M  V30 8 C 0.851240 1.656991 1.462540 0
M  V30 9 C -0.394277 1.788260 0.899503 0
M  V30 10 C -0.878978 3.039791 0.587076 0
M  V30 11 N -2.162290 3.224055 0.005655 0
M  V30 12 N -0.172791 4.186621 0.811344 0
M  V30 13 C 1.066236 4.081554 1.369535 0
M  V30 14 N 1.821035 5.261828 1.612877 0
M  V30 15 C 1.523580 2.815085 1.671009 0
M  V30 16 N 0.694411 -0.788240 1.568837 0
M  V30 17 C 1.220292 -2.000719 1.916492 0
M  V30 18 N 0.575235 -3.157397 1.718879 0
M  V30 19 C -0.630650 -3.674713 1.165756 0
M  V30 20 C -0.511756 -4.105165 -0.258993 0
M  V30 21 O -0.173815 -3.013218 -1.073590 0
M  V30 22 C -0.954424 -1.902695 -1.243347 0
M  V30 23 C -0.488758 -0.900030 -2.082096 0
M  V30 24 C -1.194418 0.256656 -2.326589 0
M  V30 25 C -2.412923 0.437162 -1.719603 0
M  V30 26 C -2.889028 -0.569261 -0.871707 0
M  V30 27 N -2.162328 -1.691952 -0.658690 0
M  V30 28 H 1.293703 -5.818936 3.404941 0
M  V30 29 H 2.335424 -5.999947 1.900720 0
M  V30 30 H 0.493155 -5.954652 1.822361 0
M  V30 31 H 4.135124 -1.119659 3.209681 0
M  V30 32 H 3.274758 1.051554 2.624617 0
M  V30 33 H -0.964348 0.887730 0.720332 0
M  V30 34 H -3.146391 3.296415 0.396776 0
M  V30 35 H -1.986801 3.290710 -1.029556 0
M  V30 36 H 1.859939 5.739241 2.555478 0
M  V30 37 H 2.248518 5.446326 0.670127 0
M  V30 38 H 2.502284 2.820649 2.104895 0
M  V30 39 H -1.418394 -2.890540 1.304059 0
M  V30 40 H -0.982807 -4.531288 1.774360 0
M  V30 41 H -1.510272 -4.463382 -0.650356 0
M  V30 42 H 0.160331 -4.969656 -0.401728 0
M  V30 43 H 0.457125 -0.950846 -2.603750 0
M  V30 44 H -0.839192 1.043077 -2.978906 0
M  V30 45 H -3.044911 1.295217 -1.838250 0
M  V30 46 H -3.818502 -0.548504 -0.341911 0
M  V30 END ATOM
M  V30 BEGIN BOND
M  V30 1 1 1 2
M  V30 2 2 2 3
M  V30 3 1 3 4
M  V30 4 2 4 5
M  V30 5 1 5 6
M  V30 6 2 6 7
M  V30 7 1 7 8
M  V30 8 2 8 9
M  V30 9 1 9 10
M  V30 10 1 10 11
M  V30 11 2 10 12
M  V30 12 1 12 13
M  V30 13 1 13 14
M  V30 14 2 13 15
M  V30 15 1 7 16
M  V30 16 2 16 17
M  V30 17 1 17 18
M  V30 18 1 18 19
M  V30 19 1 19 20
M  V30 20 1 20 21
M  V30 21 1 21 22
M  V30 22 2 22 23
M  V30 23 1 23 24
M  V30 24 2 24 25
M  V30 25 1 25 26
M  V30 26 2 26 27
M  V30 27 1 18 2
M  V30 28 1 27 22
M  V30 29 1 17 4
M  V30 30 1 15 8
M  V30 31 1 1 28
M  V30 32 1 1 29
M  V30 33 1 1 30
M  V30 34 1 5 31
M  V30 35 1 6 32
M  V30 36 1 9 33
M  V30 37 1 11 34
M  V30 38 1 11 35
M  V30 39 1 14 36
M  V30 40 1 14 37
M  V30 41 1 15 38
M  V30 42 1 19 39
M  V30 43 1 19 40
M  V30 44 1 20 41
M  V30 45 1 20 42
M  V30 46 1 23 43
M  V30 47 1 24 44
M  V30 48 1 25 45
M  V30 49 1 26 46
M  V30 END BOND
M  V30 END CTAB
M  END
>  <Dataset>  (715) 
ChEMBL_Kinases

>  <Ligand_Instance>  (715) 
nan

>  <PDB_ID>  (715) 
nan

>  <Standardized_SMILES>  (715) 
Cc1nc2ccc(-c3cc(N)nc(N)c3)nc2n1CCOc1ccccn1

>  <Name>  (715) 
nan

>  <Pocket>  (715) 
nan

>  <ATP_Site>  (715) 
nan

>  <Peripheral>  (715) 
nan

>  <Num_H_Atoms_ProtBoundConf>  (715) 
nan

>  <Num_Resolved_Atoms>  (715) 
nan

>  <Num_Not_Resolved_Atoms>  (715) 
nan

$$$$
CHEMBL3670485
     RDKit          3D

  0  0  0  0  0  0  0  0  0  0999 V3000
M  V30 BEGIN CTAB
M  V30 COUNTS 48 51 0 0 0
M  V30 BEGIN ATOM
M  V30 1 N 1.730548 -5.649360 0.251317 0
M  V30 2 C 3.110902 -5.331217 0.123642 0
M  V30 3 O 3.910973 -6.194679 -0.324863 0
M  V30 4 C 3.600220 -4.013153 0.509153 0
M  V30 5 C 4.947653 -3.753506 0.366353 0
M  V30 6 C 5.386528 -2.493569 0.739937 0
M  V30 7 C 4.481132 -1.580149 1.224719 0
M  V30 8 C 3.147541 -1.819207 1.372460 0
M  V30 9 C 2.291766 -0.858950 1.865307 0
M  V30 10 N 2.730921 0.430380 2.252818 0
M  V30 11 C 1.892756 1.489385 2.776282 0
M  V30 12 C 0.849732 1.950200 1.827116 0
M  V30 13 C 1.386242 2.946666 1.000171 0
M  V30 14 C 0.621713 3.563705 0.017366 0
M  V30 15 C -0.685168 3.199976 -0.157650 0
M  V30 16 C -1.204278 2.218768 0.660830 0
M  V30 17 N -2.551646 1.794215 0.533107 0
M  V30 18 C -2.994587 0.737151 -0.307314 0
M  V30 19 O -2.050757 0.189183 -0.953528 0
M  V30 20 C -4.424727 0.372076 -0.368416 0
M  V30 21 C -5.444790 0.952942 0.320616 0
M  V30 22 C -6.724303 0.477307 0.136094 0
M  V30 23 C -6.970369 -0.568081 -0.730183 0
M  V30 24 Cl -8.656789 -1.058782 -0.854782 0
M  V30 25 N -5.957100 -1.132521 -1.403687 0
M  V30 26 C -4.717575 -0.683352 -1.235034 0
M  V30 27 C -0.449646 1.604116 1.637094 0
M  V30 28 N 1.010643 -1.239182 1.953383 0
M  V30 29 C 0.565648 -2.454458 1.596814 0
M  V30 30 N 1.409314 -3.396809 1.112505 0
M  V30 31 C 2.718999 -3.072762 0.999350 0
M  V30 32 H 0.762166 -5.416260 -0.060596 0
M  V30 33 H 1.679665 -6.444927 0.945739 0
M  V30 34 H 5.593789 -4.527611 -0.023314 0
M  V30 35 H 6.453923 -2.290093 0.626032 0
M  V30 36 H 4.924685 -0.638887 1.483547 0
M  V30 37 H 3.720923 0.743367 2.194368 0
M  V30 38 H 1.311857 1.020626 3.630121 0
M  V30 39 H 2.437124 2.318423 3.238717 0
M  V30 40 H 2.407001 3.353367 1.006786 0
M  V30 41 H 0.975875 4.333259 -0.647114 0
M  V30 42 H -1.347455 3.628930 -0.897201 0
M  V30 43 H -3.220012 2.344753 1.132126 0
M  V30 44 H -5.168266 1.755588 0.970008 0
M  V30 45 H -7.518869 0.970226 0.708031 0
M  V30 46 H -3.967501 -1.194950 -1.815277 0
M  V30 47 H -0.768373 0.835344 2.326264 0
M  V30 48 H -0.494004 -2.584698 1.735515 0
M  V30 END ATOM
M  V30 BEGIN BOND
M  V30 1 1 1 2
M  V30 2 2 2 3
M  V30 3 1 2 4
M  V30 4 2 4 5
M  V30 5 1 5 6
M  V30 6 2 6 7
M  V30 7 1 7 8
M  V30 8 2 8 9
M  V30 9 1 9 10
M  V30 10 1 10 11
M  V30 11 1 11 12
M  V30 12 2 12 13
M  V30 13 1 13 14
M  V30 14 2 14 15
M  V30 15 1 15 16
M  V30 16 1 16 17
M  V30 17 1 17 18
M  V30 18 2 18 19
M  V30 19 1 18 20
M  V30 20 2 20 21
M  V30 21 1 21 22
M  V30 22 2 22 23
M  V30 23 1 23 24
M  V30 24 1 23 25
M  V30 25 2 25 26
M  V30 26 2 16 27
M  V30 27 1 9 28
M  V30 28 2 28 29
M  V30 29 1 29 30
M  V30 30 2 30 31
M  V30 31 1 31 4
M  V30 32 1 31 8
M  V30 33 1 27 12
M  V30 34 1 26 20
M  V30 35 1 1 32
M  V30 36 1 1 33
M  V30 37 1 5 34
M  V30 38 1 6 35
M  V30 39 1 7 36
M  V30 40 1 10 37
M  V30 41 1 11 38
M  V30 42 1 11 39
M  V30 43 1 13 40
M  V30 44 1 14 41
M  V30 45 1 15 42
M  V30 46 1 17 43
M  V30 47 1 21 44
M  V30 48 1 22 45
M  V30 49 1 26 46
M  V30 50 1 27 47
M  V30 51 1 29 48
M  V30 END BOND
M  V30 END CTAB
M  END
>  <Dataset>  (716) 
ChEMBL_Kinases

>  <Ligand_Instance>  (716) 
nan

>  <PDB_ID>  (716) 
nan

>  <Standardized_SMILES>  (716) 
NC(=O)c1cccc2c(NCc3cccc(NC(=O)c4ccc(Cl)nc4)c3)ncnc12

>  <Name>  (716) 
nan

>  <Pocket>  (716) 
nan

>  <ATP_Site>  (716) 
nan

>  <Peripheral>  (716) 
nan

>  <Num_H_Atoms_ProtBoundConf>  (716) 
nan

>  <Num_Resolved_Atoms>  (716) 
nan

>  <Num_Not_Resolved_Atoms>  (716) 
nan

$$$$
CHEMBL3670487
     RDKit          3D

  0  0  0  0  0  0  0  0  0  0999 V3000
M  V30 BEGIN CTAB
M  V30 COUNTS 48 51 0 0 0
M  V30 BEGIN ATOM
M  V30 1 N 3.218393 -5.600397 1.940962 0
M  V30 2 C 4.355303 -5.109510 1.273934 0
M  V30 3 O 5.431707 -5.713467 1.426213 0
M  V30 4 C 4.314961 -3.918386 0.411384 0
M  V30 5 C 5.510736 -3.549988 -0.178441 0
M  V30 6 C 5.487220 -2.432861 -0.990911 0
M  V30 7 C 4.306915 -1.750304 -1.175507 0
M  V30 8 C 3.119631 -2.092511 -0.607204 0
M  V30 9 C 1.966411 -1.372171 -0.827175 0
M  V30 10 N 1.927853 -0.240764 -1.649407 0
M  V30 11 C 0.773145 0.582294 -1.942638 0
M  V30 12 C 0.254964 1.204094 -0.696414 0
M  V30 13 C 0.934847 2.399262 -0.438785 0
M  V30 14 C 0.630907 3.183357 0.669904 0
M  V30 15 C -0.356882 2.794796 1.546769 0
M  V30 16 C -1.011254 1.613012 1.269275 0
M  V30 17 N -2.067775 1.085461 2.100977 0
M  V30 18 C -3.288753 1.598065 1.627063 0
M  V30 19 O -3.144549 2.369940 0.618274 0
M  V30 20 C -4.609739 1.307351 2.195623 0
M  V30 21 C -5.698772 1.903339 1.595739 0
M  V30 22 C -6.960148 1.668646 2.084044 0
M  V30 23 C -7.146767 0.840032 3.171693 0
M  V30 24 C -6.038204 0.253330 3.756787 0
M  V30 25 Cl -6.146915 -0.815529 5.140127 0
M  V30 26 N -4.808836 0.502291 3.255012 0
M  V30 27 C -0.728187 0.822733 0.180777 0
M  V30 28 N 0.909433 -1.875975 -0.175703 0
M  V30 29 C 0.926324 -2.959862 0.614171 0
M  V30 30 N 2.056559 -3.649457 0.817778 0
M  V30 31 C 3.163278 -3.207280 0.198182 0
M  V30 32 H 2.300982 -5.904166 1.588009 0
M  V30 33 H 2.902413 -5.818101 2.910570 0
M  V30 34 H 6.428584 -4.096875 -0.022983 0
M  V30 35 H 6.430671 -2.150411 -1.450273 0
M  V30 36 H 4.406116 -0.903700 -1.822510 0
M  V30 37 H 2.769059 0.112581 -2.135570 0
M  V30 38 H 0.941038 1.314194 -2.738454 0
M  V30 39 H -0.025342 -0.142335 -2.297539 0
M  V30 40 H 1.739050 2.844919 -1.032871 0
M  V30 41 H 1.126258 4.110198 0.909470 0
M  V30 42 H -0.695604 3.300719 2.441040 0
M  V30 43 H -2.097198 0.439031 2.932050 0
M  V30 44 H -5.603454 2.568451 0.730900 0
M  V30 45 H -7.857261 2.090502 1.678214 0
M  V30 46 H -8.137160 0.635609 3.580941 0
M  V30 47 H -1.192470 -0.094548 -0.101857 0
M  V30 48 H 0.026536 -3.312820 1.113086 0
M  V30 END ATOM
M  V30 BEGIN BOND
M  V30 1 1 1 2
M  V30 2 2 2 3
M  V30 3 1 2 4
M  V30 4 2 4 5
M  V30 5 1 5 6
M  V30 6 2 6 7
M  V30 7 1 7 8
M  V30 8 2 8 9
M  V30 9 1 9 10
M  V30 10 1 10 11
M  V30 11 1 11 12
M  V30 12 2 12 13
M  V30 13 1 13 14
M  V30 14 2 14 15
M  V30 15 1 15 16
M  V30 16 1 16 17
M  V30 17 1 17 18
M  V30 18 2 18 19
M  V30 19 1 18 20
M  V30 20 2 20 21
M  V30 21 1 21 22
M  V30 22 2 22 23
M  V30 23 1 23 24
M  V30 24 1 24 25
M  V30 25 2 24 26
M  V30 26 2 16 27
M  V30 27 1 9 28
M  V30 28 2 28 29
M  V30 29 1 29 30
M  V30 30 2 30 31
M  V30 31 1 31 4
M  V30 32 1 31 8
M  V30 33 1 27 12
M  V30 34 1 26 20
M  V30 35 1 1 32
M  V30 36 1 1 33
M  V30 37 1 5 34
M  V30 38 1 6 35
M  V30 39 1 7 36
M  V30 40 1 10 37
M  V30 41 1 11 38
M  V30 42 1 11 39
M  V30 43 1 13 40
M  V30 44 1 14 41
M  V30 45 1 15 42
M  V30 46 1 17 43
M  V30 47 1 21 44
M  V30 48 1 22 45
M  V30 49 1 23 46
M  V30 50 1 27 47
M  V30 51 1 29 48
M  V30 END BOND
M  V30 END CTAB
M  END
>  <Dataset>  (717) 
ChEMBL_Kinases

>  <Ligand_Instance>  (717) 
nan

>  <PDB_ID>  (717) 
nan

>  <Standardized_SMILES>  (717) 
NC(=O)c1cccc2c(NCc3cccc(NC(=O)c4cccc(Cl)n4)c3)ncnc12

>  <Name>  (717) 
nan

>  <Pocket>  (717) 
nan

>  <ATP_Site>  (717) 
nan

>  <Peripheral>  (717) 
nan

>  <Num_H_Atoms_ProtBoundConf>  (717) 
nan

>  <Num_Resolved_Atoms>  (717) 
nan

>  <Num_Not_Resolved_Atoms>  (717) 
nan

$$$$
CHEMBL3670491
     RDKit          3D

  0  0  0  0  0  0  0  0  0  0999 V3000
M  V30 BEGIN CTAB
M  V30 COUNTS 58 60 0 0 0
M  V30 BEGIN ATOM
M  V30 1 N 0.889300 -3.784979 5.052865 0
M  V30 2 C 2.280620 -3.686421 4.836593 0
M  V30 3 O 2.844720 -4.234191 5.825317 0
M  V30 4 C 3.093715 -3.116608 3.773302 0
M  V30 5 C 4.448678 -3.219561 3.950161 0
M  V30 6 C 5.239723 -2.675175 2.930939 0
M  V30 7 C 4.640805 -2.084416 1.841114 0
M  V30 8 C 3.276933 -1.985723 1.671805 0
M  V30 9 C 2.730113 -1.387963 0.565155 0
M  V30 10 N 3.511723 -0.835549 -0.468407 0
M  V30 11 C 3.037424 -0.184649 -1.675000 0
M  V30 12 C 2.225752 1.012546 -1.454217 0
M  V30 13 C 2.798257 2.269700 -1.266421 0
M  V30 14 C 2.078769 3.427752 -1.072789 0
M  V30 15 C 0.678158 3.328913 -1.065422 0
M  V30 16 C 0.055826 2.083739 -1.250630 0
M  V30 17 O -1.293563 2.282502 -1.199194 0
M  V30 18 C -2.367724 1.439539 -1.302413 0
M  V30 19 C -2.490916 0.363111 -0.248990 0
M  V30 20 N -3.637919 -0.431787 -0.474997 0
M  V30 21 C -4.912628 0.113866 -0.312695 0
M  V30 22 C -5.299874 0.461041 1.102179 0
M  V30 23 O -5.277919 -0.661840 1.926842 0
M  V30 24 C -3.474454 -1.783486 -0.809916 0
M  V30 25 C -2.849007 -1.868427 -2.207680 0
M  V30 26 O -2.656886 -3.187533 -2.607364 0
M  V30 27 C 0.850997 0.979402 -1.437484 0
M  V30 28 N 1.402303 -1.336318 0.480449 0
M  V30 29 C 0.643225 -1.856399 1.453334 0
M  V30 30 N 1.181104 -2.450203 2.552759 0
M  V30 31 C 2.509281 -2.524922 2.680661 0
M  V30 32 H 0.077651 -4.397773 4.835608 0
M  V30 33 H 0.617962 -2.948990 5.623579 0
M  V30 34 H 4.938435 -3.672062 4.783331 0
M  V30 35 H 6.315740 -2.745406 3.049807 0
M  V30 36 H 5.343588 -1.699743 1.119942 0
M  V30 37 H 4.554931 -0.854344 -0.438562 0
M  V30 38 H 2.361825 -0.912160 -2.225982 0
M  V30 39 H 3.861697 -0.009344 -2.407434 0
M  V30 40 H 3.880709 2.288509 -1.280892 0
M  V30 41 H 2.637354 4.338528 -0.938209 0
M  V30 42 H 0.238137 4.306325 -0.905347 0
M  V30 43 H -3.296216 2.074994 -1.159805 0
M  V30 44 H -2.514074 1.010120 -2.329418 0
M  V30 45 H -2.446224 0.799000 0.781514 0
M  V30 46 H -1.607732 -0.290085 -0.313032 0
M  V30 47 H -5.042845 0.987339 -0.984416 0
M  V30 48 H -5.665665 -0.645369 -0.653084 0
M  V30 49 H -6.362277 0.799413 1.088212 0
M  V30 50 H -4.703723 1.243585 1.573078 0
M  V30 51 H -5.381250 -1.515254 1.410940 0
M  V30 52 H -4.452757 -2.285336 -0.888856 0
M  V30 53 H -2.833435 -2.388399 -0.140295 0
M  V30 54 H -1.850933 -1.359252 -2.227078 0
M  V30 55 H -3.500691 -1.380253 -2.962475 0
M  V30 56 H -3.426973 -3.494799 -3.169270 0
M  V30 57 H 0.292882 0.092436 -1.586142 0
M  V30 58 H -0.448045 -1.845491 1.441698 0
M  V30 END ATOM
M  V30 BEGIN BOND
M  V30 1 1 1 2
M  V30 2 2 2 3
M  V30 3 1 2 4
M  V30 4 2 4 5
M  V30 5 1 5 6
M  V30 6 2 6 7
M  V30 7 1 7 8
M  V30 8 2 8 9
M  V30 9 1 9 10
M  V30 10 1 10 11
M  V30 11 1 11 12
M  V30 12 2 12 13
M  V30 13 1 13 14
M  V30 14 2 14 15
M  V30 15 1 15 16
M  V30 16 1 16 17
M  V30 17 1 17 18
M  V30 18 1 18 19
M  V30 19 1 19 20
M  V30 20 1 20 21
M  V30 21 1 21 22
M  V30 22 1 22 23
M  V30 23 1 20 24
M  V30 24 1 24 25
M  V30 25 1 25 26
M  V30 26 2 16 27
M  V30 27 1 9 28
M  V30 28 2 28 29
M  V30 29 1 29 30
M  V30 30 2 30 31
M  V30 31 1 31 4
M  V30 32 1 31 8
M  V30 33 1 27 12
M  V30 34 1 1 32
M  V30 35 1 1 33
M  V30 36 1 5 34
M  V30 37 1 6 35
M  V30 38 1 7 36
M  V30 39 1 10 37
M  V30 40 1 11 38
M  V30 41 1 11 39
M  V30 42 1 13 40
M  V30 43 1 14 41
M  V30 44 1 15 42
M  V30 45 1 18 43
M  V30 46 1 18 44
M  V30 47 1 19 45
M  V30 48 1 19 46
M  V30 49 1 21 47
M  V30 50 1 21 48
M  V30 51 1 22 49
M  V30 52 1 22 50
M  V30 53 1 23 51
M  V30 54 1 24 52
M  V30 55 1 24 53
M  V30 56 1 25 54
M  V30 57 1 25 55
M  V30 58 1 26 56
M  V30 59 1 27 57
M  V30 60 1 29 58
M  V30 END BOND
M  V30 END CTAB
M  END
>  <Dataset>  (718) 
ChEMBL_Kinases

>  <Ligand_Instance>  (718) 
nan

>  <PDB_ID>  (718) 
nan

>  <Standardized_SMILES>  (718) 
NC(=O)c1cccc2c(NCc3cccc(OCCN(CCO)CCO)c3)ncnc12

>  <Name>  (718) 
nan

>  <Pocket>  (718) 
nan

>  <ATP_Site>  (718) 
nan

>  <Peripheral>  (718) 
nan

>  <Num_H_Atoms_ProtBoundConf>  (718) 
nan

>  <Num_Resolved_Atoms>  (718) 
nan

>  <Num_Not_Resolved_Atoms>  (718) 
nan

$$$$
CHEMBL3670493
     RDKit          3D

  0  0  0  0  0  0  0  0  0  0999 V3000
M  V30 BEGIN CTAB
M  V30 COUNTS 48 51 0 0 0
M  V30 BEGIN ATOM
M  V30 1 N 0.498497 -5.569185 1.048492 0
M  V30 2 C 1.872717 -5.501646 1.431246 0
M  V30 3 O 2.421155 -6.476480 1.984954 0
M  V30 4 C 2.640981 -4.287984 1.174585 0
M  V30 5 C 3.969335 -4.276960 1.566407 0
M  V30 6 C 4.667164 -3.121525 1.312040 0
M  V30 7 C 4.061936 -2.047915 0.701739 0
M  V30 8 C 2.754765 -2.052229 0.313547 0
M  V30 9 C 2.176824 -0.960656 -0.295787 0
M  V30 10 N 2.888059 0.227776 -0.563292 0
M  V30 11 C 2.381114 1.429119 -1.193549 0
M  V30 12 C 1.292496 2.015574 -0.362338 0
M  V30 13 C 1.852173 2.855976 0.607459 0
M  V30 14 C 1.053419 3.542906 1.518866 0
M  V30 15 C -0.323500 3.404540 1.480603 0
M  V30 16 C -0.837550 2.568911 0.512004 0
M  V30 17 N -2.254019 2.337290 0.363925 0
M  V30 18 C -2.617275 1.208502 1.184937 0
M  V30 19 O -1.621906 0.740200 1.795899 0
M  V30 20 C -4.010993 0.733791 1.237478 0
M  V30 21 C -5.104279 1.244429 0.569549 0
M  V30 22 C -6.331009 0.644010 0.762403 0
M  V30 23 N -6.478613 -0.410922 1.574775 0
M  V30 24 C -5.425611 -0.925284 2.236195 0
M  V30 25 Cl -5.681258 -2.315898 3.292665 0
M  V30 26 C -4.153146 -0.367713 2.088537 0
M  V30 27 C -0.063782 1.881054 -0.398445 0
M  V30 28 N 0.889817 -1.143309 -0.606543 0
M  V30 29 C 0.202181 -2.256724 -0.365950 0
M  V30 30 N 0.773634 -3.318950 0.229695 0
M  V30 31 C 2.058535 -3.201858 0.566069 0
M  V30 32 H -0.453192 -5.516232 1.426452 0
M  V30 33 H 0.138524 -5.722376 0.074587 0
M  V30 34 H 4.399901 -5.143365 2.041669 0
M  V30 35 H 5.713010 -3.109306 1.619119 0
M  V30 36 H 4.695209 -1.210673 0.555531 0
M  V30 37 H 3.889890 0.348448 -0.316377 0
M  V30 38 H 3.137907 2.160669 -1.474899 0
M  V30 39 H 1.908288 1.061691 -2.160103 0
M  V30 40 H 2.915819 3.076937 0.775842 0
M  V30 41 H 1.428257 4.200554 2.283744 0
M  V30 42 H -1.005201 3.909325 2.159517 0
M  V30 43 H -2.971932 2.836852 -0.206696 0
M  V30 44 H -4.874959 2.097333 -0.061309 0
M  V30 45 H -7.141387 1.100860 0.204393 0
M  V30 46 H -3.362918 -0.841426 2.655341 0
M  V30 47 H -0.390337 1.230346 -1.170615 0
M  V30 48 H -0.834714 -2.245693 -0.679637 0
M  V30 END ATOM
M  V30 BEGIN BOND
M  V30 1 1 1 2
M  V30 2 2 2 3
M  V30 3 1 2 4
M  V30 4 2 4 5
M  V30 5 1 5 6
M  V30 6 2 6 7
M  V30 7 1 7 8
M  V30 8 2 8 9
M  V30 9 1 9 10
M  V30 10 1 10 11
M  V30 11 1 11 12
M  V30 12 2 12 13
M  V30 13 1 13 14
M  V30 14 2 14 15
M  V30 15 1 15 16
M  V30 16 1 16 17
M  V30 17 1 17 18
M  V30 18 2 18 19
M  V30 19 1 18 20
M  V30 20 2 20 21
M  V30 21 1 21 22
M  V30 22 2 22 23
M  V30 23 1 23 24
M  V30 24 1 24 25
M  V30 25 2 24 26
M  V30 26 2 16 27
M  V30 27 1 9 28
M  V30 28 2 28 29
M  V30 29 1 29 30
M  V30 30 2 30 31
M  V30 31 1 31 4
M  V30 32 1 31 8
M  V30 33 1 27 12
M  V30 34 1 26 20
M  V30 35 1 1 32
M  V30 36 1 1 33
M  V30 37 1 5 34
M  V30 38 1 6 35
M  V30 39 1 7 36
M  V30 40 1 10 37
M  V30 41 1 11 38
M  V30 42 1 11 39
M  V30 43 1 13 40
M  V30 44 1 14 41
M  V30 45 1 15 42
M  V30 46 1 17 43
M  V30 47 1 21 44
M  V30 48 1 22 45
M  V30 49 1 26 46
M  V30 50 1 27 47
M  V30 51 1 29 48
M  V30 END BOND
M  V30 END CTAB
M  END
>  <Dataset>  (719) 
ChEMBL_Kinases

>  <Ligand_Instance>  (719) 
nan

>  <PDB_ID>  (719) 
nan

>  <Standardized_SMILES>  (719) 
NC(=O)c1cccc2c(NCc3cccc(NC(=O)c4ccnc(Cl)c4)c3)ncnc12

>  <Name>  (719) 
nan

>  <Pocket>  (719) 
nan

>  <ATP_Site>  (719) 
nan

>  <Peripheral>  (719) 
nan

>  <Num_H_Atoms_ProtBoundConf>  (719) 
nan

>  <Num_Resolved_Atoms>  (719) 
nan

>  <Num_Not_Resolved_Atoms>  (719) 
nan

$$$$
CHEMBL3670496
     RDKit          3D

  0  0  0  0  0  0  0  0  0  0999 V3000
M  V30 BEGIN CTAB
M  V30 COUNTS 52 55 0 0 0
M  V30 BEGIN ATOM
M  V30 1 N 4.670308 -0.825231 -0.999738 0
M  V30 2 C 3.382778 -1.309187 -1.332894 0
M  V30 3 O 3.158569 -2.148271 -2.254581 0
M  V30 4 C 2.232720 -0.826776 -0.583854 0
M  V30 5 C 2.374881 0.086885 0.437526 0
M  V30 6 C 1.371979 0.619434 1.218506 0
M  V30 7 O 1.432038 1.506667 2.222804 0
M  V30 8 C 2.422913 2.209536 2.851396 0
M  V30 9 C 3.225582 3.138932 2.058045 0
M  V30 10 C 4.430403 2.998936 1.412289 0
M  V30 11 C 5.006592 4.027409 0.698610 0
M  V30 12 C 4.405259 5.263037 0.590506 0
M  V30 13 C 3.206820 5.455651 1.213575 0
M  V30 14 C 2.649648 4.411485 1.921823 0
M  V30 15 C 0.095131 0.149380 0.899170 0
M  V30 16 C -0.117113 -0.759917 -0.105134 0
M  V30 17 C -1.383585 -1.214232 -0.408211 0
M  V30 18 N -2.539093 -0.790638 0.269051 0
M  V30 19 C -3.896964 -1.222410 0.010246 0
M  V30 20 C -4.118215 -2.665837 0.232649 0
M  V30 21 C -4.079729 -3.770561 -0.590484 0
M  V30 22 C -4.321026 -5.019379 -0.095688 0
M  V30 23 C -4.614045 -5.266666 1.227791 0
M  V30 24 C -4.858764 -6.669770 1.652049 0
M  V30 25 F -4.479454 -6.787666 2.963711 0
M  V30 26 F -6.157369 -7.038381 1.402072 0
M  V30 27 F -3.997230 -7.504051 0.928896 0
M  V30 28 C -4.658244 -4.175987 2.069518 0
M  V30 29 C -4.414048 -2.885457 1.584882 0
M  V30 30 N -1.479025 -2.101036 -1.406719 0
M  V30 31 C -0.453920 -2.577614 -2.127636 0
M  V30 32 N 0.782300 -2.136229 -1.834182 0
M  V30 33 C 0.944443 -1.244021 -0.840904 0
M  V30 34 H 5.260004 -1.037494 -0.162919 0
M  V30 35 H 5.341998 -0.970677 -0.198463 0
M  V30 36 H 3.367602 0.421810 0.655811 0
M  V30 37 H 1.938100 2.765635 3.711249 0
M  V30 38 H 3.152791 1.536757 3.390623 0
M  V30 39 H 4.862595 2.015519 1.534434 0
M  V30 40 H 5.958894 3.789066 0.235024 0
M  V30 41 H 4.972571 5.969808 0.000788 0
M  V30 42 H 2.757767 6.412137 1.120551 0
M  V30 43 H 1.684540 4.680414 2.381583 0
M  V30 44 H -0.737426 0.508190 1.452432 0
M  V30 45 H -2.541721 -0.104088 1.051317 0
M  V30 46 H -4.665891 -0.603821 0.480233 0
M  V30 47 H -4.044558 -1.070564 -1.104507 0
M  V30 48 H -3.851676 -3.485405 -1.604735 0
M  V30 49 H -4.265562 -5.822392 -0.830004 0
M  V30 50 H -4.890053 -4.394977 3.102463 0
M  V30 51 H -4.490984 -2.140785 2.393002 0
M  V30 52 H -0.669191 -3.293710 -2.910284 0
M  V30 END ATOM
M  V30 BEGIN BOND
M  V30 1 1 1 2
M  V30 2 2 2 3
M  V30 3 1 2 4
M  V30 4 2 4 5
M  V30 5 1 5 6
M  V30 6 1 6 7
M  V30 7 1 7 8
M  V30 8 1 8 9
M  V30 9 2 9 10
M  V30 10 1 10 11
M  V30 11 2 11 12
M  V30 12 1 12 13
M  V30 13 2 13 14
M  V30 14 2 6 15
M  V30 15 1 15 16
M  V30 16 2 16 17
M  V30 17 1 17 18
M  V30 18 1 18 19
M  V30 19 1 19 20
M  V30 20 2 20 21
M  V30 21 1 21 22
M  V30 22 2 22 23
M  V30 23 1 23 24
M  V30 24 1 24 25
M  V30 25 1 24 26
M  V30 26 1 24 27
M  V30 27 1 23 28
M  V30 28 2 28 29
M  V30 29 1 17 30
M  V30 30 2 30 31
M  V30 31 1 31 32
M  V30 32 2 32 33
M  V30 33 1 33 4
M  V30 34 1 14 9
M  V30 35 1 33 16
M  V30 36 1 29 20
M  V30 37 1 1 34
M  V30 38 1 1 35
M  V30 39 1 5 36
M  V30 40 1 8 37
M  V30 41 1 8 38
M  V30 42 1 10 39
M  V30 43 1 11 40
M  V30 44 1 12 41
M  V30 45 1 13 42
M  V30 46 1 14 43
M  V30 47 1 15 44
M  V30 48 1 18 45
M  V30 49 1 19 46
M  V30 50 1 19 47
M  V30 51 1 21 48
M  V30 52 1 22 49
M  V30 53 1 28 50
M  V30 54 1 29 51
M  V30 55 1 31 52
M  V30 END BOND
M  V30 END CTAB
M  END
>  <Dataset>  (720) 
ChEMBL_Kinases

>  <Ligand_Instance>  (720) 
nan

>  <PDB_ID>  (720) 
nan

>  <Standardized_SMILES>  (720) 
NC(=O)c1cc(OCc2ccccc2)cc2c(NCc3ccc(C(F)(F)F)cc3)ncnc12

>  <Name>  (720) 
nan

>  <Pocket>  (720) 
nan

>  <ATP_Site>  (720) 
nan

>  <Peripheral>  (720) 
nan

>  <Num_H_Atoms_ProtBoundConf>  (720) 
nan

>  <Num_Resolved_Atoms>  (720) 
nan

>  <Num_Not_Resolved_Atoms>  (720) 
nan

$$$$
CHEMBL3670497
     RDKit          3D

  0  0  0  0  0  0  0  0  0  0999 V3000
M  V30 BEGIN CTAB
M  V30 COUNTS 56 59 0 0 0
M  V30 BEGIN ATOM
M  V30 1 C 7.088787 -1.299572 5.254325 0
M  V30 2 N 7.142897 -1.373919 3.811770 0
M  V30 3 C 8.406788 -1.857009 3.290353 0
M  V30 4 C 6.104361 -1.027385 2.910215 0
M  V30 5 C 4.867365 -0.558786 3.288545 0
M  V30 6 C 3.889369 -0.236065 2.369186 0
M  V30 7 C 4.099028 -0.366156 1.009691 0
M  V30 8 C 3.131370 -0.049762 -0.032557 0
M  V30 9 O 3.477997 -0.240520 -1.230450 0
M  V30 10 N 1.841339 0.451676 0.198404 0
M  V30 11 C 0.814248 0.797337 -0.714393 0
M  V30 12 C 0.870298 0.716270 -2.076264 0
M  V30 13 C -0.142146 1.057727 -2.937584 0
M  V30 14 C -1.325195 1.525045 -2.395855 0
M  V30 15 C -1.441104 1.628158 -1.029130 0
M  V30 16 C -2.670898 2.102642 -0.335167 0
M  V30 17 N -3.547739 1.034730 0.088100 0
M  V30 18 C -4.178727 0.085310 -0.750705 0
M  V30 19 N -4.024563 0.072731 -2.083173 0
M  V30 20 C -4.602046 -0.806915 -2.915123 0
M  V30 21 N -5.410696 -1.775966 -2.427196 0
M  V30 22 C -5.620868 -1.835110 -1.089547 0
M  V30 23 C -6.438868 -2.811515 -0.584978 0
M  V30 24 C -7.073606 -3.779743 -1.485112 0
M  V30 25 N -6.851130 -3.726642 -2.887010 0
M  V30 26 O -7.826678 -4.681673 -1.072835 0
M  V30 27 C -6.696755 -2.928352 0.763312 0
M  V30 28 C -6.090943 -2.012799 1.589128 0
M  V30 29 C -5.265432 -1.031872 1.053285 0
M  V30 30 C -5.005762 -0.909797 -0.277881 0
M  V30 31 C -0.379908 1.266902 -0.210749 0
M  V30 32 C 5.351703 -0.838671 0.681734 0
M  V30 33 N 6.297927 -1.150350 1.586629 0
M  V30 34 H 6.030032 -1.190628 5.561893 0
M  V30 35 H 7.649745 -0.433833 5.655284 0
M  V30 36 H 7.435627 -2.235316 5.740544 0
M  V30 37 H 8.932580 -1.073788 2.691081 0
M  V30 38 H 8.134573 -2.642363 2.524017 0
M  V30 39 H 9.049223 -2.344657 4.023607 0
M  V30 40 H 4.633400 -0.432041 4.318818 0
M  V30 41 H 2.940709 0.125142 2.713418 0
M  V30 42 H 1.665543 0.568866 1.220145 0
M  V30 43 H 1.751587 0.364062 -2.553454 0
M  V30 44 H -0.057594 0.978849 -4.010971 0
M  V30 45 H -2.127803 1.807167 -3.037127 0
M  V30 46 H -3.220674 2.843642 -0.965871 0
M  V30 47 H -2.356076 2.678473 0.555415 0
M  V30 48 H -3.710203 0.987245 1.115613 0
M  V30 49 H -4.443112 -0.771179 -3.984154 0
M  V30 50 H -7.176078 -3.457438 -3.829038 0
M  V30 51 H -5.907060 -4.174097 -3.048255 0
M  V30 52 H -7.351183 -3.721771 1.091539 0
M  V30 53 H -6.302446 -2.115168 2.653057 0
M  V30 54 H -4.861333 -0.387225 1.811651 0
M  V30 55 H -0.493840 1.357797 0.882504 0
M  V30 56 H 5.617476 -0.977553 -0.365837 0
M  V30 END ATOM
M  V30 BEGIN BOND
M  V30 1 1 1 2
M  V30 2 1 2 3
M  V30 3 1 2 4
M  V30 4 2 4 5
M  V30 5 1 5 6
M  V30 6 2 6 7
M  V30 7 1 7 8
M  V30 8 2 8 9
M  V30 9 1 8 10
M  V30 10 1 10 11
M  V30 11 2 11 12
M  V30 12 1 12 13
M  V30 13 2 13 14
M  V30 14 1 14 15
M  V30 15 1 15 16
M  V30 16 1 16 17
M  V30 17 1 17 18
M  V30 18 2 18 19
M  V30 19 1 19 20
M  V30 20 2 20 21
M  V30 21 1 21 22
M  V30 22 2 22 23
M  V30 23 1 23 24
M  V30 24 1 24 25
M  V30 25 2 24 26
M  V30 26 1 23 27
M  V30 27 2 27 28
M  V30 28 1 28 29
M  V30 29 2 29 30
M  V30 30 2 15 31
M  V30 31 1 7 32
M  V30 32 2 32 33
M  V30 33 1 33 4
M  V30 34 1 31 11
M  V30 35 1 30 18
M  V30 36 1 30 22
M  V30 37 1 1 34
M  V30 38 1 1 35
M  V30 39 1 1 36
M  V30 40 1 3 37
M  V30 41 1 3 38
M  V30 42 1 3 39
M  V30 43 1 5 40
M  V30 44 1 6 41
M  V30 45 1 10 42
M  V30 46 1 12 43
M  V30 47 1 13 44
M  V30 48 1 14 45
M  V30 49 1 16 46
M  V30 50 1 16 47
M  V30 51 1 17 48
M  V30 52 1 20 49
M  V30 53 1 25 50
M  V30 54 1 25 51
M  V30 55 1 27 52
M  V30 56 1 28 53
M  V30 57 1 29 54
M  V30 58 1 31 55
M  V30 59 1 32 56
M  V30 END BOND
M  V30 END CTAB
M  END
>  <Dataset>  (721) 
ChEMBL_Kinases

>  <Ligand_Instance>  (721) 
nan

>  <PDB_ID>  (721) 
nan

>  <Standardized_SMILES>  (721) 
CN(C)c1ccc(C(=O)Nc2cccc(CNc3ncnc4c(C(N)=O)cccc34)c2)cn1

>  <Name>  (721) 
nan

>  <Pocket>  (721) 
nan

>  <ATP_Site>  (721) 
nan

>  <Peripheral>  (721) 
nan

>  <Num_H_Atoms_ProtBoundConf>  (721) 
nan

>  <Num_Resolved_Atoms>  (721) 
nan

>  <Num_Not_Resolved_Atoms>  (721) 
nan

$$$$
CHEMBL5077927
     RDKit          3D

  0  0  0  0  0  0  0  0  0  0999 V3000
M  V30 BEGIN CTAB
M  V30 COUNTS 36 38 0 0 0
M  V30 BEGIN ATOM
M  V30 1 C -0.220546 -3.960619 4.345516 0
M  V30 2 C 0.138757 -3.275185 3.078353 0
M  V30 3 N 0.803189 -3.892888 2.083931 0
M  V30 4 C 0.979138 -3.009978 1.071902 0
M  V30 5 C 1.554481 -2.996162 -0.181683 0
M  V30 6 C 1.511432 -1.832559 -0.921044 0
M  V30 7 C 0.925936 -0.658750 -0.495119 0
M  V30 8 C 0.896389 0.558694 -1.302032 0
M  V30 9 C 1.444855 0.663977 -2.562936 0
M  V30 10 C 1.390581 1.833526 -3.282040 0
M  V30 11 N 1.975186 1.881852 -4.580309 0
M  V30 12 N 0.771949 2.896508 -2.704968 0
M  V30 13 C 0.223911 2.836709 -1.477525 0
M  V30 14 N -0.383543 4.044069 -1.027857 0
M  V30 15 C 0.278985 1.665153 -0.758713 0
M  V30 16 N 0.377789 -0.723038 0.735780 0
M  V30 17 C 0.396731 -1.831868 1.488072 0
M  V30 18 N -0.124144 -1.998528 2.733316 0
M  V30 19 C -0.827881 -1.054735 3.579373 0
M  V30 20 C -2.335794 -1.123584 3.310394 0
M  V30 21 F -2.564442 -0.813797 1.989874 0
M  V30 22 F -2.969911 -0.188131 4.073983 0
M  V30 23 H -1.166835 -3.567158 4.795071 0
M  V30 24 H 0.632036 -3.850541 5.053187 0
M  V30 25 H -0.434943 -5.047920 4.151631 0
M  V30 26 H 2.017311 -3.909808 -0.528549 0
M  V30 27 H 1.972932 -1.884883 -1.881243 0
M  V30 28 H 1.922977 -0.179412 -2.993327 0
M  V30 29 H 1.125503 1.911026 -5.218232 0
M  V30 30 H 3.002704 1.886897 -4.833134 0
M  V30 31 H -1.330912 4.359708 -0.700237 0
M  V30 32 H 0.218814 4.913065 -0.981146 0
M  V30 33 H -0.179997 1.680532 0.222473 0
M  V30 34 H -0.597629 -1.294120 4.621831 0
M  V30 35 H -0.499030 -0.011543 3.417196 0
M  V30 36 H -2.712310 -2.153379 3.473196 0
M  V30 END ATOM
M  V30 BEGIN BOND
M  V30 1 1 1 2
M  V30 2 2 2 3
M  V30 3 1 3 4
M  V30 4 2 4 5
M  V30 5 1 5 6
M  V30 6 2 6 7
M  V30 7 1 7 8
M  V30 8 2 8 9
M  V30 9 1 9 10
M  V30 10 1 10 11
M  V30 11 2 10 12
M  V30 12 1 12 13
M  V30 13 1 13 14
M  V30 14 2 13 15
M  V30 15 1 7 16
M  V30 16 2 16 17
M  V30 17 1 17 18
M  V30 18 1 18 19
M  V30 19 1 19 20
M  V30 20 1 20 21
M  V30 21 1 20 22
M  V30 22 1 18 2
M  V30 23 1 17 4
M  V30 24 1 15 8
M  V30 25 1 1 23
M  V30 26 1 1 24
M  V30 27 1 1 25
M  V30 28 1 5 26
M  V30 29 1 6 27
M  V30 30 1 9 28
M  V30 31 1 11 29
M  V30 32 1 11 30
M  V30 33 1 14 31
M  V30 34 1 14 32
M  V30 35 1 15 33
M  V30 36 1 19 34
M  V30 37 1 19 35
M  V30 38 1 20 36
M  V30 END BOND
M  V30 END CTAB
M  END
>  <Dataset>  (722) 
ChEMBL_Kinases

>  <Ligand_Instance>  (722) 
nan

>  <PDB_ID>  (722) 
nan

>  <Standardized_SMILES>  (722) 
Cc1nc2ccc(-c3cc(N)nc(N)c3)nc2n1CC(F)F

>  <Name>  (722) 
nan

>  <Pocket>  (722) 
nan

>  <ATP_Site>  (722) 
nan

>  <Peripheral>  (722) 
nan

>  <Num_H_Atoms_ProtBoundConf>  (722) 
nan

>  <Num_Resolved_Atoms>  (722) 
nan

>  <Num_Not_Resolved_Atoms>  (722) 
nan

$$$$
CHEMBL3670476
     RDKit          3D

  0  0  0  0  0  0  0  0  0  0999 V3000
M  V30 BEGIN CTAB
M  V30 COUNTS 53 56 0 0 0
M  V30 BEGIN ATOM
M  V30 1 C 4.765284 0.120757 5.012816 0
M  V30 2 O 3.495988 0.325463 4.452134 0
M  V30 3 C 3.312798 0.941337 3.217692 0
M  V30 4 C 4.453191 1.345965 2.563265 0
M  V30 5 C 4.271733 1.955313 1.341864 0
M  V30 6 C 5.454013 2.415753 0.583210 0
M  V30 7 N 6.756051 2.227475 1.116997 0
M  V30 8 O 5.547055 2.986832 -0.529688 0
M  V30 9 C 3.019638 2.150639 0.802044 0
M  V30 10 N 2.936752 2.753386 -0.393936 0
M  V30 11 C 1.712654 2.936071 -0.905223 0
M  V30 12 N 0.614903 2.533402 -0.249335 0
M  V30 13 C 0.606639 1.925290 0.945879 0
M  V30 14 N -0.574574 1.511029 1.618777 0
M  V30 15 C -1.913134 1.666389 1.144937 0
M  V30 16 C -2.207446 0.965297 -0.123294 0
M  V30 17 C -2.125842 1.550542 -1.367500 0
M  V30 18 C -2.406837 0.824896 -2.502690 0
M  V30 19 C -2.773636 -0.496328 -2.406773 0
M  V30 20 C -2.880842 -1.161037 -1.203433 0
M  V30 21 N -3.261962 -2.511293 -1.195695 0
M  V30 22 C -3.449725 -3.426193 -0.141555 0
M  V30 23 O -3.250449 -2.995243 1.011744 0
M  V30 24 C -3.853580 -4.814835 -0.311185 0
M  V30 25 C -4.112309 -5.443578 -1.509363 0
M  V30 26 C -4.491759 -6.761990 -1.614493 0
M  V30 27 C -4.633373 -7.535217 -0.481468 0
M  V30 28 F -5.005693 -8.825001 -0.601648 0
M  V30 29 C -4.384836 -6.948563 0.741760 0
M  V30 30 C -4.007292 -5.624211 0.793941 0
M  V30 31 C -2.586750 -0.377878 -0.118432 0
M  V30 32 C 1.877303 1.749338 1.449684 0
M  V30 33 C 2.075694 1.144692 2.663927 0
M  V30 34 H 4.693646 -0.091287 6.092294 0
M  V30 35 H 5.275993 -0.649224 4.415707 0
M  V30 36 H 5.340961 1.088789 4.939525 0
M  V30 37 H 5.468425 1.234306 2.908993 0
M  V30 38 H 7.198346 1.275149 1.003170 0
M  V30 39 H 7.419801 1.447919 1.161922 0
M  V30 40 H 1.479841 3.401365 -1.849390 0
M  V30 41 H -0.489025 1.046955 2.544658 0
M  V30 42 H -2.130205 2.766477 0.969371 0
M  V30 43 H -2.623911 1.387563 1.942610 0
M  V30 44 H -1.848543 2.587930 -1.471015 0
M  V30 45 H -2.341910 1.284905 -3.473875 0
M  V30 46 H -2.984655 -1.020534 -3.346657 0
M  V30 47 H -3.454841 -2.970249 -2.135917 0
M  V30 48 H -4.015681 -4.883673 -2.416654 0
M  V30 49 H -4.680076 -7.193203 -2.596375 0
M  V30 50 H -4.494846 -7.551809 1.632277 0
M  V30 51 H -3.832949 -5.247596 1.798168 0
M  V30 52 H -2.645171 -0.817937 0.865706 0
M  V30 53 H 1.271208 0.781676 3.278125 0
M  V30 END ATOM
M  V30 BEGIN BOND
M  V30 1 1 1 2
M  V30 2 1 2 3
M  V30 3 2 3 4
M  V30 4 1 4 5
M  V30 5 1 5 6
M  V30 6 1 6 7
M  V30 7 2 6 8
M  V30 8 2 5 9
M  V30 9 1 9 10
M  V30 10 2 10 11
M  V30 11 1 11 12
M  V30 12 2 12 13
M  V30 13 1 13 14
M  V30 14 1 14 15
M  V30 15 1 15 16
M  V30 16 2 16 17
M  V30 17 1 17 18
M  V30 18 2 18 19
M  V30 19 1 19 20
M  V30 20 1 20 21
M  V30 21 1 21 22
M  V30 22 2 22 23
M  V30 23 1 22 24
M  V30 24 2 24 25
M  V30 25 1 25 26
M  V30 26 2 26 27
M  V30 27 1 27 28
M  V30 28 1 27 29
M  V30 29 2 29 30
M  V30 30 2 20 31
M  V30 31 1 13 32
M  V30 32 2 32 33
M  V30 33 1 33 3
M  V30 34 1 32 9
M  V30 35 1 31 16
M  V30 36 1 30 24
M  V30 37 1 1 34
M  V30 38 1 1 35
M  V30 39 1 1 36
M  V30 40 1 4 37
M  V30 41 1 7 38
M  V30 42 1 7 39
M  V30 43 1 11 40
M  V30 44 1 14 41
M  V30 45 1 15 42
M  V30 46 1 15 43
M  V30 47 1 17 44
M  V30 48 1 18 45
M  V30 49 1 19 46
M  V30 50 1 21 47
M  V30 51 1 25 48
M  V30 52 1 26 49
M  V30 53 1 29 50
M  V30 54 1 30 51
M  V30 55 1 31 52
M  V30 56 1 33 53
M  V30 END BOND
M  V30 END CTAB
M  END
>  <Dataset>  (723) 
ChEMBL_Kinases

>  <Ligand_Instance>  (723) 
nan

>  <PDB_ID>  (723) 
nan

>  <Standardized_SMILES>  (723) 
COc1cc(C(N)=O)c2ncnc(NCc3cccc(NC(=O)c4ccc(F)cc4)c3)c2c1

>  <Name>  (723) 
nan

>  <Pocket>  (723) 
nan

>  <ATP_Site>  (723) 
nan

>  <Peripheral>  (723) 
nan

>  <Num_H_Atoms_ProtBoundConf>  (723) 
nan

>  <Num_Resolved_Atoms>  (723) 
nan

>  <Num_Not_Resolved_Atoms>  (723) 
nan

$$$$
CHEMBL3719135
     RDKit          3D

  0  0  0  0  0  0  0  0  0  0999 V3000
M  V30 BEGIN CTAB
M  V30 COUNTS 54 58 0 0 0
M  V30 BEGIN ATOM
M  V30 1 C -0.015445 -0.961950 4.133766 0
M  V30 2 C 0.421806 -1.740618 2.892446 0
M  V30 3 C 1.725181 -2.459353 3.136480 0
M  V30 4 N 0.501679 -0.856227 1.742593 0
M  V30 5 N 1.113095 0.324313 1.750681 0
M  V30 6 C 1.021266 0.915722 0.536625 0
M  V30 7 C 1.530422 2.200439 0.071504 0
M  V30 8 C 1.327016 2.627038 -1.226627 0
M  V30 9 N 1.828261 3.836872 -1.593364 0
M  V30 10 C 2.505202 4.592348 -0.703217 0
M  V30 11 N 3.028547 5.857552 -1.087389 0
M  V30 12 C 2.740763 4.218334 0.610703 0
M  V30 13 O 3.447829 5.037819 1.492663 0
M  V30 14 C 2.751882 5.997344 2.285614 0
M  V30 15 F 3.666662 6.670528 3.063333 0
M  V30 16 F 1.828820 5.414052 3.112269 0
M  V30 17 F 2.086489 6.843227 1.420406 0
M  V30 18 C 2.223389 2.972613 0.984502 0
M  V30 19 C 0.302415 0.008962 -0.231469 0
M  V30 20 C -0.021817 -1.101426 0.528120 0
M  V30 21 C -0.782309 -2.271347 0.049693 0 CFG=1
M  V30 22 C -1.996527 -1.862295 -0.765829 0 CFG=2
M  V30 23 C -3.167055 -2.808851 -0.640197 0
M  V30 24 N -2.659817 -4.030088 -1.055146 0
M  V30 25 C -3.447625 -5.178663 -1.057116 0
M  V30 26 C -2.797455 -6.457177 -1.530187 0
M  V30 27 O -3.622836 -7.124250 -0.617238 0
M  V30 28 C -3.442173 -5.997416 0.217887 0
M  V30 29 C -1.430907 -3.995332 -1.693395 0
M  V30 30 C -0.867866 -2.630409 -1.367108 0 CFG=2
M  V30 31 H 0.498667 0.028914 4.169422 0
M  V30 32 H -1.107944 -0.761237 4.094855 0
M  V30 33 H 0.174839 -1.597310 5.002010 0
M  V30 34 H -0.347911 -2.525226 2.736493 0
M  V30 35 H 1.669913 -3.544517 2.913847 0
M  V30 36 H 1.945796 -2.375472 4.229270 0
M  V30 37 H 2.554969 -2.055550 2.518834 0
M  V30 38 H 0.773763 1.987887 -1.921622 0
M  V30 39 H 4.031611 6.075943 -0.852388 0
M  V30 40 H 2.776165 6.746482 -1.562248 0
M  V30 41 H 2.398553 2.655648 2.023241 0
M  V30 42 H 0.010830 0.111856 -1.286480 0
M  V30 43 H -0.926359 -3.045909 0.832870 0
M  V30 44 H -2.171547 -0.807893 -1.027041 0
M  V30 45 H -3.963712 -2.447158 -1.329678 0
M  V30 46 H -3.558151 -2.823654 0.398061 0
M  V30 47 H -4.468556 -5.068537 -1.425461 0
M  V30 48 H -3.059273 -6.627932 -2.590977 0
M  V30 49 H -1.749501 -6.591054 -1.256594 0
M  V30 50 H -4.318318 -5.856966 0.880346 0
M  V30 51 H -2.455923 -6.102411 0.714885 0
M  V30 52 H -0.757968 -4.812982 -1.360109 0
M  V30 53 H -1.577068 -4.032798 -2.812451 0
M  V30 54 H -0.280805 -2.095339 -2.141387 0
M  V30 END ATOM
M  V30 BEGIN BOND
M  V30 1 1 1 2
M  V30 2 1 2 3
M  V30 3 1 2 4
M  V30 4 1 4 5
M  V30 5 2 5 6
M  V30 6 1 6 7
M  V30 7 2 7 8
M  V30 8 1 8 9
M  V30 9 2 9 10
M  V30 10 1 10 11
M  V30 11 1 10 12
M  V30 12 1 12 13
M  V30 13 1 13 14
M  V30 14 1 14 15
M  V30 15 1 14 16
M  V30 16 1 14 17
M  V30 17 2 12 18
M  V30 18 1 6 19
M  V30 19 2 19 20
M  V30 20 1 20 21
M  V30 21 1 21 22
M  V30 22 1 22 23
M  V30 23 1 23 24
M  V30 24 1 24 25
M  V30 25 1 25 26
M  V30 26 1 26 27
M  V30 27 1 27 28
M  V30 28 1 24 29
M  V30 29 1 29 30
M  V30 30 1 20 4
M  V30 31 1 30 21
M  V30 32 1 18 7
M  V30 33 1 30 22
M  V30 34 1 28 25
M  V30 35 1 1 31
M  V30 36 1 1 32
M  V30 37 1 1 33
M  V30 38 1 2 34
M  V30 39 1 3 35
M  V30 40 1 3 36
M  V30 41 1 3 37
M  V30 42 1 8 38
M  V30 43 1 11 39
M  V30 44 1 11 40
M  V30 45 1 18 41
M  V30 46 1 19 42
M  V30 47 1 21 43 CFG=1
M  V30 48 1 22 44 CFG=3
M  V30 49 1 23 45
M  V30 50 1 23 46
M  V30 51 1 25 47
M  V30 52 1 26 48
M  V30 53 1 26 49
M  V30 54 1 28 50
M  V30 55 1 28 51
M  V30 56 1 29 52
M  V30 57 1 29 53
M  V30 58 1 30 54 CFG=3
M  V30 END BOND
M  V30 END CTAB
M  END
>  <Dataset>  (724) 
ChEMBL_Kinases

>  <Ligand_Instance>  (724) 
nan

>  <PDB_ID>  (724) 
nan

>  <Standardized_SMILES>  (724) 
CC(C)n1nc(-c2cnc(N)c(OC(F)(F)F)c2)cc1[C@H]1[C@@H]2CN(C3COC3)C[C@@H]21

>  <Name>  (724) 
nan

>  <Pocket>  (724) 
nan

>  <ATP_Site>  (724) 
nan

>  <Peripheral>  (724) 
nan

>  <Num_H_Atoms_ProtBoundConf>  (724) 
nan

>  <Num_Resolved_Atoms>  (724) 
nan

>  <Num_Not_Resolved_Atoms>  (724) 
nan

$$$$
CHEMBL3673985
     RDKit          3D

  0  0  0  0  0  0  0  0  0  0999 V3000
M  V30 BEGIN CTAB
M  V30 COUNTS 48 51 0 0 0
M  V30 BEGIN ATOM
M  V30 1 C -0.480911 -2.707148 3.198334 0
M  V30 2 O -0.114010 -2.190740 1.958884 0
M  V30 3 C 1.083833 -2.358186 1.321880 0
M  V30 4 C 2.118704 -3.094930 1.860581 0
M  V30 5 C 3.329851 -3.268066 1.223641 0
M  V30 6 C 3.524568 -2.680642 -0.010306 0
M  V30 7 C 2.499022 -1.953253 -0.539052 0
M  V30 8 C 1.251981 -1.750106 0.071045 0
M  V30 9 C 0.160545 -0.964112 -0.500206 0
M  V30 10 C -0.200464 0.203164 0.375597 0
M  V30 11 C -1.363509 0.649618 0.810353 0
M  V30 12 C -1.578526 1.831937 1.682579 0
M  V30 13 C -0.365490 2.700142 1.778611 0
M  V30 14 C -0.541061 3.666982 2.927925 0
M  V30 15 C -0.189503 3.480021 0.495692 0
M  V30 16 C 0.864515 1.869711 1.997883 0
M  V30 17 C 0.995842 0.959069 0.803762 0
M  V30 18 O 2.114646 0.875686 0.217082 0
M  V30 19 N -2.472953 -0.111752 0.371873 0
M  V30 20 C -2.292579 -1.250810 -0.463999 0
M  V30 21 N -3.283636 -2.039363 -0.934610 0
M  V30 22 N -2.695383 -2.952802 -1.648650 0
M  V30 23 C -1.334909 -2.802143 -1.672556 0
M  V30 24 C -0.380795 -3.652467 -2.372513 0
M  V30 25 F 0.530387 -4.255395 -1.507898 0
M  V30 26 F -1.066208 -4.720220 -2.926952 0
M  V30 27 F 0.248970 -3.052135 -3.430704 0
M  V30 28 C -1.037828 -1.691903 -0.903229 0
M  V30 29 H 0.379370 -2.952794 3.868429 0
M  V30 30 H -1.194490 -2.065973 3.755802 0
M  V30 31 H -0.994370 -3.676819 3.029568 0
M  V30 32 H 2.019322 -3.576110 2.823844 0
M  V30 33 H 4.132610 -3.847036 1.655729 0
M  V30 34 H 4.429613 -2.750726 -0.595333 0
M  V30 35 H 2.586980 -1.467144 -1.501999 0
M  V30 36 H 0.599898 -0.456884 -1.414115 0
M  V30 37 H -1.910533 1.516489 2.706794 0
M  V30 38 H -2.400708 2.438939 1.211367 0
M  V30 39 H -1.156586 3.195733 3.723780 0
M  V30 40 H -0.906982 4.656950 2.613913 0
M  V30 41 H 0.463024 3.825322 3.377934 0
M  V30 42 H 0.873986 3.696836 0.290412 0
M  V30 43 H -0.718418 4.442475 0.642084 0
M  V30 44 H -0.622998 2.943423 -0.375390 0
M  V30 45 H 1.758953 2.512945 2.089123 0
M  V30 46 H 0.739283 1.173291 2.864354 0
M  V30 47 H -3.425085 0.203365 0.691097 0
M  V30 48 H -3.233939 -3.719650 -2.147715 0
M  V30 END ATOM
M  V30 BEGIN BOND
M  V30 1 1 1 2
M  V30 2 1 2 3
M  V30 3 2 3 4
M  V30 4 1 4 5
M  V30 5 2 5 6
M  V30 6 1 6 7
M  V30 7 2 7 8
M  V30 8 1 8 9
M  V30 9 1 9 10
M  V30 10 2 10 11
M  V30 11 1 11 12
M  V30 12 1 12 13
M  V30 13 1 13 14
M  V30 14 1 13 15
M  V30 15 1 13 16
M  V30 16 1 16 17
M  V30 17 2 17 18
M  V30 18 1 11 19
M  V30 19 1 19 20
M  V30 20 2 20 21
M  V30 21 1 21 22
M  V30 22 1 22 23
M  V30 23 1 23 24
M  V30 24 1 24 25
M  V30 25 1 24 26
M  V30 26 1 24 27
M  V30 27 2 23 28
M  V30 28 1 8 3
M  V30 29 1 28 9
M  V30 30 1 17 10
M  V30 31 1 28 20
M  V30 32 1 1 29
M  V30 33 1 1 30
M  V30 34 1 1 31
M  V30 35 1 4 32
M  V30 36 1 5 33
M  V30 37 1 6 34
M  V30 38 1 7 35
M  V30 39 1 9 36
M  V30 40 1 12 37
M  V30 41 1 12 38
M  V30 42 1 14 39
M  V30 43 1 14 40
M  V30 44 1 14 41
M  V30 45 1 15 42
M  V30 46 1 15 43
M  V30 47 1 15 44
M  V30 48 1 16 45
M  V30 49 1 16 46
M  V30 50 1 19 47
M  V30 51 1 22 48
M  V30 END BOND
M  V30 END CTAB
M  END
>  <Dataset>  (725) 
ChEMBL_Kinases

>  <Ligand_Instance>  (725) 
nan

>  <PDB_ID>  (725) 
nan

>  <Standardized_SMILES>  (725) 
COc1ccccc1C1C2=C(CC(C)(C)CC2=O)Nc2n[nH]c(C(F)(F)F)c21

>  <Name>  (725) 
nan

>  <Pocket>  (725) 
nan

>  <ATP_Site>  (725) 
nan

>  <Peripheral>  (725) 
nan

>  <Num_H_Atoms_ProtBoundConf>  (725) 
nan

>  <Num_Resolved_Atoms>  (725) 
nan

>  <Num_Not_Resolved_Atoms>  (725) 
nan

$$$$
CHEMBL5085558
     RDKit          3D

  0  0  0  0  0  0  0  0  0  0999 V3000
M  V30 BEGIN CTAB
M  V30 COUNTS 48 51 0 0 0
M  V30 BEGIN ATOM
M  V30 1 C 0.309156 -0.693924 3.953843 0
M  V30 2 N 1.061289 -1.755070 3.320455 0
M  V30 3 C 2.455085 -1.836674 2.939675 0
M  V30 4 N 3.191160 -2.307902 3.983042 0
M  V30 5 C 4.526547 -2.536646 3.853243 0
M  V30 6 C 5.080657 -2.261358 2.594556 0
M  V30 7 C 4.333320 -1.783935 1.537988 0
M  V30 8 C 2.986177 -1.567070 1.727856 0
M  V30 9 C 2.206275 -0.941686 0.672759 0
M  V30 10 N 2.893151 0.230597 0.066315 0
M  V30 11 C 2.008529 0.877560 -0.824496 0
M  V30 12 C 2.426123 1.645653 -1.887652 0
M  V30 13 C 1.692246 2.348001 -2.838082 0
M  V30 14 N 0.345135 2.192830 -2.592695 0
M  V30 15 C -0.169625 1.485547 -1.611133 0
M  V30 16 C -1.577983 1.246279 -1.356003 0
M  V30 17 N -2.608813 1.619626 -2.137806 0
M  V30 18 C -3.783044 1.188555 -1.663074 0
M  V30 19 C -5.109888 1.290958 -2.084108 0
M  V30 20 F -5.447295 1.935442 -3.196695 0
M  V30 21 C -5.962371 0.658239 -1.226979 0
M  V30 22 Cl -7.649448 0.768667 -1.727066 0
M  V30 23 C -5.733926 -0.029385 -0.076982 0
M  V30 24 C -4.373998 -0.118077 0.324131 0
M  V30 25 C -3.464304 0.498597 -0.496224 0
M  V30 26 N -2.119599 0.553228 -0.339417 0
M  V30 27 N 0.695861 0.900511 -0.827046 0
M  V30 28 S 0.153967 -3.158532 2.987269 0
M  V30 29 C -1.011478 -2.936464 1.664843 0
M  V30 30 O -0.642505 -3.576817 4.204946 0
M  V30 31 O 1.005169 -4.341408 2.596650 0
M  V30 32 H -0.428639 -0.298506 3.237456 0
M  V30 33 H -0.269878 -1.102193 4.828662 0
M  V30 34 H 0.974546 0.068738 4.399952 0
M  V30 35 H 5.171120 -2.907419 4.633776 0
M  V30 36 H 6.138797 -2.419460 2.407474 0
M  V30 37 H 4.810144 -1.569998 0.562939 0
M  V30 38 H 1.266598 -0.499675 1.167759 0
M  V30 39 H 1.890197 -1.585925 -0.161547 0
M  V30 40 H 3.863391 0.585982 0.219781 0
M  V30 41 H 3.509190 1.773781 -2.078142 0
M  V30 42 H 2.080292 2.925050 -3.644243 0
M  V30 43 H -6.434502 -0.517497 0.573856 0
M  V30 44 H -4.057106 -0.633595 1.216763 0
M  V30 45 H -1.560487 0.152141 0.417994 0
M  V30 46 H -1.472597 -3.936888 1.461036 0
M  V30 47 H -1.879047 -2.297572 1.954983 0
M  V30 48 H -0.573566 -2.499518 0.754115 0
M  V30 END ATOM
M  V30 BEGIN BOND
M  V30 1 1 1 2
M  V30 2 1 2 3
M  V30 3 2 3 4
M  V30 4 1 4 5
M  V30 5 2 5 6
M  V30 6 1 6 7
M  V30 7 2 7 8
M  V30 8 1 8 9
M  V30 9 1 9 10
M  V30 10 1 10 11
M  V30 11 2 11 12
M  V30 12 1 12 13
M  V30 13 2 13 14
M  V30 14 1 14 15
M  V30 15 1 15 16
M  V30 16 2 16 17
M  V30 17 1 17 18
M  V30 18 2 18 19
M  V30 19 1 19 20
M  V30 20 1 19 21
M  V30 21 1 21 22
M  V30 22 2 21 23
M  V30 23 1 23 24
M  V30 24 2 24 25
M  V30 25 1 25 26
M  V30 26 2 15 27
M  V30 27 1 2 28
M  V30 28 1 28 29
M  V30 29 2 28 30
M  V30 30 2 28 31
M  V30 31 1 8 3
M  V30 32 1 27 11
M  V30 33 1 26 16
M  V30 34 1 25 18
M  V30 35 1 1 32
M  V30 36 1 1 33
M  V30 37 1 1 34
M  V30 38 1 5 35
M  V30 39 1 6 36
M  V30 40 1 7 37
M  V30 41 1 9 38
M  V30 42 1 9 39
M  V30 43 1 10 40
M  V30 44 1 12 41
M  V30 45 1 13 42
M  V30 46 1 23 43
M  V30 47 1 24 44
M  V30 48 1 26 45
M  V30 49 1 29 46
M  V30 50 1 29 47
M  V30 51 1 29 48
M  V30 END BOND
M  V30 END CTAB
M  END
>  <Dataset>  (726) 
ChEMBL_Kinases

>  <Ligand_Instance>  (726) 
nan

>  <PDB_ID>  (726) 
nan

>  <Standardized_SMILES>  (726) 
CN(c1ncccc1CNc1ccnc(-c2nc3c(F)c(Cl)ccc3[nH]2)n1)S(C)(=O)=O

>  <Name>  (726) 
nan

>  <Pocket>  (726) 
nan

>  <ATP_Site>  (726) 
nan

>  <Peripheral>  (726) 
nan

>  <Num_H_Atoms_ProtBoundConf>  (726) 
nan

>  <Num_Resolved_Atoms>  (726) 
nan

>  <Num_Not_Resolved_Atoms>  (726) 
nan

$$$$
CHEMBL3759098
     RDKit          3D

  0  0  0  0  0  0  0  0  0  0999 V3000
M  V30 BEGIN CTAB
M  V30 COUNTS 28 31 0 0 0
M  V30 BEGIN ATOM
M  V30 1 O 0.934845 -4.579995 2.410031 0
M  V30 2 N 0.074769 -3.622957 1.911484 0
M  V30 3 C 0.502306 -2.490574 1.516183 0
M  V30 4 C 1.886465 -2.029291 1.518077 0
M  V30 5 C 3.057514 -2.667643 1.931042 0
M  V30 6 C 4.213242 -1.928062 1.790863 0
M  V30 7 C 4.347225 -0.647221 1.296652 0
M  V30 8 C 3.141618 -0.058484 0.898877 0
M  V30 9 C 1.952461 -0.748138 1.014586 0
M  V30 10 C 0.571794 -0.362867 0.674598 0
M  V30 11 N 0.109199 0.797727 0.148148 0
M  V30 12 C -1.214493 0.987886 -0.106141 0
M  V30 13 C -1.565855 2.210469 -0.642408 0
M  V30 14 C -2.916864 2.399867 -0.900078 0
M  V30 15 C -3.803246 1.378922 -0.611121 0
M  V30 16 C -3.415626 0.163401 -0.072796 0
M  V30 17 C -2.067605 -0.054573 0.195899 0
M  V30 18 N -1.601907 -1.202981 0.717895 0
M  V30 19 C -0.295002 -1.397486 0.971662 0
M  V30 20 H 0.572258 -5.263182 3.062981 0
M  V30 21 H 3.092369 -3.664888 2.334559 0
M  V30 22 H 5.139473 -2.425093 2.114346 0
M  V30 23 H 5.327195 -0.191820 1.246473 0
M  V30 24 H 3.213546 0.954449 0.503444 0
M  V30 25 H -0.810076 2.956080 -0.838831 0
M  V30 26 H -3.250891 3.331780 -1.317756 0
M  V30 27 H -4.870919 1.531101 -0.815746 0
M  V30 28 H -4.118190 -0.629416 0.149686 0
M  V30 END ATOM
M  V30 BEGIN BOND
M  V30 1 1 1 2
M  V30 2 2 2 3
M  V30 3 1 3 4
M  V30 4 2 4 5
M  V30 5 1 5 6
M  V30 6 2 6 7
M  V30 7 1 7 8
M  V30 8 2 8 9
M  V30 9 1 9 10
M  V30 10 2 10 11
M  V30 11 1 11 12
M  V30 12 2 12 13
M  V30 13 1 13 14
M  V30 14 2 14 15
M  V30 15 1 15 16
M  V30 16 2 16 17
M  V30 17 1 17 18
M  V30 18 2 18 19
M  V30 19 1 19 3
M  V30 20 1 9 4
M  V30 21 1 19 10
M  V30 22 1 17 12
M  V30 23 1 1 20
M  V30 24 1 5 21
M  V30 25 1 6 22
M  V30 26 1 7 23
M  V30 27 1 8 24
M  V30 28 1 13 25
M  V30 29 1 14 26
M  V30 30 1 15 27
M  V30 31 1 16 28
M  V30 END BOND
M  V30 END CTAB
M  END
>  <Dataset>  (727) 
ChEMBL_Kinases

>  <Ligand_Instance>  (727) 
nan

>  <PDB_ID>  (727) 
nan

>  <Standardized_SMILES>  (727) 
O/N=C1\c2ccccc2-c2nc3ccccc3nc21

>  <Name>  (727) 
nan

>  <Pocket>  (727) 
nan

>  <ATP_Site>  (727) 
nan

>  <Peripheral>  (727) 
nan

>  <Num_H_Atoms_ProtBoundConf>  (727) 
nan

>  <Num_Resolved_Atoms>  (727) 
nan

>  <Num_Not_Resolved_Atoms>  (727) 
nan

$$$$
CHEMBL1288160
     RDKit          3D

  0  0  0  0  0  0  0  0  0  0999 V3000
M  V30 BEGIN CTAB
M  V30 COUNTS 36 39 0 0 0
M  V30 BEGIN ATOM
M  V30 1 O -1.391567 0.539290 0.728615 0
M  V30 2 C -1.435144 -0.658497 1.095036 0
M  V30 3 C -1.485121 -2.020228 0.443194 0
M  V30 4 C -0.218281 -2.246605 -0.303835 0
M  V30 5 C 0.776784 -3.030878 0.266541 0
M  V30 6 C 1.982402 -3.230531 -0.366706 0
M  V30 7 C 2.204967 -2.641798 -1.591817 0
M  V30 8 C 1.191160 -1.858469 -2.150098 0
M  V30 9 C 1.427720 -1.276994 -3.379463 0
M  V30 10 N 0.485176 -0.500495 -3.990202 0
M  V30 11 C -0.715734 -0.288986 -3.382543 0
M  V30 12 C -0.943804 -0.864625 -2.169371 0
M  V30 13 C -0.021309 -1.651143 -1.522644 0
M  V30 14 N -1.429583 -0.571835 2.547985 0
M  V30 15 C -1.375306 0.852486 2.819497 0
M  V30 16 S -2.775395 1.878363 3.058877 0
M  V30 17 C -1.660925 3.411725 3.298555 0
M  V30 18 N -0.624578 2.934667 3.172584 0
M  V30 19 C -0.271083 1.685984 2.931324 0
M  V30 20 C 1.122125 1.171828 2.797538 0
M  V30 21 C 2.266322 2.065028 2.899056 0
M  V30 22 S 3.703987 1.026482 2.663322 0
M  V30 23 C 2.583831 -0.517031 2.452564 0
M  V30 24 N 1.601393 -0.016718 2.577691 0
M  V30 25 H -1.539934 -2.757228 1.248052 0
M  V30 26 H -2.366716 -2.086999 -0.236755 0
M  V30 27 H 0.540764 -3.468912 1.238030 0
M  V30 28 H 2.662494 -3.855371 0.188318 0
M  V30 29 H 3.160976 -2.817077 -2.059616 0
M  V30 30 H 2.390649 -1.431387 -3.891783 0
M  V30 31 H -1.416845 0.337344 -3.917414 0
M  V30 32 H -1.877182 -0.716721 -1.667123 0
M  V30 33 H -1.461643 -1.417278 3.171655 0
M  V30 34 H -1.856794 4.491873 3.506527 0
M  V30 35 H 2.303067 3.111446 3.069473 0
M  V30 36 H 2.676793 -1.707581 2.249917 0
M  V30 END ATOM
M  V30 BEGIN BOND
M  V30 1 2 1 2
M  V30 2 1 2 3
M  V30 3 1 3 4
M  V30 4 2 4 5
M  V30 5 1 5 6
M  V30 6 2 6 7
M  V30 7 1 7 8
M  V30 8 2 8 9
M  V30 9 1 9 10
M  V30 10 2 10 11
M  V30 11 1 11 12
M  V30 12 2 12 13
M  V30 13 1 2 14
M  V30 14 1 14 15
M  V30 15 1 15 16
M  V30 16 1 16 17
M  V30 17 2 17 18
M  V30 18 1 18 19
M  V30 19 1 19 20
M  V30 20 2 20 21
M  V30 21 1 21 22
M  V30 22 1 22 23
M  V30 23 2 23 24
M  V30 24 1 13 4
M  V30 25 2 19 15
M  V30 26 1 24 20
M  V30 27 1 13 8
M  V30 28 1 3 25
M  V30 29 1 3 26
M  V30 30 1 5 27
M  V30 31 1 6 28
M  V30 32 1 7 29
M  V30 33 1 9 30
M  V30 34 1 11 31
M  V30 35 1 12 32
M  V30 36 1 14 33
M  V30 37 1 17 34
M  V30 38 1 21 35
M  V30 39 1 23 36
M  V30 END BOND
M  V30 END CTAB
M  END
>  <Dataset>  (728) 
ChEMBL_Kinases

>  <Ligand_Instance>  (728) 
nan

>  <PDB_ID>  (728) 
nan

>  <Standardized_SMILES>  (728) 
O=C(Cc1cccc2cnccc12)Nc1scnc1-c1cscn1

>  <Name>  (728) 
nan

>  <Pocket>  (728) 
nan

>  <ATP_Site>  (728) 
nan

>  <Peripheral>  (728) 
nan

>  <Num_H_Atoms_ProtBoundConf>  (728) 
nan

>  <Num_Resolved_Atoms>  (728) 
nan

>  <Num_Not_Resolved_Atoms>  (728) 
nan

$$$$
CHEMBL3754515
     RDKit          3D

  0  0  0  0  0  0  0  0  0  0999 V3000
M  V30 BEGIN CTAB
M  V30 COUNTS 34 36 0 0 0
M  V30 BEGIN ATOM
M  V30 1 N -3.484388 -4.535803 3.601980 0
M  V30 2 C -2.587694 -3.903081 2.696785 0
M  V30 3 C -1.511960 -4.615936 2.206703 0
M  V30 4 C -0.686685 -3.935767 1.333805 0
M  V30 5 C -0.993093 -2.623719 1.024408 0
M  V30 6 C -0.104965 -1.924059 0.095285 0
M  V30 7 C 0.588560 -2.523956 -0.948039 0
M  V30 8 N 1.387619 -1.803496 -1.758837 0
M  V30 9 C 1.547574 -0.478250 -1.593447 0
M  V30 10 N 2.396168 0.301460 -2.451427 0
M  V30 11 C 0.904612 0.213422 -0.588419 0
M  V30 12 C 1.003836 1.642388 -0.319080 0
M  V30 13 C 0.943800 2.659042 -1.215148 0
M  V30 14 C 1.060307 3.974075 -0.767909 0
M  V30 15 C 1.235788 4.256421 0.573299 0
M  V30 16 Cl 1.383036 5.927049 1.124470 0
M  V30 17 C 1.300694 3.242261 1.509559 0
M  V30 18 C 1.181731 1.951587 1.031558 0
M  V30 19 C 0.083712 -0.564172 0.234048 0
M  V30 20 C -2.073691 -1.920762 1.522028 0
M  V30 21 N -2.865798 -2.622387 2.379578 0
M  V30 22 H -3.345487 -4.059387 4.542388 0
M  V30 23 H -3.921510 -4.670515 4.539311 0
M  V30 24 H -1.387333 -5.639756 2.531423 0
M  V30 25 H 0.156757 -4.455046 0.932933 0
M  V30 26 H 0.437293 -3.595889 -1.053490 0
M  V30 27 H 2.420016 0.388799 -3.496797 0
M  V30 28 H 3.155347 0.929258 -2.124973 0
M  V30 29 H 0.806376 2.374850 -2.242476 0
M  V30 30 H 1.008551 4.770811 -1.511933 0
M  V30 31 H 1.436619 3.462806 2.553669 0
M  V30 32 H 1.240859 1.188685 1.808281 0
M  V30 33 H -0.436396 -0.060234 1.031127 0
M  V30 34 H -2.281864 -0.894183 1.257581 0
M  V30 END ATOM
M  V30 BEGIN BOND
M  V30 1 1 1 2
M  V30 2 2 2 3
M  V30 3 1 3 4
M  V30 4 2 4 5
M  V30 5 1 5 6
M  V30 6 2 6 7
M  V30 7 1 7 8
M  V30 8 2 8 9
M  V30 9 1 9 10
M  V30 10 1 9 11
M  V30 11 1 11 12
M  V30 12 2 12 13
M  V30 13 1 13 14
M  V30 14 2 14 15
M  V30 15 1 15 16
M  V30 16 1 15 17
M  V30 17 2 17 18
M  V30 18 2 11 19
M  V30 19 1 5 20
M  V30 20 2 20 21
M  V30 21 1 21 2
M  V30 22 1 19 6
M  V30 23 1 18 12
M  V30 24 1 1 22
M  V30 25 1 1 23
M  V30 26 1 3 24
M  V30 27 1 4 25
M  V30 28 1 7 26
M  V30 29 1 10 27
M  V30 30 1 10 28
M  V30 31 1 13 29
M  V30 32 1 14 30
M  V30 33 1 17 31
M  V30 34 1 18 32
M  V30 35 1 19 33
M  V30 36 1 20 34
M  V30 END BOND
M  V30 END CTAB
M  END
>  <Dataset>  (729) 
ChEMBL_Kinases

>  <Ligand_Instance>  (729) 
nan

>  <PDB_ID>  (729) 
nan

>  <Standardized_SMILES>  (729) 
Nc1ccc(-c2cnc(N)c(-c3ccc(Cl)cc3)c2)cn1

>  <Name>  (729) 
nan

>  <Pocket>  (729) 
nan

>  <ATP_Site>  (729) 
nan

>  <Peripheral>  (729) 
nan

>  <Num_H_Atoms_ProtBoundConf>  (729) 
nan

>  <Num_Resolved_Atoms>  (729) 
nan

>  <Num_Not_Resolved_Atoms>  (729) 
nan

$$$$
CHEMBL3754283
     RDKit          3D

  0  0  0  0  0  0  0  0  0  0999 V3000
M  V30 BEGIN CTAB
M  V30 COUNTS 40 42 0 0 0
M  V30 BEGIN ATOM
M  V30 1 C 1.406201 -6.996820 1.952465 0
M  V30 2 S 1.989037 -5.559836 2.845785 0
M  V30 3 O 1.633389 -5.685520 4.294763 0
M  V30 4 O 3.459646 -5.457384 2.672060 0
M  V30 5 C 1.288981 -4.088053 2.152626 0
M  V30 6 C 0.076116 -3.562589 2.613731 0
M  V30 7 C -0.457001 -2.411263 2.060332 0
M  V30 8 C 0.204132 -1.759267 1.037998 0
M  V30 9 C -0.487829 -0.564715 0.564993 0
M  V30 10 C 0.121734 0.654480 0.320821 0
M  V30 11 C -0.634138 1.722600 -0.125165 0
M  V30 12 C -0.018187 3.021665 -0.391155 0
M  V30 13 C -0.808636 4.135247 -0.181152 0
M  V30 14 C -0.335931 5.417247 -0.398882 0
M  V30 15 C 0.977175 5.511307 -0.839596 0
M  V30 16 O 1.487102 6.784357 -1.069259 0
M  V30 17 C 1.828306 4.426078 -1.071081 0
M  V30 18 C 1.282128 3.171943 -0.830305 0
M  V30 19 C -1.991278 1.539241 -0.316155 0
M  V30 20 N -2.616255 0.359521 -0.086311 0
M  V30 21 C -1.863390 -0.683839 0.351958 0
M  V30 22 N -2.634442 -1.866530 0.555812 0
M  V30 23 C 1.403723 -2.269310 0.574011 0
M  V30 24 C 1.934976 -3.418011 1.126658 0
M  V30 25 H 1.143121 -7.830614 2.634092 0
M  V30 26 H 2.077577 -7.291622 1.137748 0
M  V30 27 H 0.447148 -6.685318 1.447933 0
M  V30 28 H -0.357052 -4.160214 3.423356 0
M  V30 29 H -1.391536 -2.177731 2.557325 0
M  V30 30 H 1.175546 0.730551 0.488341 0
M  V30 31 H -1.840966 4.099065 0.163497 0
M  V30 32 H -0.903067 6.328135 -0.253378 0
M  V30 33 H 1.360346 7.484990 -0.322651 0
M  V30 34 H 2.831165 4.579598 -1.411610 0
M  V30 35 H 1.887753 2.284800 -0.989713 0
M  V30 36 H -2.565244 2.381332 -0.663713 0
M  V30 37 H -2.103116 -2.602676 0.042999 0
M  V30 38 H -3.522300 -1.910869 1.106921 0
M  V30 39 H 1.851639 -1.709992 -0.215405 0
M  V30 40 H 2.866903 -3.788430 0.745134 0
M  V30 END ATOM
M  V30 BEGIN BOND
M  V30 1 1 1 2
M  V30 2 2 2 3
M  V30 3 2 2 4
M  V30 4 1 2 5
M  V30 5 2 5 6
M  V30 6 1 6 7
M  V30 7 2 7 8
M  V30 8 1 8 9
M  V30 9 2 9 10
M  V30 10 1 10 11
M  V30 11 1 11 12
M  V30 12 2 12 13
M  V30 13 1 13 14
M  V30 14 2 14 15
M  V30 15 1 15 16
M  V30 16 1 15 17
M  V30 17 2 17 18
M  V30 18 2 11 19
M  V30 19 1 19 20
M  V30 20 2 20 21
M  V30 21 1 21 22
M  V30 22 1 8 23
M  V30 23 2 23 24
M  V30 24 1 24 5
M  V30 25 1 21 9
M  V30 26 1 18 12
M  V30 27 1 1 25
M  V30 28 1 1 26
M  V30 29 1 1 27
M  V30 30 1 6 28
M  V30 31 1 7 29
M  V30 32 1 10 30
M  V30 33 1 13 31
M  V30 34 1 14 32
M  V30 35 1 16 33
M  V30 36 1 17 34
M  V30 37 1 18 35
M  V30 38 1 19 36
M  V30 39 1 22 37
M  V30 40 1 22 38
M  V30 41 1 23 39
M  V30 42 1 24 40
M  V30 END BOND
M  V30 END CTAB
M  END
>  <Dataset>  (730) 
ChEMBL_Kinases

>  <Ligand_Instance>  (730) 
nan

>  <PDB_ID>  (730) 
nan

>  <Standardized_SMILES>  (730) 
CS(=O)(=O)c1ccc(-c2cc(-c3ccc(O)cc3)cnc2N)cc1

>  <Name>  (730) 
nan

>  <Pocket>  (730) 
nan

>  <ATP_Site>  (730) 
nan

>  <Peripheral>  (730) 
nan

>  <Num_H_Atoms_ProtBoundConf>  (730) 
nan

>  <Num_Resolved_Atoms>  (730) 
nan

>  <Num_Not_Resolved_Atoms>  (730) 
nan

$$$$
CHEMBL3675320
     RDKit          3D

  0  0  0  0  0  0  0  0  0  0999 V3000
M  V30 BEGIN CTAB
M  V30 COUNTS 61 64 0 0 0
M  V30 BEGIN ATOM
M  V30 1 N 3.648142 0.734186 3.238591 0
M  V30 2 C 3.379906 -0.194661 2.222468 0
M  V30 3 O 4.338708 -0.795657 1.672989 0
M  V30 4 C 2.051150 -0.497300 1.773444 0
M  V30 5 C 0.971091 0.134125 2.342670 0
M  V30 6 C -0.346243 -0.055065 2.013822 0
M  V30 7 O -1.510244 0.470891 2.456744 0
M  V30 8 C -1.698109 1.442038 3.427013 0
M  V30 9 C -1.115495 2.784940 3.059177 0
M  V30 10 C -1.764507 3.298552 1.791778 0
M  V30 11 N -1.287999 4.566618 1.347032 0
M  V30 12 C -2.007119 4.950208 0.146246 0
M  V30 13 C -1.117946 4.680112 -1.030463 0
M  V30 14 C 0.257638 4.820446 -0.456419 0
M  V30 15 O 0.781594 6.054473 -0.805441 0
M  V30 16 C 0.108179 4.642293 1.041529 0
M  V30 17 C -0.547039 -0.997337 0.991606 0
M  V30 18 C 0.489633 -1.667553 0.377559 0
M  V30 19 C 0.304041 -2.592756 -0.625733 0
M  V30 20 N -0.975063 -2.916263 -1.100469 0
M  V30 21 C -1.269735 -3.873875 -2.146082 0
M  V30 22 C -0.874814 -5.257867 -1.832871 0
M  V30 23 C 0.273875 -5.961255 -2.120150 0
M  V30 24 C 0.442799 -7.265416 -1.715078 0
M  V30 25 C -0.521436 -7.944774 -1.001318 0
M  V30 26 C -0.375792 -9.350611 -0.547859 0
M  V30 27 F -0.887025 -10.235976 -1.473357 0
M  V30 28 F -1.027741 -9.461633 0.672895 0
M  V30 29 F 0.934517 -9.716174 -0.317203 0
M  V30 30 C -1.686122 -7.274422 -0.694548 0
M  V30 31 C -1.844556 -5.961655 -1.107627 0
M  V30 32 N 1.384642 -3.162065 -1.128332 0
M  V30 33 C 2.639424 -2.903316 -0.732414 0
M  V30 34 N 2.874444 -2.008856 0.242673 0
M  V30 35 C 1.783829 -1.409376 0.776436 0
M  V30 36 H 3.936808 1.739766 3.268121 0
M  V30 37 H 3.499037 0.207631 4.138495 0
M  V30 38 H 1.163505 0.826243 3.129247 0
M  V30 39 H -1.180706 1.055071 4.363203 0
M  V30 40 H -2.777868 1.561575 3.712540 0
M  V30 41 H -1.341423 3.463898 3.915864 0
M  V30 42 H -0.047724 2.709944 2.849669 0
M  V30 43 H -1.599777 2.483017 1.032695 0
M  V30 44 H -2.860298 3.389129 1.932403 0
M  V30 45 H -2.964795 4.393083 0.049397 0
M  V30 46 H -2.158304 6.041373 0.214262 0
M  V30 47 H -1.288161 5.427191 -1.857872 0
M  V30 48 H -1.349247 3.660456 -1.402415 0
M  V30 49 H 0.881617 4.011097 -0.921995 0
M  V30 50 H 1.716138 6.007879 -1.140056 0
M  V30 51 H 0.715998 3.782319 1.312202 0
M  V30 52 H 0.506765 5.595860 1.495952 0
M  V30 53 H -1.524340 -1.228526 0.652044 0
M  V30 54 H -1.854826 -2.516535 -0.765007 0
M  V30 55 H -2.302963 -3.887462 -2.492833 0
M  V30 56 H -0.619369 -3.575984 -3.029019 0
M  V30 57 H 0.997281 -5.395262 -2.686248 0
M  V30 58 H 1.365753 -7.766817 -1.969463 0
M  V30 59 H -2.450520 -7.795109 -0.135808 0
M  V30 60 H -2.809802 -5.523186 -0.809386 0
M  V30 61 H 3.512778 -3.402290 -1.179875 0
M  V30 END ATOM
M  V30 BEGIN BOND
M  V30 1 1 1 2
M  V30 2 2 2 3
M  V30 3 1 2 4
M  V30 4 2 4 5
M  V30 5 1 5 6
M  V30 6 1 6 7
M  V30 7 1 7 8
M  V30 8 1 8 9
M  V30 9 1 9 10
M  V30 10 1 10 11
M  V30 11 1 11 12
M  V30 12 1 12 13
M  V30 13 1 13 14
M  V30 14 1 14 15
M  V30 15 1 14 16
M  V30 16 2 6 17
M  V30 17 1 17 18
M  V30 18 2 18 19
M  V30 19 1 19 20
M  V30 20 1 20 21
M  V30 21 1 21 22
M  V30 22 2 22 23
M  V30 23 1 23 24
M  V30 24 2 24 25
M  V30 25 1 25 26
M  V30 26 1 26 27
M  V30 27 1 26 28
M  V30 28 1 26 29
M  V30 29 1 25 30
M  V30 30 2 30 31
M  V30 31 1 19 32
M  V30 32 2 32 33
M  V30 33 1 33 34
M  V30 34 2 34 35
M  V30 35 1 35 4
M  V30 36 1 16 11
M  V30 37 1 35 18
M  V30 38 1 31 22
M  V30 39 1 1 36
M  V30 40 1 1 37
M  V30 41 1 5 38
M  V30 42 1 8 39
M  V30 43 1 8 40
M  V30 44 1 9 41
M  V30 45 1 9 42
M  V30 46 1 10 43
M  V30 47 1 10 44
M  V30 48 1 12 45
M  V30 49 1 12 46
M  V30 50 1 13 47
M  V30 51 1 13 48
M  V30 52 1 14 49
M  V30 53 1 15 50
M  V30 54 1 16 51
M  V30 55 1 16 52
M  V30 56 1 17 53
M  V30 57 1 20 54
M  V30 58 1 21 55
M  V30 59 1 21 56
M  V30 60 1 23 57
M  V30 61 1 24 58
M  V30 62 1 30 59
M  V30 63 1 31 60
M  V30 64 1 33 61
M  V30 END BOND
M  V30 END CTAB
M  END
>  <Dataset>  (731) 
ChEMBL_Kinases

>  <Ligand_Instance>  (731) 
nan

>  <PDB_ID>  (731) 
nan

>  <Standardized_SMILES>  (731) 
NC(=O)c1cc(OCCCN2CCC(O)C2)cc2c(NCc3ccc(C(F)(F)F)cc3)ncnc12

>  <Name>  (731) 
nan

>  <Pocket>  (731) 
nan

>  <ATP_Site>  (731) 
nan

>  <Peripheral>  (731) 
nan

>  <Num_H_Atoms_ProtBoundConf>  (731) 
nan

>  <Num_Resolved_Atoms>  (731) 
nan

>  <Num_Not_Resolved_Atoms>  (731) 
nan

$$$$
CHEMBL3675321
     RDKit          3D

  0  0  0  0  0  0  0  0  0  0999 V3000
M  V30 BEGIN CTAB
M  V30 COUNTS 64 67 0 0 0
M  V30 BEGIN ATOM
M  V30 1 N 0.411755 1.805187 4.172251 0
M  V30 2 C 1.330480 1.445217 3.132568 0
M  V30 3 O 2.475214 1.941567 2.979679 0
M  V30 4 C 0.900593 0.423400 2.179825 0
M  V30 5 C 1.716894 0.013512 1.147531 0
M  V30 6 C 1.423109 -0.927480 0.202453 0
M  V30 7 O 2.171001 -1.372704 -0.829721 0
M  V30 8 C 3.430284 -1.049515 -1.282656 0
M  V30 9 C 3.658885 0.356869 -1.722842 0
M  V30 10 C 2.745206 0.758021 -2.868230 0
M  V30 11 N 2.969198 2.113282 -3.286667 0
M  V30 12 C 2.104003 2.487399 -4.361843 0
M  V30 13 C 2.035314 3.991615 -4.408608 0
M  V30 14 C 2.574573 4.405937 -3.070950 0
M  V30 15 C 2.761397 3.106248 -2.281155 0 CFG=1
M  V30 16 C 1.426115 2.849685 -1.611923 0
M  V30 17 O 1.248907 3.845915 -0.628655 0
M  V30 18 C 0.152965 -1.506465 0.337732 0
M  V30 19 C -0.713093 -1.143266 1.346507 0
M  V30 20 C -1.954235 -1.737580 1.444064 0
M  V30 21 N -2.434507 -2.725211 0.560386 0
M  V30 22 C -3.716420 -3.369787 0.626986 0
M  V30 23 C -3.959141 -4.153129 1.840247 0
M  V30 24 C -3.460306 -5.454028 1.686839 0
M  V30 25 C -3.571894 -6.409582 2.701543 0
M  V30 26 C -4.183974 -6.093416 3.896494 0
M  V30 27 C -4.358115 -7.025319 5.040731 0
M  V30 28 F -4.384850 -8.312731 4.559457 0
M  V30 29 F -5.515205 -6.685795 5.706645 0
M  V30 30 F -3.259785 -6.825504 5.869529 0
M  V30 31 C -4.671446 -4.811018 4.037137 0
M  V30 32 C -4.566506 -3.862302 3.043027 0
M  V30 33 N -2.722814 -1.316681 2.458403 0
M  V30 34 C -2.387127 -0.386561 3.362306 0
M  V30 35 N -1.171550 0.190818 3.261086 0
M  V30 36 C -0.335489 -0.182838 2.259498 0
M  V30 37 H -0.413550 2.407801 4.365594 0
M  V30 38 H 0.736744 1.228592 4.996015 0
M  V30 39 H 2.667067 0.482524 1.101431 0
M  V30 40 H 3.683525 -1.707947 -2.157741 0
M  V30 41 H 4.247159 -1.302497 -0.540446 0
M  V30 42 H 4.707380 0.378640 -2.153371 0
M  V30 43 H 3.671775 1.106246 -0.921128 0
M  V30 44 H 2.983307 0.112630 -3.765021 0
M  V30 45 H 1.687226 0.609511 -2.636071 0
M  V30 46 H 1.120500 2.023675 -4.182498 0
M  V30 47 H 2.494881 2.051878 -5.312107 0
M  V30 48 H 2.638715 4.337601 -5.257180 0
M  V30 49 H 0.948983 4.260877 -4.525548 0
M  V30 50 H 1.848236 5.065011 -2.574237 0
M  V30 51 H 3.541090 4.923861 -3.192068 0
M  V30 52 H 3.578855 3.189335 -1.560507 0
M  V30 53 H 0.591374 2.936911 -2.312310 0
M  V30 54 H 1.403581 1.867783 -1.070354 0
M  V30 55 H 0.671686 4.558847 -0.987073 0
M  V30 56 H -0.137306 -2.257970 -0.379946 0
M  V30 57 H -1.888365 -3.089502 -0.242721 0
M  V30 58 H -4.468137 -2.518867 0.626595 0
M  V30 59 H -3.974075 -3.935404 -0.287031 0
M  V30 60 H -2.948492 -5.870108 0.806974 0
M  V30 61 H -3.201941 -7.416159 2.620571 0
M  V30 62 H -5.165696 -4.475313 4.938771 0
M  V30 63 H -4.926912 -2.847083 3.074330 0
M  V30 64 H -3.056579 -0.090012 4.161116 0
M  V30 END ATOM
M  V30 BEGIN BOND
M  V30 1 1 1 2
M  V30 2 2 2 3
M  V30 3 1 2 4
M  V30 4 2 4 5
M  V30 5 1 5 6
M  V30 6 1 6 7
M  V30 7 1 7 8
M  V30 8 1 8 9
M  V30 9 1 9 10
M  V30 10 1 10 11
M  V30 11 1 11 12
M  V30 12 1 12 13
M  V30 13 1 13 14
M  V30 14 1 14 15
M  V30 15 1 15 16
M  V30 16 1 16 17
M  V30 17 2 6 18
M  V30 18 1 18 19
M  V30 19 2 19 20
M  V30 20 1 20 21
M  V30 21 1 21 22
M  V30 22 1 22 23
M  V30 23 2 23 24
M  V30 24 1 24 25
M  V30 25 2 25 26
M  V30 26 1 26 27
M  V30 27 1 27 28
M  V30 28 1 27 29
M  V30 29 1 27 30
M  V30 30 1 26 31
M  V30 31 2 31 32
M  V30 32 1 20 33
M  V30 33 2 33 34
M  V30 34 1 34 35
M  V30 35 2 35 36
M  V30 36 1 36 4
M  V30 37 1 15 11
M  V30 38 1 36 19
M  V30 39 1 32 23
M  V30 40 1 1 37
M  V30 41 1 1 38
M  V30 42 1 5 39
M  V30 43 1 8 40
M  V30 44 1 8 41
M  V30 45 1 9 42
M  V30 46 1 9 43
M  V30 47 1 10 44
M  V30 48 1 10 45
M  V30 49 1 12 46
M  V30 50 1 12 47
M  V30 51 1 13 48
M  V30 52 1 13 49
M  V30 53 1 14 50
M  V30 54 1 14 51
M  V30 55 1 15 52 CFG=1
M  V30 56 1 16 53
M  V30 57 1 16 54
M  V30 58 1 17 55
M  V30 59 1 18 56
M  V30 60 1 21 57
M  V30 61 1 22 58
M  V30 62 1 22 59
M  V30 63 1 24 60
M  V30 64 1 25 61
M  V30 65 1 31 62
M  V30 66 1 32 63
M  V30 67 1 34 64
M  V30 END BOND
M  V30 END CTAB
M  END
>  <Dataset>  (732) 
ChEMBL_Kinases

>  <Ligand_Instance>  (732) 
nan

>  <PDB_ID>  (732) 
nan

>  <Standardized_SMILES>  (732) 
NC(=O)c1cc(OCCCN2CCC[C@H]2CO)cc2c(NCc3ccc(C(F)(F)F)cc3)ncnc12

>  <Name>  (732) 
nan

>  <Pocket>  (732) 
nan

>  <ATP_Site>  (732) 
nan

>  <Peripheral>  (732) 
nan

>  <Num_H_Atoms_ProtBoundConf>  (732) 
nan

>  <Num_Resolved_Atoms>  (732) 
nan

>  <Num_Not_Resolved_Atoms>  (732) 
nan

$$$$
CHEMBL3675323
     RDKit          3D

  0  0  0  0  0  0  0  0  0  0999 V3000
M  V30 BEGIN CTAB
M  V30 COUNTS 65 68 0 0 0
M  V30 BEGIN ATOM
M  V30 1 C 4.055738 -1.194995 4.839191 0
M  V30 2 N 4.641265 0.100987 4.579973 0
M  V30 3 C 4.924322 0.255170 3.187675 0
M  V30 4 C 3.717267 0.841515 2.435478 0
M  V30 5 N 2.570137 0.483055 3.169363 0
M  V30 6 C 1.450644 -0.037157 2.531352 0
M  V30 7 C 0.629006 0.825479 1.644060 0
M  V30 8 C 1.315612 1.424290 0.470004 0
M  V30 9 O 0.469528 2.201495 -0.309017 0
M  V30 10 C -0.633593 1.945792 -1.023856 0
M  V30 11 C -1.091574 3.132120 -1.602192 0
M  V30 12 C -2.237909 3.150606 -2.408263 0
M  V30 13 C -2.784614 4.340439 -3.049041 0
M  V30 14 N -2.106418 5.572675 -2.843071 0
M  V30 15 O -3.811121 4.359873 -3.770404 0
M  V30 16 C -2.935439 1.985600 -2.643244 0
M  V30 17 N -4.052379 1.951613 -3.418934 0
M  V30 18 C -4.706128 0.772707 -3.621754 0
M  V30 19 N -4.259782 -0.387143 -3.057368 0
M  V30 20 C -3.158006 -0.400565 -2.281981 0
M  V30 21 N -2.742521 -1.637589 -1.718978 0
M  V30 22 C -3.483709 -2.869152 -1.974491 0
M  V30 23 C -2.899021 -4.046125 -1.297578 0
M  V30 24 C -1.940749 -4.711276 -2.043315 0
M  V30 25 C -1.311972 -5.825957 -1.527423 0
M  V30 26 C -1.670102 -6.251579 -0.249785 0
M  V30 27 C -0.977353 -7.459019 0.295118 0
M  V30 28 F 0.372350 -7.292251 0.034623 0
M  V30 29 F -1.117475 -7.508331 1.671034 0
M  V30 30 F -1.455827 -8.630902 -0.224967 0
M  V30 31 C -2.634011 -5.584277 0.502604 0
M  V30 32 C -3.262233 -4.458170 -0.031318 0
M  V30 33 C -2.510418 0.797554 -2.087633 0
M  V30 34 C -1.382131 0.827681 -1.304924 0
M  V30 35 C 2.397050 1.063558 4.454802 0
M  V30 36 C 3.759991 1.118770 5.124410 0
M  V30 37 H 3.972051 -1.814923 3.910509 0
M  V30 38 H 3.017893 -1.120256 5.247267 0
M  V30 39 H 4.693568 -1.727089 5.576944 0
M  V30 40 H 5.856632 0.811761 2.969891 0
M  V30 41 H 5.039519 -0.785086 2.765604 0
M  V30 42 H 3.950236 1.900083 2.323162 0
M  V30 43 H 3.648676 0.384194 1.423804 0
M  V30 44 H 1.752799 -0.954072 1.962632 0
M  V30 45 H 0.749170 -0.438709 3.314968 0
M  V30 46 H -0.224382 0.211685 1.295632 0
M  V30 47 H 0.158534 1.639345 2.252888 0
M  V30 48 H 1.818930 0.662145 -0.163449 0
M  V30 49 H 2.135110 2.107936 0.806888 0
M  V30 50 H -0.678160 4.131136 -1.529745 0
M  V30 51 H -1.496497 5.911475 -2.072659 0
M  V30 52 H -2.180727 6.346616 -3.555750 0
M  V30 53 H -5.582770 0.833003 -4.249768 0
M  V30 54 H -1.924056 -1.784496 -1.108345 0
M  V30 55 H -3.488787 -2.972847 -3.078296 0
M  V30 56 H -4.531136 -2.673973 -1.690613 0
M  V30 57 H -1.632127 -4.412172 -3.042758 0
M  V30 58 H -0.554666 -6.358367 -2.103862 0
M  V30 59 H -2.910714 -5.912728 1.489725 0
M  V30 60 H -4.015257 -3.904834 0.509230 0
M  V30 61 H -0.987480 -0.059435 -0.852946 0
M  V30 62 H 1.701535 0.424240 5.039211 0
M  V30 63 H 1.982611 2.082642 4.472117 0
M  V30 64 H 4.236026 2.126260 5.023616 0
M  V30 65 H 3.673979 0.882171 6.218747 0
M  V30 END ATOM
M  V30 BEGIN BOND
M  V30 1 1 1 2
M  V30 2 1 2 3
M  V30 3 1 3 4
M  V30 4 1 4 5
M  V30 5 1 5 6
M  V30 6 1 6 7
M  V30 7 1 7 8
M  V30 8 1 8 9
M  V30 9 1 9 10
M  V30 10 2 10 11
M  V30 11 1 11 12
M  V30 12 1 12 13
M  V30 13 1 13 14
M  V30 14 2 13 15
M  V30 15 2 12 16
M  V30 16 1 16 17
M  V30 17 2 17 18
M  V30 18 1 18 19
M  V30 19 2 19 20
M  V30 20 1 20 21
M  V30 21 1 21 22
M  V30 22 1 22 23
M  V30 23 2 23 24
M  V30 24 1 24 25
M  V30 25 2 25 26
M  V30 26 1 26 27
M  V30 27 1 27 28
M  V30 28 1 27 29
M  V30 29 1 27 30
M  V30 30 1 26 31
M  V30 31 2 31 32
M  V30 32 1 20 33
M  V30 33 2 33 34
M  V30 34 1 5 35
M  V30 35 1 35 36
M  V30 36 1 36 2
M  V30 37 1 34 10
M  V30 38 1 33 16
M  V30 39 1 32 23
M  V30 40 1 1 37
M  V30 41 1 1 38
M  V30 42 1 1 39
M  V30 43 1 3 40
M  V30 44 1 3 41
M  V30 45 1 4 42
M  V30 46 1 4 43
M  V30 47 1 6 44
M  V30 48 1 6 45
M  V30 49 1 7 46
M  V30 50 1 7 47
M  V30 51 1 8 48
M  V30 52 1 8 49
M  V30 53 1 11 50
M  V30 54 1 14 51
M  V30 55 1 14 52
M  V30 56 1 18 53
M  V30 57 1 21 54
M  V30 58 1 22 55
M  V30 59 1 22 56
M  V30 60 1 24 57
M  V30 61 1 25 58
M  V30 62 1 31 59
M  V30 63 1 32 60
M  V30 64 1 34 61
M  V30 65 1 35 62
M  V30 66 1 35 63
M  V30 67 1 36 64
M  V30 68 1 36 65
M  V30 END BOND
M  V30 END CTAB
M  END
>  <Dataset>  (733) 
ChEMBL_Kinases

>  <Ligand_Instance>  (733) 
nan

>  <PDB_ID>  (733) 
nan

>  <Standardized_SMILES>  (733) 
CN1CCN(CCCOc2cc(C(N)=O)c3ncnc(NCc4ccc(C(F)(F)F)cc4)c3c2)CC1

>  <Name>  (733) 
nan

>  <Pocket>  (733) 
nan

>  <ATP_Site>  (733) 
nan

>  <Peripheral>  (733) 
nan

>  <Num_H_Atoms_ProtBoundConf>  (733) 
nan

>  <Num_Resolved_Atoms>  (733) 
nan

>  <Num_Not_Resolved_Atoms>  (733) 
nan

$$$$
CHEMBL571626
     RDKit          3D

  0  0  0  0  0  0  0  0  0  0999 V3000
M  V30 BEGIN CTAB
M  V30 COUNTS 46 49 0 0 0
M  V30 BEGIN ATOM
M  V30 1 C -0.816467 -2.543282 5.446803 0
M  V30 2 S 0.896424 -2.400401 5.868506 0
M  V30 3 O 0.997661 -2.649995 7.357286 0
M  V30 4 O 1.652776 -3.502269 5.194838 0
M  V30 5 N 1.546504 -0.842112 5.563463 0
M  V30 6 C 1.676291 -0.121832 4.346825 0
M  V30 7 C 2.838599 0.559392 3.980058 0
M  V30 8 C 2.938187 1.253250 2.787729 0
M  V30 9 C 1.867938 1.277522 1.936689 0
M  V30 10 C 1.824426 1.964531 0.626780 0
M  V30 11 C 2.894009 2.640068 0.131908 0
M  V30 12 C 2.801342 3.253747 -1.116444 0
M  V30 13 N 1.663949 3.181496 -1.832236 0
M  V30 14 C 0.583213 2.502154 -1.339343 0
M  V30 15 N -0.710365 2.247901 -1.869161 0
M  V30 16 C -1.028678 0.875144 -2.167126 0
M  V30 17 C -0.049534 -0.075829 -1.959343 0
M  V30 18 C -0.324395 -1.418568 -2.207885 0
M  V30 19 C -1.569649 -1.796501 -2.659350 0
M  V30 20 N -1.892551 -3.154650 -2.913469 0
M  V30 21 C -1.766007 -3.918074 -1.808563 0
M  V30 22 C -2.106714 -5.230606 -2.164065 0
M  V30 23 N -2.423432 -5.190493 -3.476603 0
M  V30 24 N -2.287254 -3.939806 -3.900221 0
M  V30 25 C -2.554374 -0.828136 -2.867865 0
M  V30 26 C -2.277724 0.501167 -2.620918 0
M  V30 27 N 0.725270 1.939418 -0.149921 0
M  V30 28 C 0.706458 0.592128 2.312131 0
M  V30 29 C 0.566023 -0.111369 3.490108 0
M  V30 30 H -1.231647 -3.367108 6.078306 0
M  V30 31 H -0.973655 -2.847527 4.402853 0
M  V30 32 H -1.362467 -1.605013 5.618801 0
M  V30 33 H 1.944630 -0.231833 6.339682 0
M  V30 34 H 3.685314 0.535460 4.660846 0
M  V30 35 H 3.823467 1.787413 2.481565 0
M  V30 36 H 3.810372 2.724525 0.665289 0
M  V30 37 H 3.589234 3.813192 -1.599606 0
M  V30 38 H -1.443290 2.961628 -2.063899 0
M  V30 39 H 0.954289 0.110126 -1.612551 0
M  V30 40 H 0.425639 -2.188862 -2.052446 0
M  V30 41 H -1.482789 -3.793243 -0.752791 0
M  V30 42 H -2.141594 -6.146162 -1.588305 0
M  V30 43 H -3.526312 -1.146337 -3.225920 0
M  V30 44 H -3.025018 1.280183 -2.773079 0
M  V30 45 H -0.153699 0.608573 1.636247 0
M  V30 46 H -0.376105 -0.605485 3.682295 0
M  V30 END ATOM
M  V30 BEGIN BOND
M  V30 1 1 1 2
M  V30 2 2 2 3
M  V30 3 2 2 4
M  V30 4 1 2 5
M  V30 5 1 5 6
M  V30 6 2 6 7
M  V30 7 1 7 8
M  V30 8 2 8 9
M  V30 9 1 9 10
M  V30 10 2 10 11
M  V30 11 1 11 12
M  V30 12 2 12 13
M  V30 13 1 13 14
M  V30 14 1 14 15
M  V30 15 1 15 16
M  V30 16 2 16 17
M  V30 17 1 17 18
M  V30 18 2 18 19
M  V30 19 1 19 20
M  V30 20 1 20 21
M  V30 21 2 21 22
M  V30 22 1 22 23
M  V30 23 2 23 24
M  V30 24 1 19 25
M  V30 25 2 25 26
M  V30 26 2 14 27
M  V30 27 1 9 28
M  V30 28 2 28 29
M  V30 29 1 29 6
M  V30 30 1 27 10
M  V30 31 1 26 16
M  V30 32 1 24 20
M  V30 33 1 1 30
M  V30 34 1 1 31
M  V30 35 1 1 32
M  V30 36 1 5 33
M  V30 37 1 7 34
M  V30 38 1 8 35
M  V30 39 1 11 36
M  V30 40 1 12 37
M  V30 41 1 15 38
M  V30 42 1 17 39
M  V30 43 1 18 40
M  V30 44 1 21 41
M  V30 45 1 22 42
M  V30 46 1 25 43
M  V30 47 1 26 44
M  V30 48 1 28 45
M  V30 49 1 29 46
M  V30 END BOND
M  V30 END CTAB
M  END
>  <Dataset>  (734) 
ChEMBL_Kinases

>  <Ligand_Instance>  (734) 
nan

>  <PDB_ID>  (734) 
nan

>  <Standardized_SMILES>  (734) 
CS(=O)(=O)Nc1ccc(-c2ccnc(Nc3ccc(-n4ccnn4)cc3)n2)cc1

>  <Name>  (734) 
nan

>  <Pocket>  (734) 
nan

>  <ATP_Site>  (734) 
nan

>  <Peripheral>  (734) 
nan

>  <Num_H_Atoms_ProtBoundConf>  (734) 
nan

>  <Num_Resolved_Atoms>  (734) 
nan

>  <Num_Not_Resolved_Atoms>  (734) 
nan

$$$$
CHEMBL3675328
     RDKit          3D

  0  0  0  0  0  0  0  0  0  0999 V3000
M  V30 BEGIN CTAB
M  V30 COUNTS 52 54 0 0 0
M  V30 BEGIN ATOM
M  V30 1 C 2.802715 -3.937236 1.104088 0
M  V30 2 O 3.363511 -3.467354 -0.051891 0
M  V30 3 C 4.685993 -3.145013 -0.008107 0
M  V30 4 C 5.090656 -2.076804 0.947744 0
M  V30 5 C 4.401448 -0.764464 0.635900 0
M  V30 6 O 2.992393 -0.862369 0.702482 0
M  V30 7 C 2.246987 0.279538 0.435321 0
M  V30 8 C 2.928680 1.444846 0.119906 0
M  V30 9 C 2.177791 2.572693 -0.143526 0
M  V30 10 C 2.867603 3.814141 -0.478463 0
M  V30 11 N 2.123358 4.998286 -0.756413 0
M  V30 12 O 4.108610 3.882382 -0.532507 0
M  V30 13 C 0.797477 2.552729 -0.097531 0
M  V30 14 N 0.113212 3.663066 -0.358560 0
M  V30 15 C -1.230935 3.606572 -0.304434 0
M  V30 16 N -1.878846 2.469166 0.002944 0
M  V30 17 C -1.272440 1.302288 0.280601 0
M  V30 18 N -1.981133 0.122689 0.600768 0
M  V30 19 C -3.426867 0.233545 0.615367 0
M  V30 20 C -3.985445 -1.094161 0.969137 0
M  V30 21 C -4.276736 -2.003800 -0.043373 0
M  V30 22 C -4.797291 -3.229395 0.349428 0
M  V30 23 C -5.034331 -3.578243 1.680427 0
M  V30 24 C -5.591431 -4.921540 1.924697 0
M  V30 25 F -6.291274 -4.899079 3.127457 0
M  V30 26 F -6.411052 -5.287404 0.867767 0
M  V30 27 F -4.581520 -5.884156 2.027866 0
M  V30 28 C -4.725145 -2.634243 2.636644 0
M  V30 29 C -4.203636 -1.394817 2.306762 0
M  V30 30 C 0.101220 1.402900 0.214387 0
M  V30 31 C 0.872423 0.289979 0.473448 0
M  V30 32 H 2.828756 -3.282038 1.972100 0
M  V30 33 H 3.141932 -4.983355 1.339174 0
M  V30 34 H 1.705733 -4.077244 0.876935 0
M  V30 35 H 5.281298 -4.067750 0.121229 0
M  V30 36 H 4.955143 -2.771583 -1.040074 0
M  V30 37 H 6.183866 -1.878671 0.741007 0
M  V30 38 H 5.045727 -2.339524 2.004883 0
M  V30 39 H 4.785276 0.050410 1.299282 0
M  V30 40 H 4.642096 -0.435475 -0.394864 0
M  V30 41 H 4.002323 1.488953 0.076876 0
M  V30 42 H 1.721156 4.859516 -1.709094 0
M  V30 43 H 1.659799 4.982773 -1.705600 0
M  V30 44 H -1.920308 4.442514 -0.495800 0
M  V30 45 H -1.536526 -0.790149 0.819183 0
M  V30 46 H -3.778541 1.017499 1.315021 0
M  V30 47 H -3.726179 0.455107 -0.439447 0
M  V30 48 H -4.108812 -1.774236 -1.082862 0
M  V30 49 H -5.019335 -3.926845 -0.444909 0
M  V30 50 H -4.933428 -2.967155 3.661411 0
M  V30 51 H -3.986414 -0.709930 3.097835 0
M  V30 52 H 0.434782 -0.644101 0.723068 0
M  V30 END ATOM
M  V30 BEGIN BOND
M  V30 1 1 1 2
M  V30 2 1 2 3
M  V30 3 1 3 4
M  V30 4 1 4 5
M  V30 5 1 5 6
M  V30 6 1 6 7
M  V30 7 2 7 8
M  V30 8 1 8 9
M  V30 9 1 9 10
M  V30 10 1 10 11
M  V30 11 2 10 12
M  V30 12 2 9 13
M  V30 13 1 13 14
M  V30 14 2 14 15
M  V30 15 1 15 16
M  V30 16 2 16 17
M  V30 17 1 17 18
M  V30 18 1 18 19
M  V30 19 1 19 20
M  V30 20 2 20 21
M  V30 21 1 21 22
M  V30 22 2 22 23
M  V30 23 1 23 24
M  V30 24 1 24 25
M  V30 25 1 24 26
M  V30 26 1 24 27
M  V30 27 1 23 28
M  V30 28 2 28 29
M  V30 29 1 17 30
M  V30 30 2 30 31
M  V30 31 1 31 7
M  V30 32 1 30 13
M  V30 33 1 29 20
M  V30 34 1 1 32
M  V30 35 1 1 33
M  V30 36 1 1 34
M  V30 37 1 3 35
M  V30 38 1 3 36
M  V30 39 1 4 37
M  V30 40 1 4 38
M  V30 41 1 5 39
M  V30 42 1 5 40
M  V30 43 1 8 41
M  V30 44 1 11 42
M  V30 45 1 11 43
M  V30 46 1 15 44
M  V30 47 1 18 45
M  V30 48 1 19 46
M  V30 49 1 19 47
M  V30 50 1 21 48
M  V30 51 1 22 49
M  V30 52 1 28 50
M  V30 53 1 29 51
M  V30 54 1 31 52
M  V30 END BOND
M  V30 END CTAB
M  END
>  <Dataset>  (735) 
ChEMBL_Kinases

>  <Ligand_Instance>  (735) 
nan

>  <PDB_ID>  (735) 
nan

>  <Standardized_SMILES>  (735) 
COCCCOc1cc(C(N)=O)c2ncnc(NCc3ccc(C(F)(F)F)cc3)c2c1

>  <Name>  (735) 
nan

>  <Pocket>  (735) 
nan

>  <ATP_Site>  (735) 
nan

>  <Peripheral>  (735) 
nan

>  <Num_H_Atoms_ProtBoundConf>  (735) 
nan

>  <Num_Resolved_Atoms>  (735) 
nan

>  <Num_Not_Resolved_Atoms>  (735) 
nan

$$$$
CHEMBL3675329
     RDKit          3D

  0  0  0  0  0  0  0  0  0  0999 V3000
M  V30 BEGIN CTAB
M  V30 COUNTS 44 46 0 0 0
M  V30 BEGIN ATOM
M  V30 1 C 0.882570 -3.003069 1.963682 0
M  V30 2 O 1.393961 -1.986917 1.162895 0
M  V30 3 C 2.708129 -2.000465 0.736051 0
M  V30 4 C 3.593187 -3.001132 1.060669 0
M  V30 5 C 4.902453 -2.958128 0.595690 0
M  V30 6 C 5.256375 -1.882340 -0.190394 0
M  V30 7 C 4.335161 -0.904213 -0.488373 0
M  V30 8 C 3.006417 -0.907327 -0.041057 0
M  V30 9 C 2.286056 0.270067 -0.511269 0
M  V30 10 C 2.740410 1.463530 0.372468 0
M  V30 11 N 4.171555 1.670178 0.238070 0
M  V30 12 N 0.846799 0.227049 -0.382334 0
M  V30 13 C -0.094716 0.397399 0.663607 0
M  V30 14 N 0.251994 0.721786 1.912018 0
M  V30 15 C -0.634096 0.911291 2.891234 0
M  V30 16 N -1.953207 0.784884 2.677428 0
M  V30 17 C -2.348800 0.458727 1.434223 0
M  V30 18 C -3.712252 0.307909 1.140167 0
M  V30 19 C -4.590111 0.542362 2.276786 0
M  V30 20 N -6.009968 0.384035 2.004222 0
M  V30 21 O -5.256971 0.759183 3.292552 0
M  V30 22 C -4.234507 -0.024653 -0.089769 0
M  V30 23 C -3.305454 -0.214878 -1.081540 0
M  V30 24 C -1.968688 -0.065239 -0.787107 0
M  V30 25 C -1.443318 0.261969 0.420472 0
M  V30 26 H -0.148441 -2.770996 2.301926 0
M  V30 27 H 0.970337 -3.997341 1.478019 0
M  V30 28 H 1.508726 -3.073258 2.888754 0
M  V30 29 H 3.178629 -3.779706 1.682983 0
M  V30 30 H 5.489033 -3.790001 0.914185 0
M  V30 31 H 6.285914 -1.914876 -0.516170 0
M  V30 32 H 4.809057 -0.140941 -1.127152 0
M  V30 33 H 2.602954 0.560850 -1.532137 0
M  V30 34 H 2.450334 1.255490 1.404353 0
M  V30 35 H 2.213654 2.374636 0.038743 0
M  V30 36 H 4.349408 2.277647 -0.587455 0
M  V30 37 H 4.528238 2.176638 1.076616 0
M  V30 38 H 0.494178 0.005794 -1.337943 0
M  V30 39 H -0.367665 1.174978 3.909910 0
M  V30 40 H -6.762456 -0.170400 1.492128 0
M  V30 41 H -6.683413 -0.232944 1.450665 0
M  V30 42 H -5.285888 -0.118349 -0.226102 0
M  V30 43 H -3.699618 -0.479883 -2.065355 0
M  V30 44 H -1.358074 -0.240166 -1.638774 0
M  V30 END ATOM
M  V30 BEGIN BOND
M  V30 1 1 1 2
M  V30 2 1 2 3
M  V30 3 2 3 4
M  V30 4 1 4 5
M  V30 5 2 5 6
M  V30 6 1 6 7
M  V30 7 2 7 8
M  V30 8 1 8 9
M  V30 9 1 9 10
M  V30 10 1 10 11
M  V30 11 1 9 12
M  V30 12 1 12 13
M  V30 13 2 13 14
M  V30 14 1 14 15
M  V30 15 2 15 16
M  V30 16 1 16 17
M  V30 17 2 17 18
M  V30 18 1 18 19
M  V30 19 1 19 20
M  V30 20 2 19 21
M  V30 21 1 18 22
M  V30 22 2 22 23
M  V30 23 1 23 24
M  V30 24 2 24 25
M  V30 25 1 8 3
M  V30 26 1 25 13
M  V30 27 1 25 17
M  V30 28 1 1 26
M  V30 29 1 1 27
M  V30 30 1 1 28
M  V30 31 1 4 29
M  V30 32 1 5 30
M  V30 33 1 6 31
M  V30 34 1 7 32
M  V30 35 1 9 33
M  V30 36 1 10 34
M  V30 37 1 10 35
M  V30 38 1 11 36
M  V30 39 1 11 37
M  V30 40 1 12 38
M  V30 41 1 15 39
M  V30 42 1 20 40
M  V30 43 1 20 41
M  V30 44 1 22 42
M  V30 45 1 23 43
M  V30 46 1 24 44
M  V30 END BOND
M  V30 END CTAB
M  END
>  <Dataset>  (736) 
ChEMBL_Kinases

>  <Ligand_Instance>  (736) 
nan

>  <PDB_ID>  (736) 
nan

>  <Standardized_SMILES>  (736) 
COc1ccccc1C(CN)Nc1ncnc2c(C(N)=O)cccc12

>  <Name>  (736) 
nan

>  <Pocket>  (736) 
nan

>  <ATP_Site>  (736) 
nan

>  <Peripheral>  (736) 
nan

>  <Num_H_Atoms_ProtBoundConf>  (736) 
nan

>  <Num_Resolved_Atoms>  (736) 
nan

>  <Num_Not_Resolved_Atoms>  (736) 
nan

$$$$
CHEMBL3675330
     RDKit          3D

  0  0  0  0  0  0  0  0  0  0999 V3000
M  V30 BEGIN CTAB
M  V30 COUNTS 49 51 0 0 0
M  V30 BEGIN ATOM
M  V30 1 C 1.319992 -0.880907 -2.966678 0
M  V30 2 O 1.451253 -0.784624 -1.564877 0
M  V30 3 C 2.675328 -0.871974 -0.976647 0
M  V30 4 C 3.809792 -1.059067 -1.773498 0
M  V30 5 C 5.060415 -1.152667 -1.223386 0
M  V30 6 C 5.201494 -1.061021 0.134760 0
M  V30 7 C 4.068585 -0.879401 0.863841 0
M  V30 8 C 2.748914 -0.771994 0.392464 0
M  V30 9 C 1.653824 -0.572373 1.339730 0
M  V30 10 C 1.510400 0.904185 1.595564 0
M  V30 11 N 1.213141 1.682051 0.415959 0
M  V30 12 C 1.110902 3.063753 0.824529 0
M  V30 13 C 0.824139 4.253766 0.010810 0
M  V30 14 O 1.263184 3.481543 2.023217 0
M  V30 15 N 0.432840 -1.274874 1.072078 0
M  V30 16 C -0.709431 -1.188874 1.875829 0
M  V30 17 N -0.808305 -0.462843 2.982552 0
M  V30 18 C -1.853893 -0.344472 3.785645 0
M  V30 19 N -2.979403 -1.013348 3.501881 0
M  V30 20 C -3.001907 -1.785923 2.401353 0
M  V30 21 C -4.169561 -2.465886 2.125771 0
M  V30 22 C -5.327151 -2.333708 3.016789 0
M  V30 23 N -6.519292 -3.052852 2.700995 0
M  V30 24 O -5.225255 -1.590907 4.026367 0
M  V30 25 C -4.229409 -3.267374 1.004618 0
M  V30 26 C -3.133795 -3.386135 0.170376 0
M  V30 27 C -1.998125 -2.678933 0.504676 0
M  V30 28 C -1.880056 -1.867767 1.604741 0
M  V30 29 H 1.742378 0.056384 -3.385305 0
M  V30 30 H 0.251864 -0.894890 -3.272995 0
M  V30 31 H 1.789099 -1.794232 -3.375228 0
M  V30 32 H 3.674750 -1.130210 -2.863443 0
M  V30 33 H 5.893032 -1.296739 -1.893391 0
M  V30 34 H 6.162904 -1.129097 0.607679 0
M  V30 35 H 4.203177 -0.808307 1.949531 0
M  V30 36 H 2.046593 -0.974684 2.335899 0
M  V30 37 H 0.817437 1.146587 2.435447 0
M  V30 38 H 2.496825 1.297235 1.989442 0
M  V30 39 H 1.033955 1.709809 -0.606582 0
M  V30 40 H -0.037161 4.827206 0.391906 0
M  V30 41 H 1.719620 4.918105 0.049147 0
M  V30 42 H 0.674591 3.991393 -1.075248 0
M  V30 43 H 0.511184 -1.855739 0.215298 0
M  V30 44 H -1.674929 0.316739 4.630826 0
M  V30 45 H -6.836433 -3.556229 3.577835 0
M  V30 46 H -6.859343 -2.968450 1.718416 0
M  V30 47 H -5.158743 -3.783063 0.822185 0
M  V30 48 H -3.195149 -4.022168 -0.711017 0
M  V30 49 H -1.171370 -2.794477 -0.164260 0
M  V30 END ATOM
M  V30 BEGIN BOND
M  V30 1 1 1 2
M  V30 2 1 2 3
M  V30 3 2 3 4
M  V30 4 1 4 5
M  V30 5 2 5 6
M  V30 6 1 6 7
M  V30 7 2 7 8
M  V30 8 1 8 9
M  V30 9 1 9 10
M  V30 10 1 10 11
M  V30 11 1 11 12
M  V30 12 1 12 13
M  V30 13 2 12 14
M  V30 14 1 9 15
M  V30 15 1 15 16
M  V30 16 2 16 17
M  V30 17 1 17 18
M  V30 18 2 18 19
M  V30 19 1 19 20
M  V30 20 2 20 21
M  V30 21 1 21 22
M  V30 22 1 22 23
M  V30 23 2 22 24
M  V30 24 1 21 25
M  V30 25 2 25 26
M  V30 26 1 26 27
M  V30 27 2 27 28
M  V30 28 1 8 3
M  V30 29 1 28 16
M  V30 30 1 28 20
M  V30 31 1 1 29
M  V30 32 1 1 30
M  V30 33 1 1 31
M  V30 34 1 4 32
M  V30 35 1 5 33
M  V30 36 1 6 34
M  V30 37 1 7 35
M  V30 38 1 9 36
M  V30 39 1 10 37
M  V30 40 1 10 38
M  V30 41 1 11 39
M  V30 42 1 13 40
M  V30 43 1 13 41
M  V30 44 1 13 42
M  V30 45 1 15 43
M  V30 46 1 18 44
M  V30 47 1 23 45
M  V30 48 1 23 46
M  V30 49 1 25 47
M  V30 50 1 26 48
M  V30 51 1 27 49
M  V30 END BOND
M  V30 END CTAB
M  END
>  <Dataset>  (737) 
ChEMBL_Kinases

>  <Ligand_Instance>  (737) 
nan

>  <PDB_ID>  (737) 
nan

>  <Standardized_SMILES>  (737) 
COc1ccccc1C(CNC(C)=O)Nc1ncnc2c(C(N)=O)cccc12

>  <Name>  (737) 
nan

>  <Pocket>  (737) 
nan

>  <ATP_Site>  (737) 
nan

>  <Peripheral>  (737) 
nan

>  <Num_H_Atoms_ProtBoundConf>  (737) 
nan

>  <Num_Resolved_Atoms>  (737) 
nan

>  <Num_Not_Resolved_Atoms>  (737) 
nan

$$$$
CHEMBL5086901
     RDKit          3D

  0  0  0  0  0  0  0  0  0  0999 V3000
M  V30 BEGIN CTAB
M  V30 COUNTS 50 53 0 0 0
M  V30 BEGIN ATOM
M  V30 1 C 1.631653 -1.723332 -3.742764 0
M  V30 2 C 2.366430 -0.964223 -2.697713 0
M  V30 3 N 3.675923 -0.665753 -2.749944 0
M  V30 4 N 4.034551 0.015410 -1.675660 0
M  V30 5 C 5.363304 0.527502 -1.348801 0
M  V30 6 C 6.169854 -0.469954 -0.566828 0
M  V30 7 F 7.413436 0.122827 -0.311531 0
M  V30 8 F 6.438903 -1.584664 -1.331055 0
M  V30 9 F 5.593400 -0.786269 0.638967 0
M  V30 10 C 2.924737 0.149198 -0.929030 0
M  V30 11 C 1.828798 -0.446487 -1.513490 0
M  V30 12 N 0.479779 -0.545448 -1.081126 0
M  V30 13 C 0.018652 0.012683 0.141985 0
M  V30 14 N 0.787529 0.684295 1.014390 0
M  V30 15 C 0.269764 1.191758 2.172153 0
M  V30 16 C -1.085716 1.024366 2.482911 0
M  V30 17 C -1.378599 1.616569 3.785597 0
M  V30 18 C -0.684036 0.858238 4.936865 0
M  V30 19 C -2.187919 1.013599 4.839570 0
M  V30 20 C -1.856157 0.335313 1.576400 0
M  V30 21 N -3.229275 0.245818 1.901025 0
M  V30 22 C -4.230761 -0.442643 1.127546 0
M  V30 23 C -4.235541 -1.925507 1.270021 0
M  V30 24 C -2.973480 -2.580385 0.901996 0
M  V30 25 C -2.536605 -3.053185 -0.324755 0
M  V30 26 N -1.304702 -3.553703 -0.060044 0
M  V30 27 C -0.987172 -3.406194 1.244828 0
M  V30 28 N -2.028006 -2.797778 1.850908 0
M  V30 29 N -1.269987 -0.118728 0.486180 0
M  V30 30 H 0.576521 -1.876267 -3.432159 0
M  V30 31 H 1.736194 -1.244430 -4.741230 0
M  V30 32 H 2.069282 -2.761093 -3.809020 0
M  V30 33 H 5.943963 0.752209 -2.275567 0
M  V30 34 H 5.215209 1.445846 -0.760533 0
M  V30 35 H 2.928245 0.667398 0.010430 0
M  V30 36 H -0.186203 -1.047843 -1.691571 0
M  V30 37 H 1.038433 1.700892 2.749139 0
M  V30 38 H -1.184246 2.714505 3.840481 0
M  V30 39 H -0.324070 -0.167939 4.745127 0
M  V30 40 H -0.100791 1.433414 5.670455 0
M  V30 41 H -2.565759 1.727532 5.629251 0
M  V30 42 H -2.791975 0.109316 4.792134 0
M  V30 43 H -3.656282 0.681610 2.732355 0
M  V30 44 H -4.068998 -0.250710 0.015852 0
M  V30 45 H -5.258937 -0.019045 1.287224 0
M  V30 46 H -4.554548 -2.202408 2.320084 0
M  V30 47 H -5.010694 -2.305758 0.542161 0
M  V30 48 H -3.143888 -2.971157 -1.191797 0
M  V30 49 H -0.754252 -3.982482 -0.859071 0
M  V30 50 H -0.014441 -3.778353 1.556918 0
M  V30 END ATOM
M  V30 BEGIN BOND
M  V30 1 1 1 2
M  V30 2 2 2 3
M  V30 3 1 3 4
M  V30 4 1 4 5
M  V30 5 1 5 6
M  V30 6 1 6 7
M  V30 7 1 6 8
M  V30 8 1 6 9
M  V30 9 1 4 10
M  V30 10 2 10 11
M  V30 11 1 11 12
M  V30 12 1 12 13
M  V30 13 2 13 14
M  V30 14 1 14 15
M  V30 15 2 15 16
M  V30 16 1 16 17
M  V30 17 1 17 18
M  V30 18 1 18 19
M  V30 19 1 16 20
M  V30 20 1 20 21
M  V30 21 1 21 22
M  V30 22 1 22 23
M  V30 23 1 23 24
M  V30 24 2 24 25
M  V30 25 1 25 26
M  V30 26 1 26 27
M  V30 27 2 27 28
M  V30 28 2 20 29
M  V30 29 1 11 2
M  V30 30 1 29 13
M  V30 31 1 19 17
M  V30 32 1 28 24
M  V30 33 1 1 30
M  V30 34 1 1 31
M  V30 35 1 1 32
M  V30 36 1 5 33
M  V30 37 1 5 34
M  V30 38 1 10 35
M  V30 39 1 12 36
M  V30 40 1 15 37
M  V30 41 1 17 38
M  V30 42 1 18 39
M  V30 43 1 18 40
M  V30 44 1 19 41
M  V30 45 1 19 42
M  V30 46 1 21 43
M  V30 47 1 22 44
M  V30 48 1 22 45
M  V30 49 1 23 46
M  V30 50 1 23 47
M  V30 51 1 25 48
M  V30 52 1 26 49
M  V30 53 1 27 50
M  V30 END BOND
M  V30 END CTAB
M  END
>  <Dataset>  (738) 
ChEMBL_Kinases

>  <Ligand_Instance>  (738) 
nan

>  <PDB_ID>  (738) 
nan

>  <Standardized_SMILES>  (738) 
Cc1nn(CC(F)(F)F)cc1Nc1ncc(C2CC2)c(NCCc2c[nH]cn2)n1

>  <Name>  (738) 
nan

>  <Pocket>  (738) 
nan

>  <ATP_Site>  (738) 
nan

>  <Peripheral>  (738) 
nan

>  <Num_H_Atoms_ProtBoundConf>  (738) 
nan

>  <Num_Resolved_Atoms>  (738) 
nan

>  <Num_Not_Resolved_Atoms>  (738) 
nan

$$$$
CHEMBL5087022
     RDKit          3D

  0  0  0  0  0  0  0  0  0  0999 V3000
M  V30 BEGIN CTAB
M  V30 COUNTS 45 47 0 0 0
M  V30 BEGIN ATOM
M  V30 1 C 0.473357 -2.717084 2.621082 0
M  V30 2 O 1.072479 -2.255380 1.429515 0
M  V30 3 C 2.431439 -1.990556 1.365363 0
M  V30 4 C 3.227874 -2.179774 2.490714 0
M  V30 5 C 4.572247 -1.897170 2.356503 0
M  V30 6 F 5.386118 -2.068357 3.434744 0
M  V30 7 C 5.139954 -1.454695 1.206036 0
M  V30 8 C 4.383585 -1.255207 0.069110 0
M  V30 9 C 3.022277 -1.536527 0.191191 0
M  V30 10 C 2.136712 -1.342552 -0.977621 0
M  V30 11 C 1.551038 -0.074173 -1.096055 0
M  V30 12 C 0.683759 0.295906 -2.121751 0
M  V30 13 N 0.208137 1.637398 -2.059798 0
M  V30 14 C -0.587998 2.009185 -0.940889 0
M  V30 15 C -0.925426 1.142978 0.078133 0
M  V30 16 C -1.673944 1.472355 1.183405 0
M  V30 17 C -1.996648 0.469831 2.238747 0
M  V30 18 S -3.573828 -0.225949 1.829402 0
M  V30 19 C -3.943232 -1.435343 3.093576 0
M  V30 20 O -4.601231 0.851689 1.915020 0
M  V30 21 O -3.590362 -0.877962 0.503575 0
M  V30 22 C -2.133677 2.754668 1.306705 0
M  V30 23 C -1.807995 3.634530 0.298635 0
M  V30 24 N -1.068788 3.252377 -0.763178 0
M  V30 25 N 0.410872 -0.662681 -3.049779 0
M  V30 26 C 0.970551 -1.865048 -2.930290 0
M  V30 27 C 1.823240 -2.284833 -1.954106 0
M  V30 28 F 2.406467 -3.477609 -1.794465 0
M  V30 29 H 0.991106 -3.576433 3.063162 0
M  V30 30 H 0.450030 -1.867842 3.353614 0
M  V30 31 H -0.584306 -2.998850 2.441726 0
M  V30 32 H 2.814855 -2.526270 3.413459 0
M  V30 33 H 6.177683 -1.243513 1.119840 0
M  V30 34 H 4.710219 -0.909053 -0.905361 0
M  V30 35 H 1.800803 0.667462 -0.319378 0
M  V30 36 H 0.394032 2.367077 -2.760840 0
M  V30 37 H -0.599512 0.114437 0.046659 0
M  V30 38 H -1.956649 0.875950 3.246589 0
M  V30 39 H -1.183798 -0.301314 2.171435 0
M  V30 40 H -3.648135 -0.983779 4.059562 0
M  V30 41 H -3.356902 -2.377585 2.884433 0
M  V30 42 H -5.019444 -1.640557 3.128514 0
M  V30 43 H -2.724304 3.077909 2.150644 0
M  V30 44 H -2.170011 4.649471 0.393149 0
M  V30 45 H 0.736190 -2.620126 -3.690586 0
M  V30 END ATOM
M  V30 BEGIN BOND
M  V30 1 1 1 2
M  V30 2 1 2 3
M  V30 3 2 3 4
M  V30 4 1 4 5
M  V30 5 1 5 6
M  V30 6 2 5 7
M  V30 7 1 7 8
M  V30 8 2 8 9
M  V30 9 1 9 10
M  V30 10 2 10 11
M  V30 11 1 11 12
M  V30 12 1 12 13
M  V30 13 1 13 14
M  V30 14 2 14 15
M  V30 15 1 15 16
M  V30 16 1 16 17
M  V30 17 1 17 18
M  V30 18 1 18 19
M  V30 19 2 18 20
M  V30 20 2 18 21
M  V30 21 2 16 22
M  V30 22 1 22 23
M  V30 23 2 23 24
M  V30 24 2 12 25
M  V30 25 1 25 26
M  V30 26 2 26 27
M  V30 27 1 27 28
M  V30 28 1 9 3
M  V30 29 1 27 10
M  V30 30 1 24 14
M  V30 31 1 1 29
M  V30 32 1 1 30
M  V30 33 1 1 31
M  V30 34 1 4 32
M  V30 35 1 7 33
M  V30 36 1 8 34
M  V30 37 1 11 35
M  V30 38 1 13 36
M  V30 39 1 15 37
M  V30 40 1 17 38
M  V30 41 1 17 39
M  V30 42 1 19 40
M  V30 43 1 19 41
M  V30 44 1 19 42
M  V30 45 1 22 43
M  V30 46 1 23 44
M  V30 47 1 26 45
M  V30 END BOND
M  V30 END CTAB
M  END
>  <Dataset>  (739) 
ChEMBL_Kinases

>  <Ligand_Instance>  (739) 
nan

>  <PDB_ID>  (739) 
nan

>  <Standardized_SMILES>  (739) 
COc1cc(F)ccc1-c1cc(Nc2cc(CS(C)(=O)=O)ccn2)ncc1F

>  <Name>  (739) 
nan

>  <Pocket>  (739) 
nan

>  <ATP_Site>  (739) 
nan

>  <Peripheral>  (739) 
nan

>  <Num_H_Atoms_ProtBoundConf>  (739) 
nan

>  <Num_Resolved_Atoms>  (739) 
nan

>  <Num_Not_Resolved_Atoms>  (739) 
nan

$$$$
CHEMBL5087055
     RDKit          3D

  0  0  0  0  0  0  0  0  0  0999 V3000
M  V30 BEGIN CTAB
M  V30 COUNTS 58 62 0 0 0
M  V30 BEGIN ATOM
M  V30 1 C -2.144156 -5.353275 1.586699 0
M  V30 2 C -1.391901 -5.097822 0.320628 0
M  V30 3 C -0.582195 -3.999181 0.088474 0
M  V30 4 N -0.352596 -2.964683 1.025837 0
M  V30 5 C 0.337494 -1.743864 1.200483 0
M  V30 6 N 1.618775 -1.656153 1.660189 0
M  V30 7 C 2.212255 -0.460577 1.825273 0
M  V30 8 N 3.546504 -0.353870 2.299118 0
M  V30 9 C 1.470314 0.660308 1.511001 0
M  V30 10 C 1.824838 1.993078 1.599592 0
M  V30 11 C 3.045810 2.615785 2.022982 0
M  V30 12 N 4.047264 3.106795 2.357735 0
M  V30 13 C 0.749678 2.767326 1.187304 0
M  V30 14 N 0.567867 4.203882 1.121099 0
M  V30 15 C -0.346304 4.749202 2.106021 0
M  V30 16 C 0.388222 6.013529 2.521110 0
M  V30 17 C 1.095616 6.452405 1.261232 0
M  V30 18 C 1.087171 5.273694 0.303769 0 CFG=1
M  V30 19 C 2.472971 4.986717 -0.221515 0
M  V30 20 N -0.229835 1.907501 0.857065 0
M  V30 21 C -1.569488 2.092336 0.366987 0
M  V30 22 C 0.169168 0.624960 1.041194 0
M  V30 23 N -0.343794 -0.621375 0.907023 0
M  V30 24 C -0.016259 -4.046294 -1.193199 0
M  V30 25 N -0.510936 -5.177861 -1.683179 0
M  V30 26 N -1.299164 -5.788961 -0.828212 0
M  V30 27 C -2.005001 -7.038279 -1.027324 0 CFG=2
M  V30 28 C -1.137380 -7.986009 -1.834908 0
M  V30 29 C -1.460794 -7.549113 -3.245610 0
M  V30 30 O -2.810773 -7.313054 -3.206494 0
M  V30 31 C -3.177952 -6.855922 -1.961150 0
M  V30 32 H -2.519793 -6.393757 1.624294 0
M  V30 33 H -2.990398 -4.648251 1.660659 0
M  V30 34 H -1.468351 -5.271004 2.479731 0
M  V30 35 H -0.803766 -3.003325 1.979794 0
M  V30 36 H 4.461359 0.005752 1.889397 0
M  V30 37 H 3.998853 -0.609776 3.210690 0
M  V30 38 H -1.299188 5.021622 1.556417 0
M  V30 39 H -0.570667 4.103341 2.953092 0
M  V30 40 H -0.310425 6.763698 2.935021 0
M  V30 41 H 1.144356 5.686306 3.293937 0
M  V30 42 H 0.510972 7.322243 0.843599 0
M  V30 43 H 2.128753 6.786225 1.489380 0
M  V30 44 H 0.352381 5.504466 -0.487424 0
M  V30 45 H 2.578943 3.934359 -0.586237 0
M  V30 46 H 2.618692 5.621693 -1.121419 0
M  V30 47 H 3.263988 5.275761 0.487184 0
M  V30 48 H -1.758481 1.438850 -0.488739 0
M  V30 49 H -2.256096 1.895519 1.225918 0
M  V30 50 H -1.743231 3.154968 0.074531 0
M  V30 51 H 0.661349 -3.310091 -1.640601 0
M  V30 52 H -2.314699 -7.506004 -0.065348 0
M  V30 53 H -0.057573 -7.882617 -1.612173 0
M  V30 54 H -1.490176 -9.046611 -1.685354 0
M  V30 55 H -1.221426 -8.341826 -3.988961 0
M  V30 56 H -0.847924 -6.664476 -3.475013 0
M  V30 57 H -4.048398 -7.487085 -1.605358 0
M  V30 58 H -3.529868 -5.829053 -2.028978 0
M  V30 END ATOM
M  V30 BEGIN BOND
M  V30 1 1 1 2
M  V30 2 2 2 3
M  V30 3 1 3 4
M  V30 4 1 4 5
M  V30 5 2 5 6
M  V30 6 1 6 7
M  V30 7 1 7 8
M  V30 8 2 7 9
M  V30 9 1 9 10
M  V30 10 1 10 11
M  V30 11 3 11 12
M  V30 12 2 10 13
M  V30 13 1 13 14
M  V30 14 1 14 15
M  V30 15 1 15 16
M  V30 16 1 16 17
M  V30 17 1 17 18
M  V30 18 1 18 19
M  V30 19 1 13 20
M  V30 20 1 20 21
M  V30 21 1 20 22
M  V30 22 2 22 23
M  V30 23 1 3 24
M  V30 24 2 24 25
M  V30 25 1 25 26
M  V30 26 1 26 27
M  V30 27 1 27 28
M  V30 28 1 28 29
M  V30 29 1 29 30
M  V30 30 1 30 31
M  V30 31 1 26 2
M  V30 32 1 31 27
M  V30 33 1 23 5
M  V30 34 1 22 9
M  V30 35 1 18 14
M  V30 36 1 1 32
M  V30 37 1 1 33
M  V30 38 1 1 34
M  V30 39 1 4 35
M  V30 40 1 8 36
M  V30 41 1 8 37
M  V30 42 1 15 38
M  V30 43 1 15 39
M  V30 44 1 16 40
M  V30 45 1 16 41
M  V30 46 1 17 42
M  V30 47 1 17 43
M  V30 48 1 18 44 CFG=3
M  V30 49 1 19 45
M  V30 50 1 19 46
M  V30 51 1 19 47
M  V30 52 1 21 48
M  V30 53 1 21 49
M  V30 54 1 21 50
M  V30 55 1 24 51
M  V30 56 1 27 52 CFG=1
M  V30 57 1 28 53
M  V30 58 1 28 54
M  V30 59 1 29 55
M  V30 60 1 29 56
M  V30 61 1 31 57
M  V30 62 1 31 58
M  V30 END BOND
M  V30 END CTAB
M  END
>  <Dataset>  (740) 
ChEMBL_Kinases

>  <Ligand_Instance>  (740) 
nan

>  <PDB_ID>  (740) 
nan

>  <Standardized_SMILES>  (740) 
Cc1c(Nc2nc(N)c3c(C#N)c(N4CCC[C@H]4C)n(C)c3n2)cnn1[C@@H]1CCOC1

>  <Name>  (740) 
nan

>  <Pocket>  (740) 
nan

>  <ATP_Site>  (740) 
nan

>  <Peripheral>  (740) 
nan

>  <Num_H_Atoms_ProtBoundConf>  (740) 
nan

>  <Num_Resolved_Atoms>  (740) 
nan

>  <Num_Not_Resolved_Atoms>  (740) 
nan

$$$$
CHEMBL3675337
     RDKit          3D

  0  0  0  0  0  0  0  0  0  0999 V3000
M  V30 BEGIN CTAB
M  V30 COUNTS 35 37 0 0 0
M  V30 BEGIN ATOM
M  V30 1 N 1.751753 -4.713253 4.196309 0
M  V30 2 C 0.980403 -3.611750 3.733968 0
M  V30 3 O 0.376800 -3.028121 4.646756 0
M  V30 4 C 0.974828 -3.294311 2.313403 0
M  V30 5 C 1.698306 -4.036664 1.415572 0
M  V30 6 C 1.641660 -3.668620 0.066591 0
M  V30 7 C 0.862201 -2.583842 -0.271195 0
M  V30 8 C 0.129825 -1.827884 0.617158 0
M  V30 9 C -0.628743 -0.755071 0.210167 0
M  V30 10 N -0.707009 -0.363255 -1.149306 0
M  V30 11 C -1.468382 0.746023 -1.693310 0
M  V30 12 C -0.972111 2.020760 -1.140527 0
M  V30 13 C 0.098306 2.485106 -1.907246 0
M  V30 14 C 0.743010 3.682235 -1.597735 0
M  V30 15 C 0.338281 4.451139 -0.513828 0
M  V30 16 C -0.724801 3.959748 0.221865 0
M  V30 17 F -1.194899 4.624605 1.288903 0
M  V30 18 C -1.366900 2.790527 -0.067311 0
M  V30 19 N -1.280127 -0.124521 1.191977 0
M  V30 20 C -1.254389 -0.441333 2.490050 0
M  V30 21 N -0.496964 -1.500028 2.839096 0
M  V30 22 C 0.205496 -2.214053 1.936154 0
M  V30 23 H 2.593662 -5.220414 3.864825 0
M  V30 24 H 1.605314 -5.285007 5.047821 0
M  V30 25 H 2.299369 -4.880476 1.709569 0
M  V30 26 H 2.206332 -4.248246 -0.633123 0
M  V30 27 H 0.875478 -2.371368 -1.322750 0
M  V30 28 H -0.205323 -0.852241 -1.916031 0
M  V30 29 H -2.517992 0.643000 -1.269080 0
M  V30 30 H -1.580888 0.747262 -2.773057 0
M  V30 31 H 0.547397 2.022445 -2.781655 0
M  V30 32 H 1.575389 4.094271 -2.151112 0
M  V30 33 H 0.802569 5.378204 -0.236078 0
M  V30 34 H -2.190329 2.364425 0.451332 0
M  V30 35 H -1.823359 0.139255 3.211117 0
M  V30 END ATOM
M  V30 BEGIN BOND
M  V30 1 1 1 2
M  V30 2 2 2 3
M  V30 3 1 2 4
M  V30 4 2 4 5
M  V30 5 1 5 6
M  V30 6 2 6 7
M  V30 7 1 7 8
M  V30 8 2 8 9
M  V30 9 1 9 10
M  V30 10 1 10 11
M  V30 11 1 11 12
M  V30 12 2 12 13
M  V30 13 1 13 14
M  V30 14 2 14 15
M  V30 15 1 15 16
M  V30 16 1 16 17
M  V30 17 2 16 18
M  V30 18 1 9 19
M  V30 19 2 19 20
M  V30 20 1 20 21
M  V30 21 2 21 22
M  V30 22 1 22 4
M  V30 23 1 22 8
M  V30 24 1 18 12
M  V30 25 1 1 23
M  V30 26 1 1 24
M  V30 27 1 5 25
M  V30 28 1 6 26
M  V30 29 1 7 27
M  V30 30 1 10 28
M  V30 31 1 11 29
M  V30 32 1 11 30
M  V30 33 1 13 31
M  V30 34 1 14 32
M  V30 35 1 15 33
M  V30 36 1 18 34
M  V30 37 1 20 35
M  V30 END BOND
M  V30 END CTAB
M  END
>  <Dataset>  (741) 
ChEMBL_Kinases

>  <Ligand_Instance>  (741) 
nan

>  <PDB_ID>  (741) 
nan

>  <Standardized_SMILES>  (741) 
NC(=O)c1cccc2c(NCc3cccc(F)c3)ncnc12

>  <Name>  (741) 
nan

>  <Pocket>  (741) 
nan

>  <ATP_Site>  (741) 
nan

>  <Peripheral>  (741) 
nan

>  <Num_H_Atoms_ProtBoundConf>  (741) 
nan

>  <Num_Resolved_Atoms>  (741) 
nan

>  <Num_Not_Resolved_Atoms>  (741) 
nan

$$$$
CHEMBL3675341
     RDKit          3D

  0  0  0  0  0  0  0  0  0  0999 V3000
M  V30 BEGIN CTAB
M  V30 COUNTS 41 44 0 0 0
M  V30 BEGIN ATOM
M  V30 1 N 1.698904 -6.192525 0.923917 0
M  V30 2 C 2.033839 -5.217489 1.893464 0
M  V30 3 O 2.551751 -5.597843 2.950398 0
M  V30 4 C 1.760236 -3.814538 1.619041 0
M  V30 5 C 2.107070 -2.924660 2.610357 0
M  V30 6 C 1.869477 -1.584354 2.405684 0
M  V30 7 C 1.300417 -1.199706 1.229687 0
M  V30 8 C 0.924081 -2.016452 0.191825 0
M  V30 9 C 0.352417 -1.664532 -1.009930 0
M  V30 10 N 0.091321 -0.280659 -1.210165 0
M  V30 11 C -0.169230 1.093017 -1.412128 0
M  V30 12 C 0.157736 1.991726 -0.266411 0
M  V30 13 C 1.290941 2.814753 -0.186762 0
M  V30 14 C 1.515613 3.614988 0.910268 0
M  V30 15 C 0.638713 3.642039 1.974846 0
M  V30 16 C -0.483049 2.845398 1.926582 0
M  V30 17 C -1.382982 2.862068 2.996957 0
M  V30 18 C -2.519757 2.060897 2.955256 0
M  V30 19 C -2.751354 1.251910 1.851832 0
M  V30 20 C -1.837908 1.280142 0.841654 0
M  V30 21 C -0.709003 2.036282 0.816329 0
M  V30 22 N 0.102560 -2.690874 -1.831768 0
M  V30 23 C 0.344052 -3.976437 -1.608490 0
M  V30 24 N 0.891354 -4.254308 -0.440695 0
M  V30 25 C 1.191887 -3.337206 0.467346 0
M  V30 26 H 0.738293 -6.416669 0.527728 0
M  V30 27 H 1.816798 -6.959571 0.236587 0
M  V30 28 H 2.556267 -3.297398 3.519759 0
M  V30 29 H 2.130846 -0.865873 3.164737 0
M  V30 30 H 1.131290 -0.150727 1.095921 0
M  V30 31 H -0.301111 -0.427150 -2.200023 0
M  V30 32 H -1.178559 1.325998 -1.817624 0
M  V30 33 H 0.525491 1.497747 -2.219523 0
M  V30 34 H 1.946278 2.743384 -1.064074 0
M  V30 35 H 2.420570 4.225711 0.892000 0
M  V30 36 H 0.827050 4.279617 2.837071 0
M  V30 37 H -1.183229 3.502920 3.851645 0
M  V30 38 H -3.230726 2.060584 3.776250 0
M  V30 39 H -3.646923 0.611249 1.801579 0
M  V30 40 H -2.020976 0.650812 -0.016589 0
M  V30 41 H 0.052386 -4.618322 -2.429459 0
M  V30 END ATOM
M  V30 BEGIN BOND
M  V30 1 1 1 2
M  V30 2 2 2 3
M  V30 3 1 2 4
M  V30 4 2 4 5
M  V30 5 1 5 6
M  V30 6 2 6 7
M  V30 7 1 7 8
M  V30 8 2 8 9
M  V30 9 1 9 10
M  V30 10 1 10 11
M  V30 11 1 11 12
M  V30 12 2 12 13
M  V30 13 1 13 14
M  V30 14 2 14 15
M  V30 15 1 15 16
M  V30 16 2 16 17
M  V30 17 1 17 18
M  V30 18 2 18 19
M  V30 19 1 19 20
M  V30 20 2 20 21
M  V30 21 1 9 22
M  V30 22 2 22 23
M  V30 23 1 23 24
M  V30 24 2 24 25
M  V30 25 1 25 4
M  V30 26 1 25 8
M  V30 27 1 21 12
M  V30 28 1 21 16
M  V30 29 1 1 26
M  V30 30 1 1 27
M  V30 31 1 5 28
M  V30 32 1 6 29
M  V30 33 1 7 30
M  V30 34 1 10 31
M  V30 35 1 11 32
M  V30 36 1 11 33
M  V30 37 1 13 34
M  V30 38 1 14 35
M  V30 39 1 15 36
M  V30 40 1 17 37
M  V30 41 1 18 38
M  V30 42 1 19 39
M  V30 43 1 20 40
M  V30 44 1 23 41
M  V30 END BOND
M  V30 END CTAB
M  END
>  <Dataset>  (742) 
ChEMBL_Kinases

>  <Ligand_Instance>  (742) 
nan

>  <PDB_ID>  (742) 
nan

>  <Standardized_SMILES>  (742) 
NC(=O)c1cccc2c(NCc3cccc4ccccc34)ncnc12

>  <Name>  (742) 
nan

>  <Pocket>  (742) 
nan

>  <ATP_Site>  (742) 
nan

>  <Peripheral>  (742) 
nan

>  <Num_H_Atoms_ProtBoundConf>  (742) 
nan

>  <Num_Resolved_Atoms>  (742) 
nan

>  <Num_Not_Resolved_Atoms>  (742) 
nan

$$$$
CHEMBL3675352
     RDKit          3D

  0  0  0  0  0  0  0  0  0  0999 V3000
M  V30 BEGIN CTAB
M  V30 COUNTS 38 40 0 0 0
M  V30 BEGIN ATOM
M  V30 1 N -0.431016 -4.944209 3.378882 0
M  V30 2 C 0.916050 -5.042696 2.884668 0
M  V30 3 O 1.626145 -5.987834 3.298921 0
M  V30 4 C 1.410616 -4.053589 1.930786 0
M  V30 5 C 2.709936 -4.171543 1.480212 0
M  V30 6 C 3.172986 -3.223137 0.573605 0
M  V30 7 C 2.325038 -2.220760 0.171595 0
M  V30 8 C 1.051309 -2.158420 0.654044 0
M  V30 9 C 0.204163 -1.150827 0.249933 0
M  V30 10 N 0.527407 -0.117458 -0.645192 0
M  V30 11 C 0.327359 1.060268 -1.437985 0
M  V30 12 C -0.071517 2.208862 -0.579666 0
M  V30 13 C 1.062671 2.826582 -0.029166 0
M  V30 14 C 0.958468 3.870129 0.881119 0
M  V30 15 C -0.274457 4.341482 1.280746 0
M  V30 16 C -1.380080 3.727250 0.731352 0
M  V30 17 C -1.288646 2.691302 -0.174104 0
M  V30 18 C -2.443181 2.080798 -0.834232 0
M  V30 19 F -2.630661 0.755861 -0.701228 0
M  V30 20 F -2.513887 2.434184 -2.182101 0
M  V30 21 F -3.573128 2.696270 -0.272757 0
M  V30 22 N -1.006058 -1.179603 0.775522 0
M  V30 23 C -1.552557 -2.010312 1.626980 0
M  V30 24 N -0.724692 -2.960942 1.996560 0
M  V30 25 C 0.521638 -3.049067 1.544010 0
M  V30 26 H -1.337057 -4.699267 3.796162 0
M  V30 27 H -1.010442 -5.779704 3.164988 0
M  V30 28 H 3.257491 -5.000187 1.876744 0
M  V30 29 H 4.206414 -3.397301 0.276624 0
M  V30 30 H 2.761285 -1.545739 -0.518966 0
M  V30 31 H 1.516598 -0.240298 -0.938937 0
M  V30 32 H 1.136746 1.392190 -2.080581 0
M  V30 33 H -0.561825 0.781015 -2.107509 0
M  V30 34 H 2.103745 2.569874 -0.241508 0
M  V30 35 H 1.810794 4.366502 1.321651 0
M  V30 36 H -0.382850 5.150661 1.987842 0
M  V30 37 H -2.375446 4.034730 0.991205 0
M  V30 38 H -2.574638 -1.876197 1.951960 0
M  V30 END ATOM
M  V30 BEGIN BOND
M  V30 1 1 1 2
M  V30 2 2 2 3
M  V30 3 1 2 4
M  V30 4 2 4 5
M  V30 5 1 5 6
M  V30 6 2 6 7
M  V30 7 1 7 8
M  V30 8 2 8 9
M  V30 9 1 9 10
M  V30 10 1 10 11
M  V30 11 1 11 12
M  V30 12 2 12 13
M  V30 13 1 13 14
M  V30 14 2 14 15
M  V30 15 1 15 16
M  V30 16 2 16 17
M  V30 17 1 17 18
M  V30 18 1 18 19
M  V30 19 1 18 20
M  V30 20 1 18 21
M  V30 21 1 9 22
M  V30 22 2 22 23
M  V30 23 1 23 24
M  V30 24 2 24 25
M  V30 25 1 25 4
M  V30 26 1 25 8
M  V30 27 1 17 12
M  V30 28 1 1 26
M  V30 29 1 1 27
M  V30 30 1 5 28
M  V30 31 1 6 29
M  V30 32 1 7 30
M  V30 33 1 10 31
M  V30 34 1 11 32
M  V30 35 1 11 33
M  V30 36 1 13 34
M  V30 37 1 14 35
M  V30 38 1 15 36
M  V30 39 1 16 37
M  V30 40 1 23 38
M  V30 END BOND
M  V30 END CTAB
M  END
>  <Dataset>  (743) 
ChEMBL_Kinases

>  <Ligand_Instance>  (743) 
nan

>  <PDB_ID>  (743) 
nan

>  <Standardized_SMILES>  (743) 
NC(=O)c1cccc2c(NCc3ccccc3C(F)(F)F)ncnc12

>  <Name>  (743) 
nan

>  <Pocket>  (743) 
nan

>  <ATP_Site>  (743) 
nan

>  <Peripheral>  (743) 
nan

>  <Num_H_Atoms_ProtBoundConf>  (743) 
nan

>  <Num_Resolved_Atoms>  (743) 
nan

>  <Num_Not_Resolved_Atoms>  (743) 
nan

$$$$
CHEMBL3675353
     RDKit          3D

  0  0  0  0  0  0  0  0  0  0999 V3000
M  V30 BEGIN CTAB
M  V30 COUNTS 38 41 0 0 0
M  V30 BEGIN ATOM
M  V30 1 N -0.008719 -2.307817 5.637138 0
M  V30 2 C 1.113233 -2.893750 5.005561 0
M  V30 3 O 1.632498 -3.892861 5.581043 0
M  V30 4 C 1.678734 -2.412882 3.761888 0
M  V30 5 C 2.770716 -3.093701 3.278930 0
M  V30 6 C 3.323680 -2.638807 2.081067 0
M  V30 7 C 2.758687 -1.549885 1.452739 0
M  V30 8 C 1.674362 -0.866507 1.923573 0
M  V30 9 C 1.137613 0.220206 1.264347 0
M  V30 10 N 1.678999 0.694567 0.064143 0
M  V30 11 C 1.230339 1.814671 -0.742419 0
M  V30 12 C -0.148795 1.501544 -1.200525 0
M  V30 13 C -1.365798 1.845402 -0.653558 0
M  V30 14 C -2.547869 1.439104 -1.231275 0
M  V30 15 C -2.485344 0.677944 -2.373982 0
M  V30 16 C -1.312709 0.291762 -2.983999 0
M  V30 17 C -0.131651 0.724196 -2.366692 0
M  V30 18 O -1.594626 -0.465504 -4.112170 0
M  V30 19 C -2.931014 -0.905575 -3.957483 0
M  V30 20 O -3.492968 0.127660 -3.172228 0
M  V30 21 N 0.083688 0.739155 1.895097 0
M  V30 22 C -0.446560 0.301413 3.045574 0
M  V30 23 N 0.091450 -0.748352 3.659269 0
M  V30 24 C 1.157470 -1.337870 3.098302 0
M  V30 25 H -0.820369 -2.664446 5.055391 0
M  V30 26 H -0.132440 -1.678762 6.457904 0
M  V30 27 H 3.201999 -3.945354 3.782927 0
M  V30 28 H 4.178664 -3.174379 1.705921 0
M  V30 29 H 3.249586 -1.282254 0.551613 0
M  V30 30 H 2.489506 0.259862 -0.371730 0
M  V30 31 H 1.887330 2.084982 -1.568836 0
M  V30 32 H 1.162445 2.695857 -0.045609 0
M  V30 33 H -1.283771 2.451366 0.236331 0
M  V30 34 H -3.467309 1.743407 -0.750709 0
M  V30 35 H 0.780571 0.393998 -2.886517 0
M  V30 36 H -3.397593 -0.988567 -4.960135 0
M  V30 37 H -2.932598 -1.880887 -3.430463 0
M  V30 38 H -1.306719 0.899931 3.351754 0
M  V30 END ATOM
M  V30 BEGIN BOND
M  V30 1 1 1 2
M  V30 2 2 2 3
M  V30 3 1 2 4
M  V30 4 2 4 5
M  V30 5 1 5 6
M  V30 6 2 6 7
M  V30 7 1 7 8
M  V30 8 2 8 9
M  V30 9 1 9 10
M  V30 10 1 10 11
M  V30 11 1 11 12
M  V30 12 2 12 13
M  V30 13 1 13 14
M  V30 14 2 14 15
M  V30 15 1 15 16
M  V30 16 2 16 17
M  V30 17 1 16 18
M  V30 18 1 18 19
M  V30 19 1 19 20
M  V30 20 1 9 21
M  V30 21 2 21 22
M  V30 22 1 22 23
M  V30 23 2 23 24
M  V30 24 1 24 4
M  V30 25 1 24 8
M  V30 26 1 17 12
M  V30 27 1 20 15
M  V30 28 1 1 25
M  V30 29 1 1 26
M  V30 30 1 5 27
M  V30 31 1 6 28
M  V30 32 1 7 29
M  V30 33 1 10 30
M  V30 34 1 11 31
M  V30 35 1 11 32
M  V30 36 1 13 33
M  V30 37 1 14 34
M  V30 38 1 17 35
M  V30 39 1 19 36
M  V30 40 1 19 37
M  V30 41 1 22 38
M  V30 END BOND
M  V30 END CTAB
M  END
>  <Dataset>  (744) 
ChEMBL_Kinases

>  <Ligand_Instance>  (744) 
nan

>  <PDB_ID>  (744) 
nan

>  <Standardized_SMILES>  (744) 
NC(=O)c1cccc2c(NCc3ccc4c(c3)OCO4)ncnc12

>  <Name>  (744) 
nan

>  <Pocket>  (744) 
nan

>  <ATP_Site>  (744) 
nan

>  <Peripheral>  (744) 
nan

>  <Num_H_Atoms_ProtBoundConf>  (744) 
nan

>  <Num_Resolved_Atoms>  (744) 
nan

>  <Num_Not_Resolved_Atoms>  (744) 
nan

$$$$
CHEMBL3675325
     RDKit          3D

  0  0  0  0  0  0  0  0  0  0999 V3000
M  V30 BEGIN CTAB
M  V30 COUNTS 57 59 0 0 0
M  V30 BEGIN ATOM
M  V30 1 N 4.034563 0.577423 -0.555892 0
M  V30 2 C 3.018478 -0.247385 -1.113230 0
M  V30 3 O 3.216845 -0.887282 -2.177294 0
M  V30 4 C 1.740028 -0.366836 -0.469405 0
M  V30 5 C 1.475821 0.312364 0.694434 0
M  V30 6 C 0.306522 0.296885 1.419065 0
M  V30 7 O -0.141859 0.861952 2.529156 0
M  V30 8 C 0.232859 1.714485 3.495402 0
M  V30 9 C 0.514490 3.146256 3.244185 0
M  V30 10 C 1.583525 3.412642 2.269237 0
M  V30 11 N 1.862415 4.836037 2.093632 0
M  V30 12 C 2.892864 5.102525 1.137606 0
M  V30 13 C 2.496129 4.770120 -0.284784 0
M  V30 14 O 3.579560 5.069670 -1.136960 0
M  V30 15 C -0.683734 -0.527156 0.846823 0
M  V30 16 C -0.510649 -1.259615 -0.335827 0
M  V30 17 C -1.510450 -2.056121 -0.854678 0
M  V30 18 N -2.765825 -2.194866 -0.270733 0
M  V30 19 C -3.860627 -2.983142 -0.704730 0
M  V30 20 C -3.466023 -4.424789 -0.653240 0
M  V30 21 C -3.697617 -4.903194 0.642190 0
M  V30 22 C -3.421944 -6.230556 0.970085 0
M  V30 23 C -2.910938 -7.099199 0.009096 0
M  V30 24 C -2.612814 -8.507925 0.338946 0
M  V30 25 F -3.604013 -9.052541 1.145052 0
M  V30 26 F -2.532189 -9.213115 -0.846757 0
M  V30 27 F -1.393094 -8.648557 0.992636 0
M  V30 28 C -2.697038 -6.592185 -1.252718 0
M  V30 29 C -2.966351 -5.282658 -1.586865 0
M  V30 30 N -1.176697 -2.689824 -1.989151 0
M  V30 31 C 0.014567 -2.585028 -2.598388 0
M  V30 32 N 0.990080 -1.812186 -2.098128 0
M  V30 33 C 0.716482 -1.147167 -0.956899 0
M  V30 34 H 4.623732 0.500558 0.294258 0
M  V30 35 H 4.302194 1.461213 -1.041472 0
M  V30 36 H 2.238504 0.910732 1.116911 0
M  V30 37 H -0.469790 1.658837 4.419041 0
M  V30 38 H 1.196855 1.325234 4.008523 0
M  V30 39 H 0.879953 3.563456 4.239813 0
M  V30 40 H -0.416984 3.743560 3.071572 0
M  V30 41 H 1.343044 3.079435 1.231182 0
M  V30 42 H 2.513740 2.908889 2.566742 0
M  V30 43 H 1.037435 5.434053 2.056840 0
M  V30 44 H 3.130129 6.171163 1.178649 0
M  V30 45 H 3.803884 4.543952 1.350913 0
M  V30 46 H 2.267552 3.722196 -0.465717 0
M  V30 47 H 1.669783 5.467588 -0.587223 0
M  V30 48 H 3.347024 5.741511 -1.817870 0
M  V30 49 H -1.638752 -0.643727 1.287854 0
M  V30 50 H -3.080981 -1.719878 0.600330 0
M  V30 51 H -4.837526 -2.800801 -0.273382 0
M  V30 52 H -3.975055 -2.770103 -1.817650 0
M  V30 53 H -4.085871 -4.374315 1.502580 0
M  V30 54 H -3.574602 -6.671205 1.947396 0
M  V30 55 H -2.302412 -7.210053 -2.047545 0
M  V30 56 H -2.839443 -4.804538 -2.544258 0
M  V30 57 H 0.206235 -3.140540 -3.528261 0
M  V30 END ATOM
M  V30 BEGIN BOND
M  V30 1 1 1 2
M  V30 2 2 2 3
M  V30 3 1 2 4
M  V30 4 2 4 5
M  V30 5 1 5 6
M  V30 6 1 6 7
M  V30 7 1 7 8
M  V30 8 1 8 9
M  V30 9 1 9 10
M  V30 10 1 10 11
M  V30 11 1 11 12
M  V30 12 1 12 13
M  V30 13 1 13 14
M  V30 14 2 6 15
M  V30 15 1 15 16
M  V30 16 2 16 17
M  V30 17 1 17 18
M  V30 18 1 18 19
M  V30 19 1 19 20
M  V30 20 2 20 21
M  V30 21 1 21 22
M  V30 22 2 22 23
M  V30 23 1 23 24
M  V30 24 1 24 25
M  V30 25 1 24 26
M  V30 26 1 24 27
M  V30 27 1 23 28
M  V30 28 2 28 29
M  V30 29 1 17 30
M  V30 30 2 30 31
M  V30 31 1 31 32
M  V30 32 2 32 33
M  V30 33 1 33 4
M  V30 34 1 33 16
M  V30 35 1 29 20
M  V30 36 1 1 34
M  V30 37 1 1 35
M  V30 38 1 5 36
M  V30 39 1 8 37
M  V30 40 1 8 38
M  V30 41 1 9 39
M  V30 42 1 9 40
M  V30 43 1 10 41
M  V30 44 1 10 42
M  V30 45 1 11 43
M  V30 46 1 12 44
M  V30 47 1 12 45
M  V30 48 1 13 46
M  V30 49 1 13 47
M  V30 50 1 14 48
M  V30 51 1 15 49
M  V30 52 1 18 50
M  V30 53 1 19 51
M  V30 54 1 19 52
M  V30 55 1 21 53
M  V30 56 1 22 54
M  V30 57 1 28 55
M  V30 58 1 29 56
M  V30 59 1 31 57
M  V30 END BOND
M  V30 END CTAB
M  END
>  <Dataset>  (745) 
ChEMBL_Kinases

>  <Ligand_Instance>  (745) 
nan

>  <PDB_ID>  (745) 
nan

>  <Standardized_SMILES>  (745) 
NC(=O)c1cc(OCCCNCCO)cc2c(NCc3ccc(C(F)(F)F)cc3)ncnc12

>  <Name>  (745) 
nan

>  <Pocket>  (745) 
nan

>  <ATP_Site>  (745) 
nan

>  <Peripheral>  (745) 
nan

>  <Num_H_Atoms_ProtBoundConf>  (745) 
nan

>  <Num_Resolved_Atoms>  (745) 
nan

>  <Num_Not_Resolved_Atoms>  (745) 
nan

$$$$
CHEMBL5081888
     RDKit          3D

  0  0  0  0  0  0  0  0  0  0999 V3000
M  V30 BEGIN CTAB
M  V30 COUNTS 42 45 0 0 0
M  V30 BEGIN ATOM
M  V30 1 C -0.481445 -4.197723 -1.920390 0
M  V30 2 C 0.110338 -3.547141 -0.720165 0
M  V30 3 N -0.348435 -2.309597 -0.476456 0
M  V30 4 C 0.075213 -1.574578 0.564389 0
M  V30 5 O -0.329933 -0.303782 0.897447 0
M  V30 6 C -1.260503 0.457863 0.210960 0
M  V30 7 C -0.933614 0.762177 -1.195652 0
M  V30 8 C -1.281384 0.089636 -2.322290 0
M  V30 9 C -0.892541 0.490447 -3.581973 0
M  V30 10 C -0.114284 1.621623 -3.746593 0
M  V30 11 C 0.262024 2.334096 -2.640501 0
M  V30 12 C -0.145954 1.900979 -1.407302 0
M  V30 13 C 1.013869 -2.195897 1.354489 0
M  V30 14 C 1.663613 -1.751649 2.485860 0
M  V30 15 C 1.600711 -0.525654 3.266150 0
M  V30 16 C 2.804724 0.126953 3.561327 0
M  V30 17 C 2.944819 1.287319 4.293872 0
M  V30 18 N 1.809789 1.848540 4.773042 0
M  V30 19 C 0.606424 1.267610 4.524200 0
M  V30 20 N -0.610095 1.818131 5.004965 0
M  V30 21 C 0.495449 0.107538 3.789070 0
M  V30 22 C 2.540115 -2.744492 2.939905 0
M  V30 23 N 2.431779 -3.788740 2.099346 0
M  V30 24 C 1.527216 -3.460711 1.162081 0
M  V30 25 N 1.039269 -4.132508 0.080888 0
M  V30 26 H -0.439407 -5.297650 -1.870049 0
M  V30 27 H 0.005349 -3.870640 -2.859696 0
M  V30 28 H -1.577389 -3.940899 -1.981782 0
M  V30 29 H -2.213620 -0.138400 0.190431 0
M  V30 30 H -1.468350 1.446554 0.713984 0
M  V30 31 H -1.886306 -0.778728 -2.191167 0
M  V30 32 H -1.222686 -0.116815 -4.424893 0
M  V30 33 H 0.177518 1.913454 -4.756015 0
M  V30 34 H 0.870678 3.220411 -2.758759 0
M  V30 35 H 0.188609 2.514656 -0.565577 0
M  V30 36 H 3.729698 -0.320494 3.177213 0
M  V30 37 H 3.931614 1.698329 4.456044 0
M  V30 38 H -1.142183 1.749930 5.883479 0
M  V30 39 H -1.305738 2.461317 4.569721 0
M  V30 40 H -0.455009 -0.367634 3.592768 0
M  V30 41 H 3.226899 -2.812738 3.772735 0
M  V30 42 H 2.918048 -4.733642 2.086605 0
M  V30 END ATOM
M  V30 BEGIN BOND
M  V30 1 1 1 2
M  V30 2 2 2 3
M  V30 3 1 3 4
M  V30 4 1 4 5
M  V30 5 1 5 6
M  V30 6 1 6 7
M  V30 7 2 7 8
M  V30 8 1 8 9
M  V30 9 2 9 10
M  V30 10 1 10 11
M  V30 11 2 11 12
M  V30 12 2 4 13
M  V30 13 1 13 14
M  V30 14 1 14 15
M  V30 15 2 15 16
M  V30 16 1 16 17
M  V30 17 2 17 18
M  V30 18 1 18 19
M  V30 19 1 19 20
M  V30 20 2 19 21
M  V30 21 2 14 22
M  V30 22 1 22 23
M  V30 23 1 23 24
M  V30 24 2 24 25
M  V30 25 1 25 2
M  V30 26 1 12 7
M  V30 27 1 24 13
M  V30 28 1 21 15
M  V30 29 1 1 26
M  V30 30 1 1 27
M  V30 31 1 1 28
M  V30 32 1 6 29
M  V30 33 1 6 30
M  V30 34 1 8 31
M  V30 35 1 9 32
M  V30 36 1 10 33
M  V30 37 1 11 34
M  V30 38 1 12 35
M  V30 39 1 16 36
M  V30 40 1 17 37
M  V30 41 1 20 38
M  V30 42 1 20 39
M  V30 43 1 21 40
M  V30 44 1 22 41
M  V30 45 1 23 42
M  V30 END BOND
M  V30 END CTAB
M  END
>  <Dataset>  (746) 
ChEMBL_Kinases

>  <Ligand_Instance>  (746) 
nan

>  <PDB_ID>  (746) 
nan

>  <Standardized_SMILES>  (746) 
Cc1nc(OCc2ccccc2)c2c(-c3ccnc(N)c3)c[nH]c2n1

>  <Name>  (746) 
nan

>  <Pocket>  (746) 
nan

>  <ATP_Site>  (746) 
nan

>  <Peripheral>  (746) 
nan

>  <Num_H_Atoms_ProtBoundConf>  (746) 
nan

>  <Num_Resolved_Atoms>  (746) 
nan

>  <Num_Not_Resolved_Atoms>  (746) 
nan

$$$$
CHEMBL5082198
     RDKit          3D

  0  0  0  0  0  0  0  0  0  0999 V3000
M  V30 BEGIN CTAB
M  V30 COUNTS 121 127 0 0 0
M  V30 BEGIN ATOM
M  V30 1 C -4.994417 -7.627788 3.778256 0
M  V30 2 C -3.620305 -8.143863 4.127394 0 CFG=2
M  V30 3 C -3.734683 -8.602291 5.594519 0
M  V30 4 C -3.633539 -7.282118 6.310903 0 CFG=1
M  V30 5 O -3.265596 -7.422115 7.648437 0
M  V30 6 C -2.591856 -6.620026 5.496358 0
M  V30 7 N -1.720290 -5.652652 5.844188 0
M  V30 8 C -0.833499 -5.159471 4.928003 0
M  V30 9 N -0.884725 -5.680982 3.702879 0
M  V30 10 C -1.733500 -6.652861 3.285892 0
M  V30 11 N -1.602241 -7.028990 1.919316 0
M  V30 12 C -0.513750 -6.409437 1.112488 0
M  V30 13 C -1.196391 -5.739917 -0.054035 0
M  V30 14 N -2.636201 -5.627156 0.110327 0
M  V30 15 C -3.709487 -4.699137 0.270124 0
M  V30 16 O -4.948150 -4.750548 0.406604 0
M  V30 17 C -3.219492 -3.315501 0.261336 0 CFG=2
M  V30 18 C -2.368653 -3.063281 1.501555 0
M  V30 19 N -1.841742 -1.736606 1.480876 0
M  V30 20 C -0.849094 -1.556143 2.520099 0
M  V30 21 C -0.133520 -0.217498 2.255908 0
M  V30 22 C -1.039110 0.933936 2.368505 0
M  V30 23 O -2.057264 1.203843 3.048112 0
M  V30 24 N -0.719357 2.028992 1.506401 0
M  V30 25 C -1.374660 3.328609 1.392586 0
M  V30 26 C -0.780662 4.115570 0.243547 0
M  V30 27 C -1.264362 5.519048 0.135574 0
M  V30 28 C -0.676214 6.205429 -1.117276 0
M  V30 29 C -1.261784 5.587439 -2.330256 0
M  V30 30 C -0.696575 6.116931 -3.655492 0
M  V30 31 C 0.717498 5.672031 -3.711497 0
M  V30 32 C 1.487984 6.062212 -4.940226 0
M  V30 33 N 2.773313 5.480839 -4.942544 0
M  V30 34 C 4.077256 5.276242 -5.441783 0
M  V30 35 C 4.307143 6.042324 -6.559447 0
M  V30 36 C 5.508684 6.030170 -7.271563 0
M  V30 37 C 6.448309 5.171465 -6.743737 0
M  V30 38 C 6.247615 4.396049 -5.631178 0
M  V30 39 C 5.063334 4.429250 -4.956066 0
M  V30 40 C 4.988515 3.545684 -3.799452 0
M  V30 41 O 4.035048 3.371000 -3.000754 0
M  V30 42 N 6.280135 2.899063 -3.769590 0
M  V30 43 C 6.609313 1.922546 -2.752596 0
M  V30 44 C 6.769106 0.582982 -3.436005 0
M  V30 45 C 7.310650 -0.498622 -2.562434 0
M  V30 46 C 8.391318 -0.045001 -1.645722 0
M  V30 47 O 8.973084 -0.883877 -0.928606 0
M  V30 48 N 8.753671 1.335806 -1.591617 0
M  V30 49 C 10.089195 1.734511 -1.213227 0
M  V30 50 C 7.762281 2.306495 -1.918919 0
M  V30 51 O 7.847810 3.486514 -1.510920 0
M  V30 52 C 7.015738 3.415906 -4.866324 0
M  V30 53 O 8.186507 3.048230 -5.117623 0
M  V30 54 C -4.345926 -2.342769 0.312054 0
M  V30 55 C -4.371727 -1.331504 -0.612059 0
M  V30 56 C -5.307162 -0.348729 -0.753335 0
M  V30 57 C -6.346309 -0.434842 0.188191 0
M  V30 58 Cl -7.614400 0.784830 0.102637 0
M  V30 59 C -6.433005 -1.421856 1.180175 0
M  V30 60 C -5.400186 -2.327848 1.171812 0
M  V30 61 C -3.080310 -7.015336 0.074279 0
M  V30 62 C -2.283170 -7.890159 1.038788 0
M  V30 63 C -2.601964 -7.125891 4.212579 0
M  V30 64 H -5.732894 -7.695262 4.580405 0
M  V30 65 H -4.949859 -6.541292 3.498545 0
M  V30 66 H -5.416559 -8.196478 2.903297 0
M  V30 67 H -3.376038 -9.098808 3.629678 0
M  V30 68 H -4.691496 -9.137869 5.750085 0
M  V30 69 H -2.833563 -9.212144 5.807869 0
M  V30 70 H -4.604894 -6.725057 6.228641 0
M  V30 71 H -3.988881 -7.043840 8.206539 0
M  V30 72 H -0.097489 -4.380169 5.117452 0
M  V30 73 H 0.216297 -7.184829 0.822280 0
M  V30 74 H 0.020844 -5.672590 1.756031 0
M  V30 75 H -0.696843 -4.747223 -0.203982 0
M  V30 76 H -0.939455 -6.335848 -0.971071 0
M  V30 77 H -2.559958 -3.102436 -0.607852 0
M  V30 78 H -1.584334 -3.787807 1.689566 0
M  V30 79 H -3.059023 -3.132137 2.406171 0
M  V30 80 H -1.468081 -1.389111 0.596935 0
M  V30 81 H -0.120131 -2.376111 2.566613 0
M  V30 82 H -1.329033 -1.480714 3.532221 0
M  V30 83 H 0.314902 -0.270634 1.228010 0
M  V30 84 H 0.740593 -0.127700 2.953635 0
M  V30 85 H 0.101474 1.921606 0.841432 0
M  V30 86 H -1.180237 3.868652 2.346264 0
M  V30 87 H -2.450240 3.273013 1.214655 0
M  V30 88 H -0.910313 3.504102 -0.691093 0
M  V30 89 H 0.342037 4.106606 0.410572 0
M  V30 90 H -0.848315 6.069624 1.020743 0
M  V30 91 H -2.351962 5.568980 0.169075 0
M  V30 92 H 0.415840 6.062865 -0.989244 0
M  V30 93 H -0.851056 7.286297 -1.031868 0
M  V30 94 H -2.368115 5.775766 -2.291925 0
M  V30 95 H -1.073378 4.500658 -2.376617 0
M  V30 96 H -1.321737 5.705851 -4.476943 0
M  V30 97 H -0.755459 7.213514 -3.595314 0
M  V30 98 H 1.223710 6.143986 -2.812418 0
M  V30 99 H 0.748185 4.565404 -3.627273 0
M  V30 100 H 0.901896 5.908401 -5.871836 0
M  V30 101 H 1.638845 7.184230 -4.861656 0
M  V30 102 H 2.710911 4.823161 -4.112462 0
M  V30 103 H 3.596042 6.741657 -7.024552 0
M  V30 104 H 5.801710 6.581566 -8.146643 0
M  V30 105 H 7.431198 5.056123 -7.186311 0
M  V30 106 H 5.740315 1.806356 -2.066159 0
M  V30 107 H 5.756559 0.232843 -3.794239 0
M  V30 108 H 7.387895 0.652773 -4.348871 0
M  V30 109 H 6.475850 -0.881612 -1.911137 0
M  V30 110 H 7.678191 -1.308688 -3.244792 0
M  V30 111 H 10.870163 1.101497 -1.640591 0
M  V30 112 H 10.151249 1.808322 -0.099691 0
M  V30 113 H 10.283192 2.760852 -1.610497 0
M  V30 114 H -3.552587 -1.274809 -1.349854 0
M  V30 115 H -5.304521 0.439651 -1.492483 0
M  V30 116 H -7.250128 -1.447681 1.884055 0
M  V30 117 H -5.434086 -3.114009 1.943217 0
M  V30 118 H -4.160887 -7.115412 0.234474 0
M  V30 119 H -2.929224 -7.341117 -1.000561 0
M  V30 120 H -2.903843 -8.696748 1.448952 0
M  V30 121 H -1.561437 -8.466210 0.389786 0
M  V30 END ATOM
M  V30 BEGIN BOND
M  V30 1 1 1 2
M  V30 2 1 2 3
M  V30 3 1 3 4
M  V30 4 1 4 5
M  V30 5 1 4 6
M  V30 6 2 6 7
M  V30 7 1 7 8
M  V30 8 2 8 9
M  V30 9 1 9 10
M  V30 10 1 10 11
M  V30 11 1 11 12
M  V30 12 1 12 13
M  V30 13 1 13 14
M  V30 14 1 14 15
M  V30 15 2 15 16
M  V30 16 1 15 17
M  V30 17 1 17 18
M  V30 18 1 18 19
M  V30 19 1 19 20
M  V30 20 1 20 21
M  V30 21 1 21 22
M  V30 22 2 22 23
M  V30 23 1 22 24
M  V30 24 1 24 25
M  V30 25 1 25 26
M  V30 26 1 26 27
M  V30 27 1 27 28
M  V30 28 1 28 29
M  V30 29 1 29 30
M  V30 30 1 30 31
M  V30 31 1 31 32
M  V30 32 1 32 33
M  V30 33 1 33 34
M  V30 34 2 34 35
M  V30 35 1 35 36
M  V30 36 2 36 37
M  V30 37 1 37 38
M  V30 38 2 38 39
M  V30 39 1 39 40
M  V30 40 2 40 41
M  V30 41 1 40 42
M  V30 42 1 42 43
M  V30 43 1 43 44
M  V30 44 1 44 45
M  V30 45 1 45 46
M  V30 46 2 46 47
M  V30 47 1 46 48
M  V30 48 1 48 49
M  V30 49 1 48 50
M  V30 50 2 50 51
M  V30 51 1 42 52
M  V30 52 2 52 53
M  V30 53 1 17 54
M  V30 54 2 54 55
M  V30 55 1 55 56
M  V30 56 2 56 57
M  V30 57 1 57 58
M  V30 58 1 57 59
M  V30 59 2 59 60
M  V30 60 1 14 61
M  V30 61 1 61 62
M  V30 62 2 10 63
M  V30 63 1 63 2
M  V30 64 1 63 6
M  V30 65 1 62 11
M  V30 66 1 39 34
M  V30 67 1 50 43
M  V30 68 1 60 54
M  V30 69 1 52 38
M  V30 70 1 1 64
M  V30 71 1 1 65
M  V30 72 1 1 66
M  V30 73 1 2 67 CFG=3
M  V30 74 1 3 68
M  V30 75 1 3 69
M  V30 76 1 4 70 CFG=1
M  V30 77 1 5 71
M  V30 78 1 8 72
M  V30 79 1 12 73
M  V30 80 1 12 74
M  V30 81 1 13 75
M  V30 82 1 13 76
M  V30 83 1 17 77 CFG=3
M  V30 84 1 18 78
M  V30 85 1 18 79
M  V30 86 1 19 80
M  V30 87 1 20 81
M  V30 88 1 20 82
M  V30 89 1 21 83
M  V30 90 1 21 84
M  V30 91 1 24 85
M  V30 92 1 25 86
M  V30 93 1 25 87
M  V30 94 1 26 88
M  V30 95 1 26 89
M  V30 96 1 27 90
M  V30 97 1 27 91
M  V30 98 1 28 92
M  V30 99 1 28 93
M  V30 100 1 29 94
M  V30 101 1 29 95
M  V30 102 1 30 96
M  V30 103 1 30 97
M  V30 104 1 31 98
M  V30 105 1 31 99
M  V30 106 1 32 100
M  V30 107 1 32 101
M  V30 108 1 33 102
M  V30 109 1 35 103
M  V30 110 1 36 104
M  V30 111 1 37 105
M  V30 112 1 43 106
M  V30 113 1 44 107
M  V30 114 1 44 108
M  V30 115 1 45 109
M  V30 116 1 45 110
M  V30 117 1 49 111
M  V30 118 1 49 112
M  V30 119 1 49 113
M  V30 120 1 55 114
M  V30 121 1 56 115
M  V30 122 1 59 116
M  V30 123 1 60 117
M  V30 124 1 61 118
M  V30 125 1 61 119
M  V30 126 1 62 120
M  V30 127 1 62 121
M  V30 END BOND
M  V30 END CTAB
M  END
>  <Dataset>  (747) 
ChEMBL_Kinases

>  <Ligand_Instance>  (747) 
nan

>  <PDB_ID>  (747) 
nan

>  <Standardized_SMILES>  (747) 
C[C@@H]1C[C@@H](O)c2ncnc(N3CCN(C(=O)[C@H](CNCCC(=O)NCCCCCCCCNc4cccc5c4C(=O)N(C4CCC(=O)N(C)C4=O)C5=O)c4ccc(Cl)cc4)CC3)c21

>  <Name>  (747) 
nan

>  <Pocket>  (747) 
nan

>  <ATP_Site>  (747) 
nan

>  <Peripheral>  (747) 
nan

>  <Num_H_Atoms_ProtBoundConf>  (747) 
nan

>  <Num_Resolved_Atoms>  (747) 
nan

>  <Num_Not_Resolved_Atoms>  (747) 
nan

$$$$
CHEMBL508280
     RDKit          3D

  0  0  0  0  0  0  0  0  0  0999 V3000
M  V30 BEGIN CTAB
M  V30 COUNTS 34 37 0 0 0
M  V30 BEGIN ATOM
M  V30 1 O -0.780953 -4.901059 1.865959 0
M  V30 2 N -0.579029 -4.491423 0.711538 0 CHG=1 VAL=4
M  V30 3 O -1.124891 -4.717919 -0.527680 0 CHG=-1 VAL=1
M  V30 4 C 0.482275 -3.552794 0.654660 0
M  V30 5 C 1.307920 -3.028124 1.627857 0
M  V30 6 N 2.284366 -2.143714 1.471688 0
M  V30 7 C 2.476402 -1.725637 0.231710 0
M  V30 8 S 3.652305 -0.569553 -0.433922 0
M  V30 9 C 3.031397 1.102436 -0.424656 0
M  V30 10 N 3.915698 2.011561 -0.932723 0
M  V30 11 N 3.358511 3.215105 -0.879391 0
M  V30 12 C 2.138621 3.086985 -0.347655 0
M  V30 13 O 1.094791 3.976881 -0.042771 0
M  V30 14 N 1.932092 1.788540 -0.065845 0
M  V30 15 C 0.883910 1.040621 0.487308 0
M  V30 16 C 0.763937 0.752805 1.845999 0
M  V30 17 C -0.307085 0.007915 2.306990 0
M  V30 18 C -1.266302 -0.457223 1.427875 0
M  V30 19 C -1.127796 -0.158343 0.072856 0
M  V30 20 C -0.065067 0.583392 -0.401152 0
M  V30 21 O -2.159843 -0.684787 -0.706875 0
M  V30 22 C -3.467786 -0.844569 -0.137139 0
M  V30 23 C -3.367211 -1.653177 1.159172 0
M  V30 24 O -2.299546 -1.192303 1.977794 0
M  V30 25 S 1.167851 -2.659999 -0.801322 0
M  V30 26 H 1.206960 -3.329333 2.682905 0
M  V30 27 H 1.124435 4.867716 -0.522535 0
M  V30 28 H 1.540098 1.137361 2.505191 0
M  V30 29 H -0.309800 -0.162840 3.388088 0
M  V30 30 H -0.061579 0.754408 -1.481026 0
M  V30 31 H -3.956501 0.125983 0.060847 0
M  V30 32 H -4.033280 -1.473323 -0.848419 0
M  V30 33 H -4.342212 -1.556167 1.655369 0
M  V30 34 H -3.114292 -2.692907 0.877547 0
M  V30 END ATOM
M  V30 BEGIN BOND
M  V30 1 2 1 2
M  V30 2 1 2 3
M  V30 3 1 2 4
M  V30 4 2 4 5
M  V30 5 1 5 6
M  V30 6 2 6 7
M  V30 7 1 7 8
M  V30 8 1 8 9
M  V30 9 2 9 10
M  V30 10 1 10 11
M  V30 11 2 11 12
M  V30 12 1 12 13
M  V30 13 1 12 14
M  V30 14 1 14 15
M  V30 15 2 15 16
M  V30 16 1 16 17
M  V30 17 2 17 18
M  V30 18 1 18 19
M  V30 19 2 19 20
M  V30 20 1 19 21
M  V30 21 1 21 22
M  V30 22 1 22 23
M  V30 23 1 23 24
M  V30 24 1 7 25
M  V30 25 1 25 4
M  V30 26 1 14 9
M  V30 27 1 20 15
M  V30 28 1 24 18
M  V30 29 1 5 26
M  V30 30 1 13 27
M  V30 31 1 16 28
M  V30 32 1 17 29
M  V30 33 1 20 30
M  V30 34 1 22 31
M  V30 35 1 22 32
M  V30 36 1 23 33
M  V30 37 1 23 34
M  V30 END BOND
M  V30 END CTAB
M  END
>  <Dataset>  (748) 
ChEMBL_Kinases

>  <Ligand_Instance>  (748) 
nan

>  <PDB_ID>  (748) 
nan

>  <Standardized_SMILES>  (748) 
O=[N+]([O-])c1cnc(Sc2nnc(O)n2-c2ccc3c(c2)OCCO3)s1

>  <Name>  (748) 
nan

>  <Pocket>  (748) 
nan

>  <ATP_Site>  (748) 
nan

>  <Peripheral>  (748) 
nan

>  <Num_H_Atoms_ProtBoundConf>  (748) 
nan

>  <Num_Resolved_Atoms>  (748) 
nan

>  <Num_Not_Resolved_Atoms>  (748) 
nan

$$$$
CHEMBL5082941
     RDKit          3D

  0  0  0  0  0  0  0  0  0  0999 V3000
M  V30 BEGIN CTAB
M  V30 COUNTS 39 42 0 0 0
M  V30 BEGIN ATOM
M  V30 1 Cl -1.327527 -2.032912 4.740124 0
M  V30 2 C 0.174971 -1.580966 3.979533 0
M  V30 3 C 1.151200 -0.956136 4.727445 0
M  V30 4 C 2.341674 -0.605194 4.097880 0
M  V30 5 C 2.479149 -0.901671 2.760831 0
M  V30 6 C 1.495960 -1.535298 1.990921 0
M  V30 7 C 1.881972 -1.766066 0.606583 0
M  V30 8 C 3.063345 -2.460495 0.316441 0
M  V30 9 N 3.154162 -2.568217 -1.040043 0
M  V30 10 C 2.107623 -1.987440 -1.644601 0
M  V30 11 N 1.650384 -1.776117 -2.888683 0
M  V30 12 C 0.486360 -1.110578 -3.064917 0
M  V30 13 N -0.296425 -0.615099 -2.077265 0
M  V30 14 C 0.155112 -0.821526 -0.805004 0
M  V30 15 N -0.718765 -0.221829 0.144966 0
M  V30 16 C -0.172459 0.949216 0.849232 0
M  V30 17 C -0.957232 2.189153 0.472895 0
M  V30 18 C -2.194726 1.860733 -0.315833 0
M  V30 19 C -2.933265 0.646833 0.108438 0
M  V30 20 C -2.072630 -0.497842 0.585747 0
M  V30 21 C 1.333733 -1.497457 -0.625215 0
M  V30 22 C 0.309790 -1.878107 2.644664 0
M  V30 23 H 1.019819 -0.733985 5.775432 0
M  V30 24 H 3.114134 -0.117986 4.662919 0
M  V30 25 H 3.446313 -0.594035 2.333865 0
M  V30 26 H 3.812036 -2.865995 0.982055 0
M  V30 27 H 3.921061 -3.033505 -1.573047 0
M  V30 28 H 0.206895 -0.994735 -4.121821 0
M  V30 29 H -0.361645 0.786972 1.924747 0
M  V30 30 H 0.912277 1.064141 0.712650 0
M  V30 31 H -1.223507 2.807606 1.349211 0
M  V30 32 H -0.298463 2.804349 -0.173367 0
M  V30 33 H -2.895254 2.729006 -0.209421 0
M  V30 34 H -1.934720 1.843794 -1.412063 0
M  V30 35 H -3.564418 0.305676 -0.766198 0
M  V30 36 H -3.710949 0.861559 0.896974 0
M  V30 37 H -2.434249 -1.430977 0.101599 0
M  V30 38 H -2.145511 -0.549292 1.692042 0
M  V30 39 H -0.389260 -2.356383 2.006395 0
M  V30 END ATOM
M  V30 BEGIN BOND
M  V30 1 1 1 2
M  V30 2 2 2 3
M  V30 3 1 3 4
M  V30 4 2 4 5
M  V30 5 1 5 6
M  V30 6 1 6 7
M  V30 7 2 7 8
M  V30 8 1 8 9
M  V30 9 1 9 10
M  V30 10 2 10 11
M  V30 11 1 11 12
M  V30 12 2 12 13
M  V30 13 1 13 14
M  V30 14 1 14 15
M  V30 15 1 15 16
M  V30 16 1 16 17
M  V30 17 1 17 18
M  V30 18 1 18 19
M  V30 19 1 19 20
M  V30 20 2 14 21
M  V30 21 2 6 22
M  V30 22 1 22 2
M  V30 23 1 21 7
M  V30 24 1 21 10
M  V30 25 1 20 15
M  V30 26 1 3 23
M  V30 27 1 4 24
M  V30 28 1 5 25
M  V30 29 1 8 26
M  V30 30 1 9 27
M  V30 31 1 12 28
M  V30 32 1 16 29
M  V30 33 1 16 30
M  V30 34 1 17 31
M  V30 35 1 17 32
M  V30 36 1 18 33
M  V30 37 1 18 34
M  V30 38 1 19 35
M  V30 39 1 19 36
M  V30 40 1 20 37
M  V30 41 1 20 38
M  V30 42 1 22 39
M  V30 END BOND
M  V30 END CTAB
M  END
>  <Dataset>  (749) 
ChEMBL_Kinases

>  <Ligand_Instance>  (749) 
nan

>  <PDB_ID>  (749) 
nan

>  <Standardized_SMILES>  (749) 
Clc1cccc(-c2c[nH]c3ncnc(N4CCCCC4)c23)c1

>  <Name>  (749) 
nan

>  <Pocket>  (749) 
nan

>  <ATP_Site>  (749) 
nan

>  <Peripheral>  (749) 
nan

>  <Num_H_Atoms_ProtBoundConf>  (749) 
nan

>  <Num_Resolved_Atoms>  (749) 
nan

>  <Num_Not_Resolved_Atoms>  (749) 
nan

$$$$
CHEMBL3780758
     RDKit          3D

  0  0  0  0  0  0  0  0  0  0999 V3000
M  V30 BEGIN CTAB
M  V30 COUNTS 52 56 0 0 0
M  V30 BEGIN ATOM
M  V30 1 C -0.348831 -7.535420 1.241552 0
M  V30 2 C -0.190527 -7.541192 -0.142992 0
M  V30 3 C 0.001281 -6.370476 -0.841121 0
M  V30 4 C 0.045887 -5.147642 -0.216388 0
M  V30 5 C 0.247032 -3.919974 -0.968816 0
M  V30 6 C 0.296575 -2.682886 -0.393327 0
M  V30 7 N 0.479687 -1.546728 -1.086553 0
M  V30 8 C 0.627911 -1.581151 -2.425667 0
M  V30 9 C 0.821757 -0.387737 -3.083914 0
M  V30 10 N 0.842286 0.884591 -2.518978 0
M  V30 11 C 0.549970 1.436824 -1.258358 0
M  V30 12 C 1.335723 2.332155 -0.558042 0
M  V30 13 C 0.999504 2.868023 0.660119 0
M  V30 14 C -0.188387 2.516617 1.256661 0
M  V30 15 N -0.509336 3.076939 2.522544 0
M  V30 16 C 0.410246 3.791793 3.390540 0
M  V30 17 C 0.369926 3.299430 4.801213 0
M  V30 18 C -0.398201 2.025793 4.989196 0
M  V30 19 C -1.690271 1.973780 4.239625 0
M  V30 20 C -1.805004 3.057051 3.182873 0
M  V30 21 C -1.036878 1.627649 0.629600 0
M  V30 22 C -0.653033 1.103821 -0.616045 0
M  V30 23 N 0.973998 -0.498100 -4.413805 0
M  V30 24 C 0.934910 -1.689905 -5.025231 0
M  V30 25 C 0.739689 -2.899208 -4.375896 0
M  V30 26 C 0.580326 -2.814932 -3.004939 0
M  V30 27 N 0.395217 -3.957301 -2.304060 0
M  V30 28 C -0.113400 -5.172726 1.149849 0
M  V30 29 C -0.310078 -6.323000 1.910689 0
M  V30 30 H -0.503906 -8.418537 1.865904 0
M  V30 31 H -0.240851 -8.546730 -0.550433 0
M  V30 32 H 0.114531 -6.463812 -1.922935 0
M  V30 33 H 0.187404 -2.550891 0.672406 0
M  V30 34 H 1.132393 1.707171 -3.093134 0
M  V30 35 H 2.263307 2.570072 -1.084308 0
M  V30 36 H 1.736422 3.543990 1.039739 0
M  V30 37 H 1.463568 3.699218 3.023060 0
M  V30 38 H 0.095132 4.855265 3.370352 0
M  V30 39 H -0.115973 4.074595 5.428216 0
M  V30 40 H 1.389860 3.150151 5.247919 0
M  V30 41 H -0.605517 1.839003 6.060812 0
M  V30 42 H 0.204656 1.159523 4.652532 0
M  V30 43 H -1.884248 0.992784 3.749359 0
M  V30 44 H -2.534208 2.151752 4.940638 0
M  V30 45 H -2.548789 2.709629 2.443881 0
M  V30 46 H -2.083887 4.033900 3.630919 0
M  V30 47 H -1.971281 1.337867 1.084846 0
M  V30 48 H -1.399604 0.423771 -1.031058 0
M  V30 49 H 1.060634 -1.743540 -6.107253 0
M  V30 50 H 0.716724 -3.822248 -4.907676 0
M  V30 51 H -0.091986 -4.263628 1.725814 0
M  V30 52 H -0.428015 -6.261938 3.003759 0
M  V30 END ATOM
M  V30 BEGIN BOND
M  V30 1 2 1 2
M  V30 2 1 2 3
M  V30 3 2 3 4
M  V30 4 1 4 5
M  V30 5 2 5 6
M  V30 6 1 6 7
M  V30 7 2 7 8
M  V30 8 1 8 9
M  V30 9 1 9 10
M  V30 10 1 10 11
M  V30 11 2 11 12
M  V30 12 1 12 13
M  V30 13 2 13 14
M  V30 14 1 14 15
M  V30 15 1 15 16
M  V30 16 1 16 17
M  V30 17 1 17 18
M  V30 18 1 18 19
M  V30 19 1 19 20
M  V30 20 1 14 21
M  V30 21 2 21 22
M  V30 22 2 9 23
M  V30 23 1 23 24
M  V30 24 2 24 25
M  V30 25 1 25 26
M  V30 26 2 26 27
M  V30 27 1 4 28
M  V30 28 2 28 29
M  V30 29 1 29 1
M  V30 30 1 27 5
M  V30 31 1 26 8
M  V30 32 1 22 11
M  V30 33 1 20 15
M  V30 34 1 1 30
M  V30 35 1 2 31
M  V30 36 1 3 32
M  V30 37 1 6 33
M  V30 38 1 10 34
M  V30 39 1 12 35
M  V30 40 1 13 36
M  V30 41 1 16 37
M  V30 42 1 16 38
M  V30 43 1 17 39
M  V30 44 1 17 40
M  V30 45 1 18 41
M  V30 46 1 18 42
M  V30 47 1 19 43
M  V30 48 1 19 44
M  V30 49 1 20 45
M  V30 50 1 20 46
M  V30 51 1 21 47
M  V30 52 1 22 48
M  V30 53 1 24 49
M  V30 54 1 25 50
M  V30 55 1 28 51
M  V30 56 1 29 52
M  V30 END BOND
M  V30 END CTAB
M  END
>  <Dataset>  (750) 
ChEMBL_Kinases

>  <Ligand_Instance>  (750) 
nan

>  <PDB_ID>  (750) 
nan

>  <Standardized_SMILES>  (750) 
c1ccc(-c2cnc3c(Nc4ccc(N5CCCCC5)cc4)nccc3n2)cc1

>  <Name>  (750) 
nan

>  <Pocket>  (750) 
nan

>  <ATP_Site>  (750) 
nan

>  <Peripheral>  (750) 
nan

>  <Num_H_Atoms_ProtBoundConf>  (750) 
nan

>  <Num_Resolved_Atoms>  (750) 
nan

>  <Num_Not_Resolved_Atoms>  (750) 
nan

$$$$
CHEMBL3780632
     RDKit          3D

  0  0  0  0  0  0  0  0  0  0999 V3000
M  V30 BEGIN CTAB
M  V30 COUNTS 50 54 0 0 0
M  V30 BEGIN ATOM
M  V30 1 C 2.106307 -4.866523 2.464266 0
M  V30 2 C 2.971351 -5.229571 1.425680 0
M  V30 3 C 3.364935 -4.279861 0.498100 0
M  V30 4 C 2.932670 -2.967615 0.555581 0
M  V30 5 C 3.304932 -1.926228 -0.380423 0
M  V30 6 C 4.136084 -2.135728 -1.436018 0
M  V30 7 N 4.488908 -1.182637 -2.309725 0
M  V30 8 C 4.009475 0.075283 -2.165249 0
M  V30 9 C 4.353580 1.077362 -3.044823 0
M  V30 10 N 3.851807 2.304879 -2.855226 0
M  V30 11 C 3.015496 2.588125 -1.822770 0
M  V30 12 C 2.648770 1.588023 -0.913017 0
M  V30 13 N 1.773098 1.920823 0.157343 0
M  V30 14 C 0.484048 1.446646 0.529112 0
M  V30 15 C -0.091792 1.947182 1.679255 0
M  V30 16 C -1.341710 1.468067 2.008125 0
M  V30 17 C -2.042776 0.534754 1.272507 0
M  V30 18 N -3.331746 0.033080 1.602939 0
M  V30 19 C -4.020004 -0.932826 0.755724 0
M  V30 20 C -5.487294 -0.911856 1.089759 0
M  V30 21 O -5.901739 0.414888 1.175459 0
M  V30 22 C -5.369771 1.075780 2.254960 0
M  V30 23 C -4.092592 0.404295 2.780639 0
M  V30 24 C -1.437837 0.055461 0.128741 0
M  V30 25 C -0.167658 0.510761 -0.249291 0
M  V30 26 C 3.163445 0.315211 -1.101736 0
M  V30 27 N 2.833813 -0.669654 -0.246873 0
M  V30 28 C 2.083282 -2.683238 1.604817 0
M  V30 29 C 1.645751 -3.570410 2.567127 0
M  V30 30 H 1.770345 -5.580236 3.216402 0
M  V30 31 H 3.324988 -6.261443 1.361762 0
M  V30 32 H 4.032725 -4.556995 -0.305401 0
M  V30 33 H 4.566236 -3.105610 -1.630603 0
M  V30 34 H 5.026533 0.834628 -3.869799 0
M  V30 35 H 2.624090 3.581812 -1.689560 0
M  V30 36 H 2.260562 2.656538 0.711673 0
M  V30 37 H 0.390966 2.682316 2.313885 0
M  V30 38 H -1.788841 1.857612 2.901763 0
M  V30 39 H -3.536150 -1.913245 0.929613 0
M  V30 40 H -3.863614 -0.710430 -0.341305 0
M  V30 41 H -6.004548 -1.463626 0.297171 0
M  V30 42 H -5.627798 -1.486795 2.024887 0
M  V30 43 H -6.170592 1.086529 3.042546 0
M  V30 44 H -5.134358 2.146943 2.083095 0
M  V30 45 H -3.605604 1.129434 3.430955 0
M  V30 46 H -4.428373 -0.507841 3.346363 0
M  V30 47 H -1.844837 -0.669303 -0.550165 0
M  V30 48 H 0.324031 0.138475 -1.157845 0
M  V30 49 H 1.724131 -1.662675 1.680811 0
M  V30 50 H 0.978800 -3.241999 3.348036 0
M  V30 END ATOM
M  V30 BEGIN BOND
M  V30 1 2 1 2
M  V30 2 1 2 3
M  V30 3 2 3 4
M  V30 4 1 4 5
M  V30 5 2 5 6
M  V30 6 1 6 7
M  V30 7 2 7 8
M  V30 8 1 8 9
M  V30 9 2 9 10
M  V30 10 1 10 11
M  V30 11 2 11 12
M  V30 12 1 12 13
M  V30 13 1 13 14
M  V30 14 2 14 15
M  V30 15 1 15 16
M  V30 16 2 16 17
M  V30 17 1 17 18
M  V30 18 1 18 19
M  V30 19 1 19 20
M  V30 20 1 20 21
M  V30 21 1 21 22
M  V30 22 1 22 23
M  V30 23 1 17 24
M  V30 24 2 24 25
M  V30 25 1 12 26
M  V30 26 2 26 27
M  V30 27 1 4 28
M  V30 28 2 28 29
M  V30 29 1 29 1
M  V30 30 1 27 5
M  V30 31 1 26 8
M  V30 32 1 25 14
M  V30 33 1 23 18
M  V30 34 1 1 30
M  V30 35 1 2 31
M  V30 36 1 3 32
M  V30 37 1 6 33
M  V30 38 1 9 34
M  V30 39 1 11 35
M  V30 40 1 13 36
M  V30 41 1 15 37
M  V30 42 1 16 38
M  V30 43 1 19 39
M  V30 44 1 19 40
M  V30 45 1 20 41
M  V30 46 1 20 42
M  V30 47 1 22 43
M  V30 48 1 22 44
M  V30 49 1 23 45
M  V30 50 1 23 46
M  V30 51 1 24 47
M  V30 52 1 25 48
M  V30 53 1 28 49
M  V30 54 1 29 50
M  V30 END BOND
M  V30 END CTAB
M  END
>  <Dataset>  (751) 
ChEMBL_Kinases

>  <Ligand_Instance>  (751) 
nan

>  <PDB_ID>  (751) 
nan

>  <Standardized_SMILES>  (751) 
c1ccc(-c2cnc3cncc(Nc4ccc(N5CCOCC5)cc4)c3n2)cc1

>  <Name>  (751) 
nan

>  <Pocket>  (751) 
nan

>  <ATP_Site>  (751) 
nan

>  <Peripheral>  (751) 
nan

>  <Num_H_Atoms_ProtBoundConf>  (751) 
nan

>  <Num_Resolved_Atoms>  (751) 
nan

>  <Num_Not_Resolved_Atoms>  (751) 
nan

$$$$
CHEMBL369114
     RDKit          3D

  0  0  0  0  0  0  0  0  0  0999 V3000
M  V30 BEGIN CTAB
M  V30 COUNTS 56 59 0 0 0
M  V30 BEGIN ATOM
M  V30 1 C 2.812378 -4.092940 3.531519 0
M  V30 2 C 3.223887 -3.641584 2.173767 0
M  V30 3 C 4.542739 -3.344179 1.898922 0
M  V30 4 C 4.986871 -2.916170 0.649832 0
M  V30 5 C 4.005106 -2.808117 -0.308096 0
M  V30 6 C 2.661740 -3.080679 -0.135844 0
M  V30 7 N 1.706806 -2.944462 -1.173977 0
M  V30 8 C 0.338594 -3.271179 -0.858678 0
M  V30 9 C -0.819455 -2.652705 -0.682251 0
M  V30 10 C -0.894385 -1.205160 -0.812435 0
M  V30 11 C 0.100660 -0.358933 -0.304967 0
M  V30 12 N -0.191859 0.941303 -0.552832 0
M  V30 13 C 0.578918 2.094687 -0.176431 0
M  V30 14 C 0.344906 2.641838 1.176584 0
M  V30 15 C -1.035716 3.084722 1.509796 0
M  V30 16 N -2.043525 2.064922 1.465182 0
M  V30 17 C -3.336015 2.674096 1.817143 0
M  V30 18 C -1.782098 1.112907 2.555844 0
M  V30 19 C -1.361228 0.981774 -1.216194 0
M  V30 20 C -2.197556 1.962135 -1.763547 0
M  V30 21 C -3.373934 1.670798 -2.421002 0
M  V30 22 C -3.770930 0.337065 -2.559511 0
M  V30 23 C -2.963172 -0.625110 -2.029937 0
M  V30 24 C -1.789278 -0.319562 -1.374935 0
M  V30 25 C -1.833972 -3.651572 -0.365460 0
M  V30 26 O -3.046049 -3.405633 -0.137407 0
M  V30 27 N -1.235401 -4.935575 -0.356013 0
M  V30 28 C 0.141156 -4.716005 -0.666486 0
M  V30 29 O 0.874623 -5.756266 -0.710732 0
M  V30 30 C 2.309260 -3.503374 1.148505 0
M  V30 31 H 3.324539 -3.444200 4.279938 0
M  V30 32 H 3.002624 -5.170675 3.709441 0
M  V30 33 H 1.716304 -3.857459 3.623106 0
M  V30 34 H 5.242447 -3.459981 2.714807 0
M  V30 35 H 6.019133 -2.686867 0.447772 0
M  V30 36 H 4.322204 -2.475878 -1.296101 0
M  V30 37 H 2.057039 -2.618915 -2.091410 0
M  V30 38 H 1.020803 -0.628096 0.231295 0
M  V30 39 H 1.682153 1.913628 -0.344490 0
M  V30 40 H 0.362558 2.934743 -0.905015 0
M  V30 41 H 0.999939 3.558108 1.294979 0
M  V30 42 H 0.681771 1.976075 2.001105 0
M  V30 43 H -0.989539 3.473948 2.569841 0
M  V30 44 H -1.285683 3.950728 0.836326 0
M  V30 45 H -4.026356 1.790405 1.927086 0
M  V30 46 H -3.751936 3.283861 1.003991 0
M  V30 47 H -3.202864 3.191447 2.779453 0
M  V30 48 H -1.314034 1.683965 3.404516 0
M  V30 49 H -2.755072 0.680880 2.864209 0
M  V30 50 H -1.088204 0.311550 2.249304 0
M  V30 51 H -1.862471 2.991274 -1.639893 0
M  V30 52 H -3.966630 2.499597 -2.817904 0
M  V30 53 H -4.691526 0.131461 -3.075295 0
M  V30 54 H -3.295197 -1.621612 -2.160119 0
M  V30 55 H -1.787400 -5.816493 -0.148280 0
M  V30 56 H 1.255831 -3.734402 1.343821 0
M  V30 END ATOM
M  V30 BEGIN BOND
M  V30 1 1 1 2
M  V30 2 2 2 3
M  V30 3 1 3 4
M  V30 4 2 4 5
M  V30 5 1 5 6
M  V30 6 1 6 7
M  V30 7 1 7 8
M  V30 8 2 8 9
M  V30 9 1 9 10
M  V30 10 2 10 11
M  V30 11 1 11 12
M  V30 12 1 12 13
M  V30 13 1 13 14
M  V30 14 1 14 15
M  V30 15 1 15 16
M  V30 16 1 16 17
M  V30 17 1 16 18
M  V30 18 1 12 19
M  V30 19 2 19 20
M  V30 20 1 20 21
M  V30 21 2 21 22
M  V30 22 1 22 23
M  V30 23 2 23 24
M  V30 24 1 9 25
M  V30 25 2 25 26
M  V30 26 1 25 27
M  V30 27 1 27 28
M  V30 28 2 28 29
M  V30 29 2 6 30
M  V30 30 1 30 2
M  V30 31 1 28 8
M  V30 32 1 24 10
M  V30 33 1 24 19
M  V30 34 1 1 31
M  V30 35 1 1 32
M  V30 36 1 1 33
M  V30 37 1 3 34
M  V30 38 1 4 35
M  V30 39 1 5 36
M  V30 40 1 7 37
M  V30 41 1 11 38
M  V30 42 1 13 39
M  V30 43 1 13 40
M  V30 44 1 14 41
M  V30 45 1 14 42
M  V30 46 1 15 43
M  V30 47 1 15 44
M  V30 48 1 17 45
M  V30 49 1 17 46
M  V30 50 1 17 47
M  V30 51 1 18 48
M  V30 52 1 18 49
M  V30 53 1 18 50
M  V30 54 1 20 51
M  V30 55 1 21 52
M  V30 56 1 22 53
M  V30 57 1 23 54
M  V30 58 1 27 55
M  V30 59 1 30 56
M  V30 END BOND
M  V30 END CTAB
M  END
>  <Dataset>  (752) 
ChEMBL_Kinases

>  <Ligand_Instance>  (752) 
nan

>  <PDB_ID>  (752) 
nan

>  <Standardized_SMILES>  (752) 
Cc1cccc(NC2=C(c3cn(CCCN(C)C)c4ccccc34)C(=O)NC2=O)c1

>  <Name>  (752) 
nan

>  <Pocket>  (752) 
nan

>  <ATP_Site>  (752) 
nan

>  <Peripheral>  (752) 
nan

>  <Num_H_Atoms_ProtBoundConf>  (752) 
nan

>  <Num_Resolved_Atoms>  (752) 
nan

>  <Num_Not_Resolved_Atoms>  (752) 
nan

$$$$
CHEMBL3775969
     RDKit          3D

  0  0  0  0  0  0  0  0  0  0999 V3000
M  V30 BEGIN CTAB
M  V30 COUNTS 30 31 0 0 0
M  V30 BEGIN ATOM
M  V30 1 C -0.803061 -4.543584 3.956533 0
M  V30 2 O 0.277516 -4.128393 3.140220 0
M  V30 3 C 0.362568 -2.794970 2.694899 0
M  V30 4 C 1.393823 -2.370627 1.881440 0
M  V30 5 C 1.347771 -1.034534 1.528459 0
M  V30 6 C 0.371910 -0.139026 1.924729 0
M  V30 7 C 0.527252 1.212610 1.399489 0
M  V30 8 C 0.756515 1.431742 0.127462 0
M  V30 9 C 0.888831 0.413650 -0.948085 0
M  V30 10 C 0.102651 1.164289 -2.037917 0
M  V30 11 C 0.108787 0.448032 -3.342843 0
M  V30 12 O 0.759383 2.419738 -2.026742 0
M  V30 13 C 0.951450 2.689333 -0.643040 0
M  V30 14 O 1.243370 3.773034 -0.039748 0
M  V30 15 C -0.662321 -0.599369 2.750773 0
M  V30 16 C -0.656599 -1.936003 3.130853 0
M  V30 17 H -0.712548 -5.601416 4.297246 0
M  V30 18 H -0.969964 -3.913484 4.828366 0
M  V30 19 H -1.765934 -4.543275 3.344326 0
M  V30 20 H 2.151635 -3.059038 1.573283 0
M  V30 21 H 2.208999 -0.773508 0.882395 0
M  V30 22 H 0.478298 2.163972 1.945497 0
M  V30 23 H 1.938056 0.411685 -1.293512 0
M  V30 24 H 0.436714 -0.545864 -0.726485 0
M  V30 25 H -0.930924 1.230494 -1.621701 0
M  V30 26 H -0.888172 0.561177 -3.829006 0
M  V30 27 H 0.955369 0.776475 -3.974100 0
M  V30 28 H 0.236357 -0.644274 -3.139945 0
M  V30 29 H -1.404207 0.138524 3.030048 0
M  V30 30 H -1.500650 -2.224530 3.770012 0
M  V30 END ATOM
M  V30 BEGIN BOND
M  V30 1 1 1 2
M  V30 2 1 2 3
M  V30 3 2 3 4
M  V30 4 1 4 5
M  V30 5 2 5 6
M  V30 6 1 6 7
M  V30 7 2 7 8
M  V30 8 1 8 9
M  V30 9 1 9 10
M  V30 10 1 10 11
M  V30 11 1 10 12
M  V30 12 1 12 13
M  V30 13 2 13 14
M  V30 14 1 6 15
M  V30 15 2 15 16
M  V30 16 1 16 3
M  V30 17 1 13 8
M  V30 18 1 1 17
M  V30 19 1 1 18
M  V30 20 1 1 19
M  V30 21 1 4 20
M  V30 22 1 5 21
M  V30 23 1 7 22
M  V30 24 1 9 23
M  V30 25 1 9 24
M  V30 26 1 10 25
M  V30 27 1 11 26
M  V30 28 1 11 27
M  V30 29 1 11 28
M  V30 30 1 15 29
M  V30 31 1 16 30
M  V30 END BOND
M  V30 END CTAB
M  END
>  <Dataset>  (753) 
ChEMBL_Kinases

>  <Ligand_Instance>  (753) 
nan

>  <PDB_ID>  (753) 
nan

>  <Standardized_SMILES>  (753) 
COc1ccc(/C=C2\CC(C)OC2=O)cc1

>  <Name>  (753) 
nan

>  <Pocket>  (753) 
nan

>  <ATP_Site>  (753) 
nan

>  <Peripheral>  (753) 
nan

>  <Num_H_Atoms_ProtBoundConf>  (753) 
nan

>  <Num_Resolved_Atoms>  (753) 
nan

>  <Num_Not_Resolved_Atoms>  (753) 
nan

$$$$
CHEMBL3775949
     RDKit          3D

  0  0  0  0  0  0  0  0  0  0999 V3000
M  V30 BEGIN CTAB
M  V30 COUNTS 25 26 0 0 0
M  V30 BEGIN ATOM
M  V30 1 C -2.332142 -3.752036 2.659068 0
M  V30 2 O -1.542321 -3.256283 1.625669 0
M  V30 3 C -0.689144 -2.183350 1.675771 0
M  V30 4 C -0.005192 -1.879768 0.489000 0
M  V30 5 C 0.859367 -0.821285 0.476259 0
M  V30 6 C 1.126692 0.006139 1.573746 0
M  V30 7 C 2.063414 1.091842 1.314641 0
M  V30 8 C 1.870492 1.882366 0.259105 0
M  V30 9 S 2.877118 3.288806 -0.291154 0
M  V30 10 C 2.435621 3.034398 -2.033071 0
M  V30 11 S 3.269462 3.314239 -3.428834 0
M  V30 12 N 1.120469 2.509631 -1.947529 0
M  V30 13 C 0.794761 1.887774 -0.725490 0
M  V30 14 O -0.363235 1.375334 -0.513131 0
M  V30 15 C 0.444382 -0.310089 2.729079 0
M  V30 16 C -0.424148 -1.367208 2.756291 0
M  V30 17 H -2.148448 -4.859913 2.765730 0
M  V30 18 H -2.170900 -3.205435 3.601781 0
M  V30 19 H -3.408099 -3.674691 2.360389 0
M  V30 20 H -0.168903 -2.493031 -0.399813 0
M  V30 21 H 1.368761 -0.661403 -0.489059 0
M  V30 22 H 2.931452 1.321523 1.926290 0
M  V30 23 H 0.459745 2.601381 -2.780253 0
M  V30 24 H 0.664370 0.340246 3.555826 0
M  V30 25 H -0.948128 -1.593825 3.669649 0
M  V30 END ATOM
M  V30 BEGIN BOND
M  V30 1 1 1 2
M  V30 2 1 2 3
M  V30 3 2 3 4
M  V30 4 1 4 5
M  V30 5 2 5 6
M  V30 6 1 6 7
M  V30 7 2 7 8
M  V30 8 1 8 9
M  V30 9 1 9 10
M  V30 10 2 10 11
M  V30 11 1 10 12
M  V30 12 1 12 13
M  V30 13 2 13 14
M  V30 14 1 6 15
M  V30 15 2 15 16
M  V30 16 1 16 3
M  V30 17 1 13 8
M  V30 18 1 1 17
M  V30 19 1 1 18
M  V30 20 1 1 19
M  V30 21 1 4 20
M  V30 22 1 5 21
M  V30 23 1 7 22
M  V30 24 1 12 23
M  V30 25 1 15 24
M  V30 26 1 16 25
M  V30 END BOND
M  V30 END CTAB
M  END
>  <Dataset>  (754) 
ChEMBL_Kinases

>  <Ligand_Instance>  (754) 
nan

>  <PDB_ID>  (754) 
nan

>  <Standardized_SMILES>  (754) 
COc1ccc(/C=C2/SC(=S)NC2=O)cc1

>  <Name>  (754) 
nan

>  <Pocket>  (754) 
nan

>  <ATP_Site>  (754) 
nan

>  <Peripheral>  (754) 
nan

>  <Num_H_Atoms_ProtBoundConf>  (754) 
nan

>  <Num_Resolved_Atoms>  (754) 
nan

>  <Num_Not_Resolved_Atoms>  (754) 
nan

$$$$
CHEMBL5083772
     RDKit          3D

  0  0  0  0  0  0  0  0  0  0999 V3000
M  V30 BEGIN CTAB
M  V30 COUNTS 74 79 0 0 0
M  V30 BEGIN ATOM
M  V30 1 C 2.191940 -2.960631 9.477327 0
M  V30 2 N 1.270207 -2.371525 8.502168 0
M  V30 3 C 0.276528 -1.527927 8.789477 0
M  V30 4 C -0.396962 -1.165157 7.644219 0
M  V30 5 N -1.499978 -0.321764 7.375096 0
M  V30 6 C -2.094499 -0.037570 6.123382 0
M  V30 7 N -3.158228 0.812522 6.142896 0
M  V30 8 C -3.794614 1.147911 5.009417 0
M  V30 9 C -3.353925 0.617143 3.820151 0
M  V30 10 C -2.280487 -0.244069 3.777827 0
M  V30 11 C -1.840524 -0.786658 2.503545 0
M  V30 12 C -0.774132 -1.650070 2.403580 0
M  V30 13 C -0.324864 -2.186848 1.226384 0
M  V30 14 C -0.959919 -1.864994 0.023863 0
M  V30 15 C -2.025599 -1.006311 0.096170 0
M  V30 16 C -2.437204 -0.493224 1.314605 0
M  V30 17 C -2.829671 -0.541176 -1.042448 0
M  V30 18 N -3.176962 -1.566117 -1.974266 0
M  V30 19 C -2.950575 -1.146064 -3.318194 0
M  V30 20 C -3.261016 -2.097900 -4.422061 0
M  V30 21 O -4.091648 -1.152876 -5.040415 0
M  V30 22 C -4.166429 -0.404457 -3.890408 0
M  V30 23 C -2.756196 -2.884362 -1.639819 0
M  V30 24 C -1.338199 -3.091013 -2.122240 0
M  V30 25 C -0.358115 -2.523914 -1.156443 0 CFG=1
M  V30 26 N 0.551489 -1.622023 -1.877849 0
M  V30 27 C 1.933778 -1.885661 -1.953977 0
M  V30 28 O 2.348413 -2.929881 -1.373332 0
M  V30 29 C 2.814451 -0.972015 -2.679059 0
M  V30 30 C 2.574348 0.204076 -3.374889 0
M  V30 31 N 3.737507 0.679607 -3.875398 0
M  V30 32 C 3.786048 1.908881 -4.655256 0
M  V30 33 C 3.285505 1.669950 -6.064313 0
M  V30 34 C 2.954766 2.981443 -3.998731 0
M  V30 35 C 5.209395 2.400475 -4.736209 0
M  V30 36 N 4.702139 -0.176175 -3.506375 0
M  V30 37 N 4.142394 -1.151855 -2.797047 0
M  V30 38 N -1.702289 -0.529201 4.937185 0
M  V30 39 C 0.249748 -1.840784 6.645609 0
M  V30 40 N 1.253789 -2.560788 7.204165 0
M  V30 41 H 2.862180 -3.686194 8.983724 0
M  V30 42 H 2.838576 -2.132648 9.882037 0
M  V30 43 H 1.654125 -3.400956 10.319672 0
M  V30 44 H -0.027352 -1.130699 9.769032 0
M  V30 45 H -1.849450 0.092368 8.244283 0
M  V30 46 H -4.632923 1.828962 5.097954 0
M  V30 47 H -3.925112 0.944978 2.979380 0
M  V30 48 H -0.212111 -1.968660 3.245288 0
M  V30 49 H 0.520560 -2.871487 1.145742 0
M  V30 50 H -3.284350 0.169644 1.243746 0
M  V30 51 H -2.418761 0.349528 -1.560226 0
M  V30 52 H -3.799285 -0.165681 -0.599132 0
M  V30 53 H -2.066247 -0.478668 -3.472438 0
M  V30 54 H -3.769938 -3.008597 -4.073315 0
M  V30 55 H -2.449169 -2.345196 -5.138995 0
M  V30 56 H -4.025315 0.680602 -4.034476 0
M  V30 57 H -5.067889 -0.585820 -3.267965 0
M  V30 58 H -3.381487 -3.637140 -2.138574 0
M  V30 59 H -2.822550 -3.001360 -0.549941 0
M  V30 60 H -1.221491 -2.617948 -3.096606 0
M  V30 61 H -1.129244 -4.187214 -2.294634 0
M  V30 62 H 0.254956 -3.360071 -0.746077 0
M  V30 63 H 0.108962 -0.770072 -2.332712 0
M  V30 64 H 1.567500 0.621445 -3.461379 0
M  V30 65 H 2.293024 2.145395 -6.235142 0
M  V30 66 H 4.024600 2.025549 -6.809591 0
M  V30 67 H 3.223622 0.562749 -6.216949 0
M  V30 68 H 2.778137 3.754251 -4.768269 0
M  V30 69 H 1.996678 2.611195 -3.601740 0
M  V30 70 H 3.557634 3.409094 -3.193026 0
M  V30 71 H 5.554763 2.480712 -5.799775 0
M  V30 72 H 5.331178 3.378897 -4.222887 0
M  V30 73 H 5.874280 1.688030 -4.217254 0
M  V30 74 H 0.167698 -1.939193 5.593373 0
M  V30 END ATOM
M  V30 BEGIN BOND
M  V30 1 1 1 2
M  V30 2 1 2 3
M  V30 3 2 3 4
M  V30 4 1 4 5
M  V30 5 1 5 6
M  V30 6 2 6 7
M  V30 7 1 7 8
M  V30 8 2 8 9
M  V30 9 1 9 10
M  V30 10 1 10 11
M  V30 11 2 11 12
M  V30 12 1 12 13
M  V30 13 2 13 14
M  V30 14 1 14 15
M  V30 15 2 15 16
M  V30 16 1 15 17
M  V30 17 1 17 18
M  V30 18 1 18 19
M  V30 19 1 19 20
M  V30 20 1 20 21
M  V30 21 1 21 22
M  V30 22 1 18 23
M  V30 23 1 23 24
M  V30 24 1 24 25
M  V30 25 1 25 26
M  V30 26 1 26 27
M  V30 27 2 27 28
M  V30 28 1 27 29
M  V30 29 2 29 30
M  V30 30 1 30 31
M  V30 31 1 31 32
M  V30 32 1 32 33
M  V30 33 1 32 34
M  V30 34 1 32 35
M  V30 35 1 31 36
M  V30 36 2 36 37
M  V30 37 2 10 38
M  V30 38 1 4 39
M  V30 39 2 39 40
M  V30 40 1 40 2
M  V30 41 1 38 6
M  V30 42 1 16 11
M  V30 43 1 22 19
M  V30 44 1 37 29
M  V30 45 1 25 14
M  V30 46 1 1 41
M  V30 47 1 1 42
M  V30 48 1 1 43
M  V30 49 1 3 44
M  V30 50 1 5 45
M  V30 51 1 8 46
M  V30 52 1 9 47
M  V30 53 1 12 48
M  V30 54 1 13 49
M  V30 55 1 16 50
M  V30 56 1 17 51
M  V30 57 1 17 52
M  V30 58 1 19 53
M  V30 59 1 20 54
M  V30 60 1 20 55
M  V30 61 1 22 56
M  V30 62 1 22 57
M  V30 63 1 23 58
M  V30 64 1 23 59
M  V30 65 1 24 60
M  V30 66 1 24 61
M  V30 67 1 25 62 CFG=1
M  V30 68 1 26 63
M  V30 69 1 30 64
M  V30 70 1 33 65
M  V30 71 1 33 66
M  V30 72 1 33 67
M  V30 73 1 34 68
M  V30 74 1 34 69
M  V30 75 1 34 70
M  V30 76 1 35 71
M  V30 77 1 35 72
M  V30 78 1 35 73
M  V30 79 1 39 74
M  V30 END BOND
M  V30 END CTAB
M  END
>  <Dataset>  (755) 
ChEMBL_Kinases

>  <Ligand_Instance>  (755) 
nan

>  <PDB_ID>  (755) 
nan

>  <Standardized_SMILES>  (755) 
Cn1cc(Nc2nccc(-c3ccc4c(c3)CN(C3COC3)CC[C@H]4NC(=O)c3cn(C(C)(C)C)nn3)n2)cn1

>  <Name>  (755) 
BIIB-091

>  <Pocket>  (755) 
nan

>  <ATP_Site>  (755) 
nan

>  <Peripheral>  (755) 
nan

>  <Num_H_Atoms_ProtBoundConf>  (755) 
nan

>  <Num_Resolved_Atoms>  (755) 
nan

>  <Num_Not_Resolved_Atoms>  (755) 
nan

$$$$
CHEMBL137386
     RDKit          3D

  0  0  0  0  0  0  0  0  0  0999 V3000
M  V30 BEGIN CTAB
M  V30 COUNTS 65 65 0 0 0
M  V30 BEGIN ATOM
M  V30 1 C 0.876097 -3.211538 6.190832 0
M  V30 2 C 0.408760 -2.742152 4.772576 0
M  V30 3 C -0.612925 -1.657881 4.879527 0
M  V30 4 C 1.557771 -2.364142 3.949208 0
M  V30 5 C 1.085097 -1.838633 2.516345 0
M  V30 6 C 2.455461 -1.514219 1.931833 0
M  V30 7 C 2.640605 -0.886536 0.679732 0
M  V30 8 C 2.167852 -0.163034 -0.265194 0
M  V30 9 C 0.753361 0.361680 -0.159371 0
M  V30 10 C 0.973246 1.823661 -0.638270 0
M  V30 11 C 1.607576 2.574310 0.492950 0
M  V30 12 O 0.767659 2.754767 1.554989 0
M  V30 13 C -0.327837 2.448694 -0.991441 0
M  V30 14 O -1.075304 1.681577 -1.942323 0
M  V30 15 C -2.327942 2.166269 -2.362121 0
M  V30 16 O -2.747120 3.270009 -1.877834 0
M  V30 17 C -3.005879 1.293589 -3.342774 0
M  V30 18 C -2.165395 1.125400 -4.590554 0
M  V30 19 C -3.309275 -0.071865 -2.726275 0
M  V30 20 C -4.302885 1.926404 -3.751008 0
M  V30 21 O 1.837674 1.639082 -1.747884 0
M  V30 22 C 2.560961 0.428822 -1.541382 0
M  V30 23 O 3.434614 -0.201662 -2.213486 0
M  V30 24 C 0.400953 -2.995121 1.928278 0
M  V30 25 C -0.232086 -3.077659 0.618005 0
M  V30 26 C -1.360359 -2.173928 0.284649 0
M  V30 27 C 0.703009 -3.205047 -0.557576 0
M  V30 28 H 1.576962 -4.028268 6.006229 0
M  V30 29 H 1.325685 -2.368224 6.714709 0
M  V30 30 H -0.032815 -3.629893 6.652647 0
M  V30 31 H -0.042379 -3.696726 4.396872 0
M  V30 32 H -1.075133 -1.620837 5.898878 0
M  V30 33 H -1.463315 -1.786138 4.182361 0
M  V30 34 H -0.166235 -0.662173 4.656906 0
M  V30 35 H 2.247221 -3.213877 3.760696 0
M  V30 36 H 2.197343 -1.558420 4.361535 0
M  V30 37 H 0.559238 -0.948276 2.774568 0
M  V30 38 H 3.067544 -0.997604 2.767792 0
M  V30 39 H 3.039808 -2.512759 1.892810 0
M  V30 40 H 3.680983 -1.089620 0.317497 0
M  V30 41 H 0.187611 -0.086696 -0.964776 0
M  V30 42 H 0.358533 0.339585 0.841638 0
M  V30 43 H 1.844111 3.605354 0.097440 0
M  V30 44 H 2.562905 2.090240 0.817099 0
M  V30 45 H 0.012685 2.159180 1.648261 0
M  V30 46 H -0.982484 2.504169 -0.085884 0
M  V30 47 H -0.187688 3.460632 -1.360724 0
M  V30 48 H -2.785375 0.939125 -5.487694 0
M  V30 49 H -1.567716 0.177241 -4.450235 0
M  V30 50 H -1.493664 1.969124 -4.786881 0
M  V30 51 H -2.334892 -0.524991 -2.448551 0
M  V30 52 H -3.910042 -0.695048 -3.386735 0
M  V30 53 H -3.857986 0.138080 -1.785756 0
M  V30 54 H -4.103281 2.699116 -4.541383 0
M  V30 55 H -4.864589 2.348445 -2.892567 0
M  V30 56 H -4.962631 1.110742 -4.168686 0
M  V30 57 H -0.409882 -3.326516 2.687377 0
M  V30 58 H 1.103289 -3.889619 2.011263 0
M  V30 59 H -0.756626 -4.133124 0.606994 0
M  V30 60 H -1.292199 -1.905713 -0.788837 0
M  V30 61 H -1.412385 -1.225111 0.845278 0
M  V30 62 H -2.383575 -2.678469 0.338805 0
M  V30 63 H 0.676234 -2.371812 -1.267330 0
M  V30 64 H 0.457641 -4.140382 -1.162204 0
M  V30 65 H 1.742347 -3.449391 -0.186049 0
M  V30 END ATOM
M  V30 BEGIN BOND
M  V30 1 1 1 2
M  V30 2 1 2 3
M  V30 3 1 2 4
M  V30 4 1 4 5
M  V30 5 1 5 6
M  V30 6 1 6 7
M  V30 7 2 7 8
M  V30 8 1 8 9
M  V30 9 1 9 10
M  V30 10 1 10 11
M  V30 11 1 11 12
M  V30 12 1 10 13
M  V30 13 1 13 14
M  V30 14 1 14 15
M  V30 15 2 15 16
M  V30 16 1 15 17
M  V30 17 1 17 18
M  V30 18 1 17 19
M  V30 19 1 17 20
M  V30 20 1 10 21
M  V30 21 1 21 22
M  V30 22 2 22 23
M  V30 23 1 5 24
M  V30 24 1 24 25
M  V30 25 1 25 26
M  V30 26 1 25 27
M  V30 27 1 22 8
M  V30 28 1 1 28
M  V30 29 1 1 29
M  V30 30 1 1 30
M  V30 31 1 2 31
M  V30 32 1 3 32
M  V30 33 1 3 33
M  V30 34 1 3 34
M  V30 35 1 4 35
M  V30 36 1 4 36
M  V30 37 1 5 37
M  V30 38 1 6 38
M  V30 39 1 6 39
M  V30 40 1 7 40
M  V30 41 1 9 41
M  V30 42 1 9 42
M  V30 43 1 11 43
M  V30 44 1 11 44
M  V30 45 1 12 45
M  V30 46 1 13 46
M  V30 47 1 13 47
M  V30 48 1 18 48
M  V30 49 1 18 49
M  V30 50 1 18 50
M  V30 51 1 19 51
M  V30 52 1 19 52
M  V30 53 1 19 53
M  V30 54 1 20 54
M  V30 55 1 20 55
M  V30 56 1 20 56
M  V30 57 1 24 57
M  V30 58 1 24 58
M  V30 59 1 25 59
M  V30 60 1 26 60
M  V30 61 1 26 61
M  V30 62 1 26 62
M  V30 63 1 27 63
M  V30 64 1 27 64
M  V30 65 1 27 65
M  V30 END BOND
M  V30 END CTAB
M  END
>  <Dataset>  (756) 
ChEMBL_Kinases

>  <Ligand_Instance>  (756) 
nan

>  <PDB_ID>  (756) 
nan

>  <Standardized_SMILES>  (756) 
CC(C)CC(C/C=C1\CC(CO)(COC(=O)C(C)(C)C)OC1=O)CC(C)C

>  <Name>  (756) 
nan

>  <Pocket>  (756) 
nan

>  <ATP_Site>  (756) 
nan

>  <Peripheral>  (756) 
nan

>  <Num_H_Atoms_ProtBoundConf>  (756) 
nan

>  <Num_Resolved_Atoms>  (756) 
nan

>  <Num_Not_Resolved_Atoms>  (756) 
nan

$$$$
CHEMBL3775538
     RDKit          3D

  0  0  0  0  0  0  0  0  0  0999 V3000
M  V30 BEGIN CTAB
M  V30 COUNTS 28 30 0 0 0
M  V30 BEGIN ATOM
M  V30 1 C -2.438799 0.349839 2.347861 0
M  V30 2 C -1.914629 -0.883375 3.094022 0
M  V30 3 C -0.845629 -1.538799 2.209550 0
M  V30 4 C 0.379643 -0.911953 2.793064 0
M  V30 5 C 1.469372 -0.523484 2.105983 0
M  V30 6 C 1.504145 -0.714946 0.660436 0
M  V30 7 C 1.138771 -1.826072 -0.042723 0
M  V30 8 C 1.182536 -1.896416 -1.396230 0
M  V30 9 C 1.603134 -0.844200 -2.181480 0
M  V30 10 N 1.668462 -0.845264 -3.498999 0
M  V30 11 C 2.049046 0.128243 -4.149880 0
M  V30 12 S 2.443492 1.413582 -2.781778 0
M  V30 13 C 1.996423 0.345032 -1.495553 0
M  V30 14 C 1.933736 0.374723 -0.067601 0
M  V30 15 C 0.102985 -0.814366 4.236757 0
M  V30 16 O 1.064265 -0.971467 5.070942 0
M  V30 17 O -1.284570 -0.549441 4.305771 0
M  V30 18 H -1.772071 0.556687 1.467110 0
M  V30 19 H -3.466642 0.141147 1.937470 0
M  V30 20 H -2.411991 1.263012 2.984702 0
M  V30 21 H -2.735568 -1.607633 3.274382 0
M  V30 22 H -0.790765 -2.604030 2.471339 0
M  V30 23 H -1.030316 -1.293939 1.173447 0
M  V30 24 H 2.275542 -0.075396 2.667304 0
M  V30 25 H 0.812553 -2.670896 0.593977 0
M  V30 26 H 0.859331 -2.865554 -1.793434 0
M  V30 27 H 2.161849 0.303973 -5.205671 0
M  V30 28 H 2.251301 1.308005 0.321840 0
M  V30 END ATOM
M  V30 BEGIN BOND
M  V30 1 1 1 2
M  V30 2 1 2 3
M  V30 3 1 3 4
M  V30 4 2 4 5
M  V30 5 1 5 6
M  V30 6 2 6 7
M  V30 7 1 7 8
M  V30 8 2 8 9
M  V30 9 1 9 10
M  V30 10 2 10 11
M  V30 11 1 11 12
M  V30 12 1 12 13
M  V30 13 2 13 14
M  V30 14 1 4 15
M  V30 15 2 15 16
M  V30 16 1 15 17
M  V30 17 1 17 2
M  V30 18 1 14 6
M  V30 19 1 13 9
M  V30 20 1 1 18
M  V30 21 1 1 19
M  V30 22 1 1 20
M  V30 23 1 2 21
M  V30 24 1 3 22
M  V30 25 1 3 23
M  V30 26 1 5 24
M  V30 27 1 7 25
M  V30 28 1 8 26
M  V30 29 1 11 27
M  V30 30 1 14 28
M  V30 END BOND
M  V30 END CTAB
M  END
>  <Dataset>  (757) 
ChEMBL_Kinases

>  <Ligand_Instance>  (757) 
nan

>  <PDB_ID>  (757) 
nan

>  <Standardized_SMILES>  (757) 
CC1C/C(=C\c2ccc3ncsc3c2)C(=O)O1

>  <Name>  (757) 
nan

>  <Pocket>  (757) 
nan

>  <ATP_Site>  (757) 
nan

>  <Peripheral>  (757) 
nan

>  <Num_H_Atoms_ProtBoundConf>  (757) 
nan

>  <Num_Resolved_Atoms>  (757) 
nan

>  <Num_Not_Resolved_Atoms>  (757) 
nan

$$$$
CHEMBL3775193
     RDKit          3D

  0  0  0  0  0  0  0  0  0  0999 V3000
M  V30 BEGIN CTAB
M  V30 COUNTS 31 33 0 0 0
M  V30 BEGIN ATOM
M  V30 1 O -1.683637 -5.357905 0.047995 0
M  V30 2 C -0.997904 -4.684511 0.881553 0
M  V30 3 O -0.651406 -5.072369 2.171704 0
M  V30 4 C -0.077439 -3.960409 2.835367 0
M  V30 5 C -0.446097 -2.756172 1.985712 0
M  V30 6 C -0.441012 -3.345957 0.610219 0
M  V30 7 C -0.040448 -2.905479 -0.595205 0
M  V30 8 C 0.468950 -1.546600 -0.609641 0
M  V30 9 C 1.641204 -1.099901 -1.163463 0
M  V30 10 C 2.012703 0.224643 -1.149395 0
M  V30 11 C 1.180951 1.152312 -0.557330 0
M  V30 12 C -0.021800 0.714816 0.013903 0
M  V30 13 C -0.374789 -0.625244 -0.011218 0
M  V30 14 C -0.857739 1.812602 0.599633 0
M  V30 15 C -0.003007 2.579821 1.560612 0
M  V30 16 C 1.165381 3.195089 0.802164 0
M  V30 17 O 1.391326 2.542337 -0.445927 0
M  V30 18 H 1.022968 -4.063184 2.823286 0
M  V30 19 H -0.478596 -3.893827 3.855764 0
M  V30 20 H 0.286857 -1.945770 2.027241 0
M  V30 21 H -1.454796 -2.396067 2.224137 0
M  V30 22 H -0.131720 -3.593213 -1.451705 0
M  V30 23 H 2.261778 -1.836527 -1.621255 0
M  V30 24 H 2.920931 0.597154 -1.575457 0
M  V30 25 H -1.336055 -0.815270 0.464265 0
M  V30 26 H -1.786236 1.457675 1.053300 0
M  V30 27 H -1.117183 2.510433 -0.235421 0
M  V30 28 H 0.331665 1.867999 2.339568 0
M  V30 29 H -0.614404 3.406445 1.972464 0
M  V30 30 H 2.055030 3.068709 1.462435 0
M  V30 31 H 0.929159 4.244059 0.600157 0
M  V30 END ATOM
M  V30 BEGIN BOND
M  V30 1 2 1 2
M  V30 2 1 2 3
M  V30 3 1 3 4
M  V30 4 1 4 5
M  V30 5 1 5 6
M  V30 6 2 6 7
M  V30 7 1 7 8
M  V30 8 2 8 9
M  V30 9 1 9 10
M  V30 10 2 10 11
M  V30 11 1 11 12
M  V30 12 2 12 13
M  V30 13 1 12 14
M  V30 14 1 14 15
M  V30 15 1 15 16
M  V30 16 1 16 17
M  V30 17 1 6 2
M  V30 18 1 13 8
M  V30 19 1 17 11
M  V30 20 1 4 18
M  V30 21 1 4 19
M  V30 22 1 5 20
M  V30 23 1 5 21
M  V30 24 1 7 22
M  V30 25 1 9 23
M  V30 26 1 10 24
M  V30 27 1 13 25
M  V30 28 1 14 26
M  V30 29 1 14 27
M  V30 30 1 15 28
M  V30 31 1 15 29
M  V30 32 1 16 30
M  V30 33 1 16 31
M  V30 END BOND
M  V30 END CTAB
M  END
>  <Dataset>  (758) 
ChEMBL_Kinases

>  <Ligand_Instance>  (758) 
nan

>  <PDB_ID>  (758) 
nan

>  <Standardized_SMILES>  (758) 
O=C1OCC/C1=C\c1ccc2c(c1)CCCO2

>  <Name>  (758) 
nan

>  <Pocket>  (758) 
nan

>  <ATP_Site>  (758) 
nan

>  <Peripheral>  (758) 
nan

>  <Num_H_Atoms_ProtBoundConf>  (758) 
nan

>  <Num_Resolved_Atoms>  (758) 
nan

>  <Num_Not_Resolved_Atoms>  (758) 
nan

$$$$
CHEMBL3775111
     RDKit          3D

  0  0  0  0  0  0  0  0  0  0999 V3000
M  V30 BEGIN CTAB
M  V30 COUNTS 31 33 0 0 0
M  V30 BEGIN ATOM
M  V30 1 C -1.277032 -0.198762 3.569914 0
M  V30 2 C -1.220508 -1.699659 3.758345 0
M  V30 3 C -0.778651 -2.279388 2.397222 0
M  V30 4 C 0.689675 -2.020089 2.522895 0
M  V30 5 C 1.569442 -1.576390 1.642550 0
M  V30 6 C 1.059584 -1.278529 0.295529 0
M  V30 7 C 0.266910 -2.080798 -0.495687 0
M  V30 8 C -0.152092 -1.629201 -1.730587 0
M  V30 9 C 0.229257 -0.365593 -2.167202 0
M  V30 10 C 1.031881 0.446372 -1.362383 0
M  V30 11 C 1.457721 -0.009309 -0.112535 0
M  V30 12 C 1.224418 1.726650 -2.120542 0
M  V30 13 C -0.005200 1.711509 -3.001045 0
M  V30 14 O -0.046223 0.327463 -3.350318 0
M  V30 15 C 0.947255 -2.391699 3.932572 0
M  V30 16 O 2.067278 -2.877519 4.322620 0
M  V30 17 O -0.224354 -2.109416 4.672712 0
M  V30 18 H -0.275383 0.183614 3.317610 0
M  V30 19 H -1.929253 -0.009276 2.690158 0
M  V30 20 H -1.632132 0.353984 4.454088 0
M  V30 21 H -2.205072 -2.112868 3.966409 0
M  V30 22 H -0.898590 -3.375464 2.397551 0
M  V30 23 H -1.259306 -1.789061 1.565032 0
M  V30 24 H 2.614945 -1.455385 1.963648 0
M  V30 25 H 0.027156 -3.050481 -0.049100 0
M  V30 26 H -0.764117 -2.297882 -2.295551 0
M  V30 27 H 2.075667 0.678961 0.445111 0
M  V30 28 H 2.156214 1.744981 -2.694672 0
M  V30 29 H 1.118444 2.568158 -1.396725 0
M  V30 30 H 0.156211 2.358558 -3.864658 0
M  V30 31 H -0.869508 1.982209 -2.357502 0
M  V30 END ATOM
M  V30 BEGIN BOND
M  V30 1 1 1 2
M  V30 2 1 2 3
M  V30 3 1 3 4
M  V30 4 2 4 5
M  V30 5 1 5 6
M  V30 6 2 6 7
M  V30 7 1 7 8
M  V30 8 2 8 9
M  V30 9 1 9 10
M  V30 10 2 10 11
M  V30 11 1 10 12
M  V30 12 1 12 13
M  V30 13 1 13 14
M  V30 14 1 4 15
M  V30 15 2 15 16
M  V30 16 1 15 17
M  V30 17 1 17 2
M  V30 18 1 11 6
M  V30 19 1 14 9
M  V30 20 1 1 18
M  V30 21 1 1 19
M  V30 22 1 1 20
M  V30 23 1 2 21
M  V30 24 1 3 22
M  V30 25 1 3 23
M  V30 26 1 5 24
M  V30 27 1 7 25
M  V30 28 1 8 26
M  V30 29 1 11 27
M  V30 30 1 12 28
M  V30 31 1 12 29
M  V30 32 1 13 30
M  V30 33 1 13 31
M  V30 END BOND
M  V30 END CTAB
M  END
>  <Dataset>  (759) 
ChEMBL_Kinases

>  <Ligand_Instance>  (759) 
nan

>  <PDB_ID>  (759) 
nan

>  <Standardized_SMILES>  (759) 
CC1C/C(=C\c2ccc3c(c2)CCO3)C(=O)O1

>  <Name>  (759) 
nan

>  <Pocket>  (759) 
nan

>  <ATP_Site>  (759) 
nan

>  <Peripheral>  (759) 
nan

>  <Num_H_Atoms_ProtBoundConf>  (759) 
nan

>  <Num_Resolved_Atoms>  (759) 
nan

>  <Num_Not_Resolved_Atoms>  (759) 
nan

$$$$
CHEMBL3774736
     RDKit          3D

  0  0  0  0  0  0  0  0  0  0999 V3000
M  V30 BEGIN CTAB
M  V30 COUNTS 30 31 0 0 0
M  V30 BEGIN ATOM
M  V30 1 C -2.180917 -3.914300 4.245604 0
M  V30 2 O -0.956052 -3.711486 3.542452 0
M  V30 3 C -0.605247 -2.501067 2.953732 0
M  V30 4 C 0.608825 -2.398516 2.281732 0
M  V30 5 C 0.949030 -1.186168 1.697810 0
M  V30 6 C 0.112848 -0.069226 1.764079 0
M  V30 7 C 0.660346 1.105006 1.047673 0
M  V30 8 C 1.145359 0.953519 -0.187325 0
M  V30 9 C 1.241280 -0.280896 -1.049156 0
M  V30 10 C 0.811077 0.104810 -2.464546 0
M  V30 11 C 1.900861 0.977358 -3.046733 0
M  V30 12 O 1.985639 2.137714 -2.276334 0
M  V30 13 C 1.712509 2.103087 -0.907975 0
M  V30 14 O 1.988933 3.163507 -0.277797 0
M  V30 15 C -1.085792 -0.183980 2.432663 0
M  V30 16 C -1.441805 -1.382673 3.020202 0
M  V30 17 H -2.085730 -4.847526 4.843204 0
M  V30 18 H -2.276485 -3.043656 4.923334 0
M  V30 19 H -3.052123 -3.899788 3.565884 0
M  V30 20 H 1.291322 -3.238631 2.202724 0
M  V30 21 H 1.927422 -1.166793 1.188453 0
M  V30 22 H 0.710302 2.120520 1.433983 0
M  V30 23 H 0.532760 -1.040173 -0.700187 0
M  V30 24 H 2.282584 -0.599888 -1.123749 0
M  V30 25 H 0.744241 -0.812842 -3.046697 0
M  V30 26 H -0.136414 0.646020 -2.399352 0
M  V30 27 H 1.638519 1.245642 -4.086193 0
M  V30 28 H 2.853778 0.400597 -2.973783 0
M  V30 29 H -1.675280 0.724633 2.441582 0
M  V30 30 H -2.398917 -1.421947 3.537623 0
M  V30 END ATOM
M  V30 BEGIN BOND
M  V30 1 1 1 2
M  V30 2 1 2 3
M  V30 3 2 3 4
M  V30 4 1 4 5
M  V30 5 2 5 6
M  V30 6 1 6 7
M  V30 7 2 7 8
M  V30 8 1 8 9
M  V30 9 1 9 10
M  V30 10 1 10 11
M  V30 11 1 11 12
M  V30 12 1 12 13
M  V30 13 2 13 14
M  V30 14 1 6 15
M  V30 15 2 15 16
M  V30 16 1 16 3
M  V30 17 1 13 8
M  V30 18 1 1 17
M  V30 19 1 1 18
M  V30 20 1 1 19
M  V30 21 1 4 20
M  V30 22 1 5 21
M  V30 23 1 7 22
M  V30 24 1 9 23
M  V30 25 1 9 24
M  V30 26 1 10 25
M  V30 27 1 10 26
M  V30 28 1 11 27
M  V30 29 1 11 28
M  V30 30 1 15 29
M  V30 31 1 16 30
M  V30 END BOND
M  V30 END CTAB
M  END
>  <Dataset>  (760) 
ChEMBL_Kinases

>  <Ligand_Instance>  (760) 
nan

>  <PDB_ID>  (760) 
nan

>  <Standardized_SMILES>  (760) 
COc1ccc(/C=C2\CCCOC2=O)cc1

>  <Name>  (760) 
nan

>  <Pocket>  (760) 
nan

>  <ATP_Site>  (760) 
nan

>  <Peripheral>  (760) 
nan

>  <Num_H_Atoms_ProtBoundConf>  (760) 
nan

>  <Num_Resolved_Atoms>  (760) 
nan

>  <Num_Not_Resolved_Atoms>  (760) 
nan

$$$$
CHEMBL3774704
     RDKit          3D

  0  0  0  0  0  0  0  0  0  0999 V3000
M  V30 BEGIN CTAB
M  V30 COUNTS 25 27 0 0 0
M  V30 BEGIN ATOM
M  V30 1 O -1.667733 -2.550838 4.159989 0
M  V30 2 C -0.967938 -2.724627 3.122918 0
M  V30 3 O -0.504228 -4.005653 2.754208 0
M  V30 4 C 0.267491 -3.868986 1.561397 0
M  V30 5 C -0.276842 -2.569941 0.942575 0
M  V30 6 C -0.514764 -1.727006 2.148486 0
M  V30 7 C -0.382222 -0.425467 2.429314 0
M  V30 8 C 0.070130 0.405265 1.353341 0
M  V30 9 C -0.385404 0.294508 0.036138 0
M  V30 10 C -0.015813 1.038069 -1.050048 0
M  V30 11 C 0.936118 2.039804 -0.840860 0
M  V30 12 N 1.497990 2.901959 -1.615048 0
M  V30 13 C 2.242585 3.721503 -1.574438 0
M  V30 14 S 2.591344 3.540304 0.310424 0
M  V30 15 C 1.404641 2.172933 0.448080 0
M  V30 16 C 1.019549 1.409020 1.552922 0
M  V30 17 H 0.128349 -4.735540 0.930103 0
M  V30 18 H 1.325249 -3.733010 1.877758 0
M  V30 19 H -1.206397 -2.819480 0.436833 0
M  V30 20 H 0.514072 -2.158211 0.327720 0
M  V30 21 H -0.608916 -0.056094 3.413923 0
M  V30 22 H -1.138783 -0.496798 -0.124784 0
M  V30 23 H -0.470043 0.823796 -2.011331 0
M  V30 24 H 2.773968 4.513628 -2.258433 0
M  V30 25 H 1.453043 1.606224 2.498774 0
M  V30 END ATOM
M  V30 BEGIN BOND
M  V30 1 2 1 2
M  V30 2 1 2 3
M  V30 3 1 3 4
M  V30 4 1 4 5
M  V30 5 1 5 6
M  V30 6 2 6 7
M  V30 7 1 7 8
M  V30 8 2 8 9
M  V30 9 1 9 10
M  V30 10 2 10 11
M  V30 11 1 11 12
M  V30 12 2 12 13
M  V30 13 1 13 14
M  V30 14 1 14 15
M  V30 15 2 15 16
M  V30 16 1 6 2
M  V30 17 1 16 8
M  V30 18 1 15 11
M  V30 19 1 4 17
M  V30 20 1 4 18
M  V30 21 1 5 19
M  V30 22 1 5 20
M  V30 23 1 7 21
M  V30 24 1 9 22
M  V30 25 1 10 23
M  V30 26 1 13 24
M  V30 27 1 16 25
M  V30 END BOND
M  V30 END CTAB
M  END
>  <Dataset>  (761) 
ChEMBL_Kinases

>  <Ligand_Instance>  (761) 
nan

>  <PDB_ID>  (761) 
nan

>  <Standardized_SMILES>  (761) 
O=C1OCC/C1=C\c1ccc2ncsc2c1

>  <Name>  (761) 
nan

>  <Pocket>  (761) 
nan

>  <ATP_Site>  (761) 
nan

>  <Peripheral>  (761) 
nan

>  <Num_H_Atoms_ProtBoundConf>  (761) 
nan

>  <Num_Resolved_Atoms>  (761) 
nan

>  <Num_Not_Resolved_Atoms>  (761) 
nan

$$$$
CHEMBL3774696
     RDKit          3D

  0  0  0  0  0  0  0  0  0  0999 V3000
M  V30 BEGIN CTAB
M  V30 COUNTS 29 31 0 0 0
M  V30 BEGIN ATOM
M  V30 1 O -3.337064 -3.905075 -0.366745 0
M  V30 2 C -2.187383 -3.968195 0.173491 0
M  V30 3 O -1.522984 -5.016619 0.804602 0
M  V30 4 C -0.156555 -4.950033 0.526689 0
M  V30 5 C 0.122371 -3.459301 0.471676 0
M  V30 6 C -1.215284 -2.890988 0.274836 0
M  V30 7 C -1.629628 -1.615636 0.220849 0
M  V30 8 C -0.691274 -0.509339 0.312498 0
M  V30 9 C 0.357485 -0.573477 -0.574147 0
M  V30 10 C 1.352542 0.409220 -0.580165 0
M  V30 11 C 1.258967 1.454980 0.329922 0
M  V30 12 C 0.200634 1.504282 1.212299 0
M  V30 13 C -0.792116 0.524859 1.219316 0
M  V30 14 O 0.185785 2.584486 2.088514 0
M  V30 15 C 1.407926 3.064222 2.676637 0
M  V30 16 C 2.556939 2.992655 1.720854 0
M  V30 17 O 2.165503 2.502933 0.445038 0
M  V30 18 H 0.462720 -5.449767 1.303473 0
M  V30 19 H 0.001492 -5.364391 -0.473164 0
M  V30 20 H 0.551369 -3.175918 1.472388 0
M  V30 21 H 0.845919 -3.328287 -0.332920 0
M  V30 22 H -2.645522 -1.272557 0.105140 0
M  V30 23 H 0.574117 -1.285878 -1.341774 0
M  V30 24 H 2.214368 0.430926 -1.254518 0
M  V30 25 H -1.614985 0.565019 1.907472 0
M  V30 26 H 1.273314 4.056481 3.125615 0
M  V30 27 H 1.624061 2.370621 3.514496 0
M  V30 28 H 3.347338 2.273984 2.065240 0
M  V30 29 H 3.012838 3.978393 1.601083 0
M  V30 END ATOM
M  V30 BEGIN BOND
M  V30 1 2 1 2
M  V30 2 1 2 3
M  V30 3 1 3 4
M  V30 4 1 4 5
M  V30 5 1 5 6
M  V30 6 2 6 7
M  V30 7 1 7 8
M  V30 8 2 8 9
M  V30 9 1 9 10
M  V30 10 2 10 11
M  V30 11 1 11 12
M  V30 12 2 12 13
M  V30 13 1 12 14
M  V30 14 1 14 15
M  V30 15 1 15 16
M  V30 16 1 16 17
M  V30 17 1 6 2
M  V30 18 1 13 8
M  V30 19 1 17 11
M  V30 20 1 4 18
M  V30 21 1 4 19
M  V30 22 1 5 20
M  V30 23 1 5 21
M  V30 24 1 7 22
M  V30 25 1 9 23
M  V30 26 1 10 24
M  V30 27 1 13 25
M  V30 28 1 15 26
M  V30 29 1 15 27
M  V30 30 1 16 28
M  V30 31 1 16 29
M  V30 END BOND
M  V30 END CTAB
M  END
>  <Dataset>  (762) 
ChEMBL_Kinases

>  <Ligand_Instance>  (762) 
nan

>  <PDB_ID>  (762) 
nan

>  <Standardized_SMILES>  (762) 
O=C1OCC/C1=C\c1ccc2c(c1)OCCO2

>  <Name>  (762) 
nan

>  <Pocket>  (762) 
nan

>  <ATP_Site>  (762) 
nan

>  <Peripheral>  (762) 
nan

>  <Num_H_Atoms_ProtBoundConf>  (762) 
nan

>  <Num_Resolved_Atoms>  (762) 
nan

>  <Num_Not_Resolved_Atoms>  (762) 
nan

$$$$
CHEMBL5084166
     RDKit          3D

  0  0  0  0  0  0  0  0  0  0999 V3000
M  V30 BEGIN CTAB
M  V30 COUNTS 49 52 0 0 0
M  V30 BEGIN ATOM
M  V30 1 C -2.355892 -0.954690 4.030238 0
M  V30 2 C -1.201368 -0.268383 3.365068 0
M  V30 3 N -0.212893 0.348063 4.038224 0
M  V30 4 C 0.686386 0.874998 3.184578 0
M  V30 5 C 1.868237 1.594680 3.236613 0
M  V30 6 C 2.529894 1.970323 2.085329 0
M  V30 7 C 1.994620 1.616720 0.864908 0
M  V30 8 C 2.618912 1.966890 -0.405056 0
M  V30 9 C 2.003029 1.565485 -1.572081 0
M  V30 10 C 2.531356 1.857558 -2.831606 0
M  V30 11 N 1.877916 1.432589 -4.030031 0
M  V30 12 N 3.697038 2.564922 -2.888522 0
M  V30 13 C 4.314739 2.966472 -1.763059 0
M  V30 14 N 5.522295 3.696585 -1.936664 0
M  V30 15 C 3.793727 2.678135 -0.533904 0
M  V30 16 N 0.847246 0.917811 0.805266 0
M  V30 17 C 0.186197 0.542142 1.939739 0
M  V30 18 N -0.971238 -0.159483 2.025514 0
M  V30 19 C -1.796813 -0.685762 0.971246 0
M  V30 20 C -1.420371 -2.096370 0.556414 0 CFG=1
M  V30 21 C 0.011310 -2.134790 0.058253 0
M  V30 22 O -1.643267 -2.994003 1.602428 0
M  V30 23 C -2.594166 -4.001298 1.446502 0
M  V30 24 C -2.748116 -4.844580 2.534942 0
M  V30 25 C -3.668336 -5.893276 2.505054 0
M  V30 26 C -4.393826 -6.025577 1.344470 0
M  V30 27 C -4.244372 -5.189657 0.259531 0
M  V30 28 Br -5.279318 -5.405542 -1.351337 0
M  V30 29 N -3.348105 -4.190596 0.325192 0
M  V30 30 H -2.172314 -2.026280 4.121685 0
M  V30 31 H -2.519123 -0.485771 5.035059 0
M  V30 32 H -3.257383 -0.675841 3.446861 0
M  V30 33 H 2.235727 1.841230 4.240450 0
M  V30 34 H 3.445123 2.527955 2.138304 0
M  V30 35 H 1.070456 0.998151 -1.588101 0
M  V30 36 H 1.904899 0.477329 -4.421837 0
M  V30 37 H 1.284695 2.022678 -4.675295 0
M  V30 38 H 5.954326 4.624142 -1.729233 0
M  V30 39 H 6.451350 3.499358 -2.377376 0
M  V30 40 H 4.292638 3.001942 0.348229 0
M  V30 41 H -1.708012 -0.060609 0.045478 0
M  V30 42 H -2.865923 -0.717489 1.281491 0
M  V30 43 H -2.084173 -2.344126 -0.297192 0
M  V30 44 H 0.708326 -1.932892 0.898696 0
M  V30 45 H 0.223877 -3.115320 -0.386198 0
M  V30 46 H 0.176684 -1.346652 -0.697763 0
M  V30 47 H -2.173526 -4.742168 3.458043 0
M  V30 48 H -3.834712 -6.584944 3.321651 0
M  V30 49 H -5.144859 -6.817510 1.215397 0
M  V30 END ATOM
M  V30 BEGIN BOND
M  V30 1 1 1 2
M  V30 2 2 2 3
M  V30 3 1 3 4
M  V30 4 2 4 5
M  V30 5 1 5 6
M  V30 6 2 6 7
M  V30 7 1 7 8
M  V30 8 2 8 9
M  V30 9 1 9 10
M  V30 10 1 10 11
M  V30 11 2 10 12
M  V30 12 1 12 13
M  V30 13 1 13 14
M  V30 14 2 13 15
M  V30 15 1 7 16
M  V30 16 2 16 17
M  V30 17 1 17 18
M  V30 18 1 18 19
M  V30 19 1 19 20
M  V30 20 1 20 21
M  V30 21 1 20 22
M  V30 22 1 22 23
M  V30 23 2 23 24
M  V30 24 1 24 25
M  V30 25 2 25 26
M  V30 26 1 26 27
M  V30 27 1 27 28
M  V30 28 2 27 29
M  V30 29 1 18 2
M  V30 30 1 29 23
M  V30 31 1 17 4
M  V30 32 1 15 8
M  V30 33 1 1 30
M  V30 34 1 1 31
M  V30 35 1 1 32
M  V30 36 1 5 33
M  V30 37 1 6 34
M  V30 38 1 9 35
M  V30 39 1 11 36
M  V30 40 1 11 37
M  V30 41 1 14 38
M  V30 42 1 14 39
M  V30 43 1 15 40
M  V30 44 1 19 41
M  V30 45 1 19 42
M  V30 46 1 20 43 CFG=3
M  V30 47 1 21 44
M  V30 48 1 21 45
M  V30 49 1 21 46
M  V30 50 1 24 47
M  V30 51 1 25 48
M  V30 52 1 26 49
M  V30 END BOND
M  V30 END CTAB
M  END
>  <Dataset>  (763) 
ChEMBL_Kinases

>  <Ligand_Instance>  (763) 
nan

>  <PDB_ID>  (763) 
nan

>  <Standardized_SMILES>  (763) 
Cc1nc2ccc(-c3cc(N)nc(N)c3)nc2n1C[C@@H](C)Oc1cccc(Br)n1

>  <Name>  (763) 
nan

>  <Pocket>  (763) 
nan

>  <ATP_Site>  (763) 
nan

>  <Peripheral>  (763) 
nan

>  <Num_H_Atoms_ProtBoundConf>  (763) 
nan

>  <Num_Resolved_Atoms>  (763) 
nan

>  <Num_Not_Resolved_Atoms>  (763) 
nan

$$$$
CHEMBL5084426
     RDKit          3D

  0  0  0  0  0  0  0  0  0  0999 V3000
M  V30 BEGIN CTAB
M  V30 COUNTS 63 67 0 0 0
M  V30 BEGIN ATOM
M  V30 1 C 7.476013 -2.294443 1.252941 0
M  V30 2 O 6.323030 -1.548839 1.571440 0
M  V30 3 C 6.393612 -0.275742 2.118949 0
M  V30 4 C 7.582869 0.361652 2.394446 0
M  V30 5 N 7.592969 1.615895 2.932124 0
M  V30 6 C 6.458147 2.278541 3.214144 0
M  V30 7 C 5.258294 1.643585 2.939577 0
M  V30 8 C 5.205179 0.373587 2.395344 0
M  V30 9 N 3.999883 -0.276381 2.118734 0
M  V30 10 C 2.646320 0.031819 2.239539 0
M  V30 11 N 1.789858 0.131982 1.208502 0
M  V30 12 C 0.486158 0.434285 1.341567 0
M  V30 13 C -0.370244 0.519578 0.155288 0
M  V30 14 N -1.681188 0.797706 0.067472 0
M  V30 15 N -2.105680 0.784718 -1.187390 0
M  V30 16 C -3.512926 1.050052 -1.389668 0
M  V30 17 C -4.375940 -0.148701 -1.266039 0
M  V30 18 C -4.544095 -1.140421 -2.198961 0
M  V30 19 F -3.894671 -1.076970 -3.354770 0
M  V30 20 C -5.370322 -2.192885 -1.963693 0
M  V30 21 C -6.095635 -2.366795 -0.813399 0
M  V30 22 O -6.959583 -3.287386 -0.350678 0
M  V30 23 C -7.527322 -4.437754 -0.789936 0
M  V30 24 C -8.428388 -4.377672 -1.984170 0
M  V30 25 O -7.878680 -3.922426 -3.149468 0
M  V30 26 C -5.926440 -1.351903 0.147737 0
M  V30 27 C -5.088649 -0.264355 -0.064584 0
M  V30 28 F -4.940052 0.715749 0.888913 0
M  V30 29 C -1.043294 0.490019 -1.949285 0
M  V30 30 C -1.028895 0.382809 -3.300987 0
M  V30 31 C 0.159037 0.078836 -3.942586 0
M  V30 32 C 1.271722 -0.096743 -3.139603 0
M  V30 33 C 1.250814 0.015468 -1.752731 0
M  V30 34 C 0.057269 0.318373 -1.138219 0
M  V30 35 N -0.013483 0.654030 2.569920 0
M  V30 36 C 0.732839 0.586165 3.685863 0
M  V30 37 C 2.077064 0.268870 3.483872 0
M  V30 38 O 2.930692 0.175998 4.576579 0
M  V30 39 C 2.433656 0.405613 5.897952 0
M  V30 40 H 8.227673 -1.584339 0.830695 0
M  V30 41 H 7.953383 -2.768017 2.135687 0
M  V30 42 H 7.281513 -3.008979 0.422532 0
M  V30 43 H 8.528511 -0.115635 2.191910 0
M  V30 44 H 6.529708 3.270792 3.642286 0
M  V30 45 H 4.324518 2.164590 3.157603 0
M  V30 46 H 3.976397 -1.246549 1.713848 0
M  V30 47 H -3.636339 1.381428 -2.465948 0
M  V30 48 H -3.889204 1.869786 -0.738206 0
M  V30 49 H -5.479751 -2.967731 -2.690817 0
M  V30 50 H -6.776502 -5.275929 -0.977039 0
M  V30 51 H -8.154762 -4.892437 0.043297 0
M  V30 52 H -8.853667 -5.398787 -2.223008 0
M  V30 53 H -9.270560 -3.693232 -1.732303 0
M  V30 54 H -7.365490 -4.580116 -3.655379 0
M  V30 55 H -6.420634 -1.317595 1.125491 0
M  V30 56 H -1.881878 0.528325 -3.911904 0
M  V30 57 H 0.264649 -0.024840 -4.995357 0
M  V30 58 H 2.235200 -0.334954 -3.583260 0
M  V30 59 H 2.127404 -0.123503 -1.136820 0
M  V30 60 H 0.402287 0.749976 4.696927 0
M  V30 61 H 3.236598 0.332377 6.647274 0
M  V30 62 H 1.976825 1.432613 5.979364 0
M  V30 63 H 1.668720 -0.385726 6.078684 0
M  V30 END ATOM
M  V30 BEGIN BOND
M  V30 1 1 1 2
M  V30 2 1 2 3
M  V30 3 2 3 4
M  V30 4 1 4 5
M  V30 5 2 5 6
M  V30 6 1 6 7
M  V30 7 2 7 8
M  V30 8 1 8 9
M  V30 9 1 9 10
M  V30 10 2 10 11
M  V30 11 1 11 12
M  V30 12 1 12 13
M  V30 13 2 13 14
M  V30 14 1 14 15
M  V30 15 1 15 16
M  V30 16 1 16 17
M  V30 17 2 17 18
M  V30 18 1 18 19
M  V30 19 1 18 20
M  V30 20 2 20 21
M  V30 21 1 21 22
M  V30 22 1 22 23
M  V30 23 1 23 24
M  V30 24 1 24 25
M  V30 25 1 21 26
M  V30 26 2 26 27
M  V30 27 1 27 28
M  V30 28 1 15 29
M  V30 29 2 29 30
M  V30 30 1 30 31
M  V30 31 2 31 32
M  V30 32 1 32 33
M  V30 33 2 33 34
M  V30 34 2 12 35
M  V30 35 1 35 36
M  V30 36 2 36 37
M  V30 37 1 37 38
M  V30 38 1 38 39
M  V30 39 1 8 3
M  V30 40 1 37 10
M  V30 41 1 34 13
M  V30 42 1 27 17
M  V30 43 1 34 29
M  V30 44 1 1 40
M  V30 45 1 1 41
M  V30 46 1 1 42
M  V30 47 1 4 43
M  V30 48 1 6 44
M  V30 49 1 7 45
M  V30 50 1 9 46
M  V30 51 1 16 47
M  V30 52 1 16 48
M  V30 53 1 20 49
M  V30 54 1 23 50
M  V30 55 1 23 51
M  V30 56 1 24 52
M  V30 57 1 24 53
M  V30 58 1 25 54
M  V30 59 1 26 55
M  V30 60 1 30 56
M  V30 61 1 31 57
M  V30 62 1 32 58
M  V30 63 1 33 59
M  V30 64 1 36 60
M  V30 65 1 39 61
M  V30 66 1 39 62
M  V30 67 1 39 63
M  V30 END BOND
M  V30 END CTAB
M  END
>  <Dataset>  (764) 
ChEMBL_Kinases

>  <Ligand_Instance>  (764) 
nan

>  <PDB_ID>  (764) 
nan

>  <Standardized_SMILES>  (764) 
COc1cnccc1Nc1nc(-c2nn(Cc3c(F)cc(OCCO)cc3F)c3ccccc23)ncc1OC

>  <Name>  (764) 
nan

>  <Pocket>  (764) 
nan

>  <ATP_Site>  (764) 
nan

>  <Peripheral>  (764) 
nan

>  <Num_H_Atoms_ProtBoundConf>  (764) 
nan

>  <Num_Resolved_Atoms>  (764) 
nan

>  <Num_Not_Resolved_Atoms>  (764) 
nan

$$$$
CHEMBL377408
     RDKit          3D

  0  0  0  0  0  0  0  0  0  0999 V3000
M  V30 BEGIN CTAB
M  V30 COUNTS 43 44 0 0 0
M  V30 BEGIN ATOM
M  V30 1 C 1.886716 -4.554998 0.254769 0
M  V30 2 C 0.421012 -4.872321 0.230691 0
M  V30 3 O -0.199121 -4.720118 1.490629 0
M  V30 4 C -0.169535 -3.469290 2.083665 0
M  V30 5 N 0.397468 -2.340689 1.586619 0
M  V30 6 C 0.352656 -1.180265 2.274547 0
M  V30 7 C 0.969281 0.019529 1.720691 0
M  V30 8 O 0.915982 1.082187 2.374311 0
M  V30 9 N 1.632491 0.033158 0.462528 0
M  V30 10 C 2.236515 1.202162 -0.082773 0
M  V30 11 C 1.351052 2.355189 -0.294271 0
M  V30 12 C 1.410597 3.414104 0.613703 0
M  V30 13 C 0.657535 4.567086 0.566397 0
M  V30 14 C -0.243705 4.701433 -0.469774 0
M  V30 15 C -0.340106 3.681585 -1.394059 0
M  V30 16 C 0.439888 2.530685 -1.310837 0
M  V30 17 S 0.269705 1.297240 -2.498885 0
M  V30 18 N -0.236487 -0.215158 -1.914393 0
M  V30 19 O -0.717564 1.721136 -3.556679 0
M  V30 20 O 1.594131 1.117555 -3.188487 0
M  V30 21 C -0.278953 -1.150170 3.496195 0
M  V30 22 C -0.869305 -2.259109 4.047984 0
M  V30 23 N -1.514961 -2.170956 5.327315 0
M  V30 24 C -0.800664 -3.426649 3.311042 0
M  V30 25 C -1.432126 -4.580379 3.919452 0
M  V30 26 N -1.923231 -5.501960 4.416338 0
M  V30 27 H 2.182068 -4.171577 -0.751173 0
M  V30 28 H 2.444677 -5.499371 0.443278 0
M  V30 29 H 2.166566 -3.802304 0.993619 0
M  V30 30 H 0.223883 -5.918681 -0.078978 0
M  V30 31 H -0.058157 -4.171158 -0.508811 0
M  V30 32 H 1.627192 -0.921169 -0.006356 0
M  V30 33 H 2.622537 0.923661 -1.107077 0
M  V30 34 H 3.132176 1.545022 0.477095 0
M  V30 35 H 2.103546 3.375952 1.458204 0
M  V30 36 H 0.756169 5.348978 1.305967 0
M  V30 37 H -0.880709 5.565491 -0.597027 0
M  V30 38 H -1.041382 3.749998 -2.229863 0
M  V30 39 H -1.026915 -0.225414 -1.266071 0
M  V30 40 H -0.132229 -0.992481 -2.568794 0
M  V30 41 H -0.295795 -0.209880 4.016086 0
M  V30 42 H -2.545735 -2.077451 5.564548 0
M  V30 43 H -1.112197 -2.179983 6.277428 0
M  V30 END ATOM
M  V30 BEGIN BOND
M  V30 1 1 1 2
M  V30 2 1 2 3
M  V30 3 1 3 4
M  V30 4 2 4 5
M  V30 5 1 5 6
M  V30 6 1 6 7
M  V30 7 2 7 8
M  V30 8 1 7 9
M  V30 9 1 9 10
M  V30 10 1 10 11
M  V30 11 2 11 12
M  V30 12 1 12 13
M  V30 13 2 13 14
M  V30 14 1 14 15
M  V30 15 2 15 16
M  V30 16 1 16 17
M  V30 17 1 17 18
M  V30 18 2 17 19
M  V30 19 2 17 20
M  V30 20 2 6 21
M  V30 21 1 21 22
M  V30 22 1 22 23
M  V30 23 2 22 24
M  V30 24 1 24 25
M  V30 25 3 25 26
M  V30 26 1 24 4
M  V30 27 1 16 11
M  V30 28 1 1 27
M  V30 29 1 1 28
M  V30 30 1 1 29
M  V30 31 1 2 30
M  V30 32 1 2 31
M  V30 33 1 9 32
M  V30 34 1 10 33
M  V30 35 1 10 34
M  V30 36 1 12 35
M  V30 37 1 13 36
M  V30 38 1 14 37
M  V30 39 1 15 38
M  V30 40 1 18 39
M  V30 41 1 18 40
M  V30 42 1 21 41
M  V30 43 1 23 42
M  V30 44 1 23 43
M  V30 END BOND
M  V30 END CTAB
M  END
>  <Dataset>  (765) 
ChEMBL_Kinases

>  <Ligand_Instance>  (765) 
nan

>  <PDB_ID>  (765) 
nan

>  <Standardized_SMILES>  (765) 
CCOc1nc(C(=O)NCc2ccccc2S(N)(=O)=O)cc(N)c1C#N

>  <Name>  (765) 
nan

>  <Pocket>  (765) 
nan

>  <ATP_Site>  (765) 
nan

>  <Peripheral>  (765) 
nan

>  <Num_H_Atoms_ProtBoundConf>  (765) 
nan

>  <Num_Resolved_Atoms>  (765) 
nan

>  <Num_Not_Resolved_Atoms>  (765) 
nan

$$$$
CHEMBL5084504
     RDKit          3D

  0  0  0  0  0  0  0  0  0  0999 V3000
M  V30 BEGIN CTAB
M  V30 COUNTS 43 46 0 0 0
M  V30 BEGIN ATOM
M  V30 1 C 0.124771 -4.815052 3.218589 0
M  V30 2 C 0.683231 -3.512013 2.722109 0
M  V30 3 N 1.814004 -2.977057 3.229794 0
M  V30 4 C 2.104766 -1.826001 2.631357 0
M  V30 5 C 3.090478 -0.859253 2.713984 0
M  V30 6 C 2.979362 0.218097 1.851374 0
M  V30 7 C 1.977594 0.373360 0.949042 0
M  V30 8 C 1.858378 1.506874 0.039655 0
M  V30 9 C 0.799785 1.558899 -0.833251 0
M  V30 10 C 0.583286 2.585115 -1.742258 0
M  V30 11 N -0.543725 2.574678 -2.624231 0
M  V30 12 N 1.477007 3.586590 -1.757244 0
M  V30 13 C 2.550485 3.595195 -0.916204 0
M  V30 14 N 3.459414 4.688512 -0.985255 0
M  V30 15 C 2.749204 2.569314 -0.021465 0
M  V30 16 N 1.041199 -0.559088 0.880672 0
M  V30 17 C 1.103700 -1.631029 1.701024 0
M  V30 18 N 0.245862 -2.679256 1.777937 0
M  V30 19 C -0.960578 -2.996699 1.054086 0
M  V30 20 C -2.183414 -3.090731 1.943364 0
M  V30 21 C -2.976177 -1.831955 1.740188 0
M  V30 22 C -2.232058 -1.012891 0.710036 0
M  V30 23 C -1.372261 -2.015176 0.025631 0
M  V30 24 H -0.394114 -4.718409 4.169713 0
M  V30 25 H -0.593732 -5.196963 2.461711 0
M  V30 26 H 0.946399 -5.583477 3.258654 0
M  V30 27 H 3.877230 -0.990488 3.429333 0
M  V30 28 H 3.753426 0.963759 1.925995 0
M  V30 29 H 0.053811 0.774659 -0.857908 0
M  V30 30 H -0.123988 2.132227 -3.481988 0
M  V30 31 H -1.429809 2.975014 -2.231865 0
M  V30 32 H 4.272172 5.056214 -1.552343 0
M  V30 33 H 3.442329 5.492168 -0.301065 0
M  V30 34 H 3.592439 2.552825 0.655915 0
M  V30 35 H -0.786238 -3.990051 0.548904 0
M  V30 36 H -1.875843 -3.234055 3.003003 0
M  V30 37 H -2.795649 -3.936958 1.570330 0
M  V30 38 H -3.995275 -2.011369 1.319358 0
M  V30 39 H -3.123652 -1.248112 2.671597 0
M  V30 40 H -2.932266 -0.505052 0.012931 0
M  V30 41 H -1.712627 -0.212994 1.250080 0
M  V30 42 H -0.545089 -1.588026 -0.568343 0
M  V30 43 H -2.028874 -2.560726 -0.704152 0
M  V30 END ATOM
M  V30 BEGIN BOND
M  V30 1 1 1 2
M  V30 2 2 2 3
M  V30 3 1 3 4
M  V30 4 2 4 5
M  V30 5 1 5 6
M  V30 6 2 6 7
M  V30 7 1 7 8
M  V30 8 2 8 9
M  V30 9 1 9 10
M  V30 10 1 10 11
M  V30 11 2 10 12
M  V30 12 1 12 13
M  V30 13 1 13 14
M  V30 14 2 13 15
M  V30 15 1 7 16
M  V30 16 2 16 17
M  V30 17 1 17 18
M  V30 18 1 18 19
M  V30 19 1 19 20
M  V30 20 1 20 21
M  V30 21 1 21 22
M  V30 22 1 22 23
M  V30 23 1 18 2
M  V30 24 1 23 19
M  V30 25 1 17 4
M  V30 26 1 15 8
M  V30 27 1 1 24
M  V30 28 1 1 25
M  V30 29 1 1 26
M  V30 30 1 5 27
M  V30 31 1 6 28
M  V30 32 1 9 29
M  V30 33 1 11 30
M  V30 34 1 11 31
M  V30 35 1 14 32
M  V30 36 1 14 33
M  V30 37 1 15 34
M  V30 38 1 19 35
M  V30 39 1 20 36
M  V30 40 1 20 37
M  V30 41 1 21 38
M  V30 42 1 21 39
M  V30 43 1 22 40
M  V30 44 1 22 41
M  V30 45 1 23 42
M  V30 46 1 23 43
M  V30 END BOND
M  V30 END CTAB
M  END
>  <Dataset>  (766) 
ChEMBL_Kinases

>  <Ligand_Instance>  (766) 
nan

>  <PDB_ID>  (766) 
nan

>  <Standardized_SMILES>  (766) 
Cc1nc2ccc(-c3cc(N)nc(N)c3)nc2n1C1CCCC1

>  <Name>  (766) 
nan

>  <Pocket>  (766) 
nan

>  <ATP_Site>  (766) 
nan

>  <Peripheral>  (766) 
nan

>  <Num_H_Atoms_ProtBoundConf>  (766) 
nan

>  <Num_Resolved_Atoms>  (766) 
nan

>  <Num_Not_Resolved_Atoms>  (766) 
nan

$$$$
CHEMBL3775821
     RDKit          3D

  0  0  0  0  0  0  0  0  0  0999 V3000
M  V30 BEGIN CTAB
M  V30 COUNTS 28 30 0 0 0
M  V30 BEGIN ATOM
M  V30 1 O 2.500808 1.352165 4.611559 0
M  V30 2 C 1.656856 0.486909 4.183705 0
M  V30 3 O 1.148230 -0.469265 5.090969 0
M  V30 4 C 0.377976 -1.405665 4.315015 0
M  V30 5 C -0.196721 -0.419839 3.288323 0
M  V30 6 C 1.037108 0.227982 2.858500 0
M  V30 7 C 1.682426 0.625753 1.777536 0
M  V30 8 C 0.993963 0.320294 0.558972 0
M  V30 9 C 0.834833 1.270213 -0.432915 0
M  V30 10 C 0.191211 1.000417 -1.641390 0
M  V30 11 C -0.319107 -0.264465 -1.883841 0
M  V30 12 C -0.180882 -1.257528 -0.909589 0
M  V30 13 C 0.466783 -0.916193 0.258903 0
M  V30 14 C -0.814245 -2.503395 -1.433615 0
M  V30 15 C -0.651244 -2.241985 -2.920829 0
M  V30 16 O -0.999940 -0.849377 -2.957870 0
M  V30 17 H -0.412054 -1.848923 4.931884 0
M  V30 18 H 1.073970 -2.108634 3.849157 0
M  V30 19 H -0.765444 0.313107 3.916311 0
M  V30 20 H -0.856038 -0.848024 2.562089 0
M  V30 21 H 2.634755 1.132230 1.794788 0
M  V30 22 H 1.212357 2.297548 -0.313973 0
M  V30 23 H 0.074596 1.767554 -2.415175 0
M  V30 24 H 0.546420 -1.737758 0.948657 0
M  V30 25 H -1.894051 -2.533149 -1.155340 0
M  V30 26 H -0.275149 -3.408145 -1.093163 0
M  V30 27 H 0.441695 -2.370914 -3.135709 0
M  V30 28 H -1.303507 -2.863901 -3.550346 0
M  V30 END ATOM
M  V30 BEGIN BOND
M  V30 1 2 1 2
M  V30 2 1 2 3
M  V30 3 1 3 4
M  V30 4 1 4 5
M  V30 5 1 5 6
M  V30 6 2 6 7
M  V30 7 1 7 8
M  V30 8 2 8 9
M  V30 9 1 9 10
M  V30 10 2 10 11
M  V30 11 1 11 12
M  V30 12 2 12 13
M  V30 13 1 12 14
M  V30 14 1 14 15
M  V30 15 1 15 16
M  V30 16 1 6 2
M  V30 17 1 13 8
M  V30 18 1 16 11
M  V30 19 1 4 17
M  V30 20 1 4 18
M  V30 21 1 5 19
M  V30 22 1 5 20
M  V30 23 1 7 21
M  V30 24 1 9 22
M  V30 25 1 10 23
M  V30 26 1 13 24
M  V30 27 1 14 25
M  V30 28 1 14 26
M  V30 29 1 15 27
M  V30 30 1 15 28
M  V30 END BOND
M  V30 END CTAB
M  END
>  <Dataset>  (767) 
ChEMBL_Kinases

>  <Ligand_Instance>  (767) 
nan

>  <PDB_ID>  (767) 
nan

>  <Standardized_SMILES>  (767) 
O=C1OCC/C1=C\c1ccc2c(c1)CCO2

>  <Name>  (767) 
nan

>  <Pocket>  (767) 
nan

>  <ATP_Site>  (767) 
nan

>  <Peripheral>  (767) 
nan

>  <Num_H_Atoms_ProtBoundConf>  (767) 
nan

>  <Num_Resolved_Atoms>  (767) 
nan

>  <Num_Not_Resolved_Atoms>  (767) 
nan

$$$$
CHEMBL593573
     RDKit          3D

  0  0  0  0  0  0  0  0  0  0999 V3000
M  V30 BEGIN CTAB
M  V30 COUNTS 62 66 0 0 0
M  V30 BEGIN ATOM
M  V30 1 C 4.300004 -3.125683 3.178741 0
M  V30 2 C 4.438017 -3.111834 1.694711 0
M  V30 3 N 3.158021 -3.034297 0.986338 0
M  V30 4 C 2.204469 -2.012338 1.080202 0
M  V30 5 N 2.587823 -1.026086 1.943824 0
M  V30 6 C 1.822747 0.053162 2.186357 0
M  V30 7 C 2.183540 1.133376 3.097097 0
M  V30 8 C 2.407681 0.967422 4.453374 0
M  V30 9 C 2.715421 2.242062 4.895284 0
M  V30 10 O 2.685672 3.107759 3.917699 0
M  V30 11 C 2.368011 2.484638 2.806821 0
M  V30 12 C 0.611571 0.158445 1.536329 0
M  V30 13 C -0.302344 1.280568 1.717683 0
M  V30 14 C -0.864141 1.533462 2.958381 0
M  V30 15 N -1.711661 2.536493 3.225675 0
M  V30 16 C -2.055792 3.378009 2.213036 0
M  V30 17 N -2.848504 4.458882 2.093570 0
M  V30 18 N -2.806646 4.880161 0.863796 0
M  V30 19 C -2.000990 4.127168 0.092586 0
M  V30 20 C -1.722265 4.328627 -1.369593 0
M  V30 21 C -1.517679 3.161024 0.959307 0
M  V30 22 N -0.660282 2.136373 0.714913 0
M  V30 23 C 0.230882 -0.839981 0.666663 0
M  V30 24 C 0.982724 -1.956383 0.391813 0
M  V30 25 O 0.829664 -3.036615 -0.394899 0
M  V30 26 C -0.205285 -3.373707 -1.236275 0
M  V30 27 C -0.500420 -2.455874 -2.372088 0 CFG=1
M  V30 28 N 0.677250 -2.351683 -3.229593 0
M  V30 29 C -1.554223 -3.142380 -3.239142 0
M  V30 30 C -2.791015 -3.403811 -2.463698 0
M  V30 31 C -3.771082 -2.407730 -2.462024 0
M  V30 32 C -4.961039 -2.580418 -1.755940 0
M  V30 33 C -5.214024 -3.733031 -1.037439 0
M  V30 34 C -4.247518 -4.706564 -1.043603 0
M  V30 35 C -3.081525 -4.539719 -1.734175 0
M  V30 36 H 3.287242 -2.984208 3.564925 0
M  V30 37 H 4.651113 -4.100493 3.627403 0
M  V30 38 H 4.958102 -2.348618 3.657400 0
M  V30 39 H 5.013924 -3.996962 1.363336 0
M  V30 40 H 5.031541 -2.222110 1.392089 0
M  V30 41 H 2.925251 -3.832820 0.334015 0
M  V30 42 H 2.369959 0.091501 5.078407 0
M  V30 43 H 2.947957 2.475946 5.919243 0
M  V30 44 H 2.240058 2.844012 1.782317 0
M  V30 45 H -0.588987 0.862105 3.765059 0
M  V30 46 H -3.369248 4.813696 2.932950 0
M  V30 47 H -2.617081 4.686667 -1.879950 0
M  V30 48 H -0.956778 5.130696 -1.416988 0
M  V30 49 H -1.396548 3.385467 -1.813340 0
M  V30 50 H -0.701071 -0.820797 0.137055 0
M  V30 51 H -1.123175 -3.511759 -0.587974 0
M  V30 52 H -0.003104 -4.388400 -1.674272 0
M  V30 53 H -0.802324 -1.449099 -2.110778 0
M  V30 54 H 0.611989 -1.478227 -3.791775 0
M  V30 55 H 1.568638 -2.390733 -2.714743 0
M  V30 56 H -1.838331 -2.539001 -4.122984 0
M  V30 57 H -1.177556 -4.116462 -3.599179 0
M  V30 58 H -3.597700 -1.508826 -3.010086 0
M  V30 59 H -5.717876 -1.816577 -1.751745 0
M  V30 60 H -6.148880 -3.830576 -0.502200 0
M  V30 61 H -4.451498 -5.600904 -0.482014 0
M  V30 62 H -2.303862 -5.305252 -1.748194 0
M  V30 END ATOM
M  V30 BEGIN BOND
M  V30 1 1 1 2
M  V30 2 1 2 3
M  V30 3 1 3 4
M  V30 4 2 4 5
M  V30 5 1 5 6
M  V30 6 1 6 7
M  V30 7 1 7 8
M  V30 8 2 8 9
M  V30 9 1 9 10
M  V30 10 1 10 11
M  V30 11 2 6 12
M  V30 12 1 12 13
M  V30 13 2 13 14
M  V30 14 1 14 15
M  V30 15 2 15 16
M  V30 16 1 16 17
M  V30 17 1 17 18
M  V30 18 2 18 19
M  V30 19 1 19 20
M  V30 20 1 19 21
M  V30 21 2 21 22
M  V30 22 1 12 23
M  V30 23 2 23 24
M  V30 24 1 24 25
M  V30 25 1 25 26
M  V30 26 1 26 27
M  V30 27 1 27 28
M  V30 28 1 27 29
M  V30 29 1 29 30
M  V30 30 2 30 31
M  V30 31 1 31 32
M  V30 32 2 32 33
M  V30 33 1 33 34
M  V30 34 2 34 35
M  V30 35 1 24 4
M  V30 36 1 35 30
M  V30 37 2 11 7
M  V30 38 1 22 13
M  V30 39 1 21 16
M  V30 40 1 1 36
M  V30 41 1 1 37
M  V30 42 1 1 38
M  V30 43 1 2 39
M  V30 44 1 2 40
M  V30 45 1 3 41
M  V30 46 1 8 42
M  V30 47 1 9 43
M  V30 48 1 11 44
M  V30 49 1 14 45
M  V30 50 1 17 46
M  V30 51 1 20 47
M  V30 52 1 20 48
M  V30 53 1 20 49
M  V30 54 1 23 50
M  V30 55 1 26 51
M  V30 56 1 26 52
M  V30 57 1 27 53 CFG=1
M  V30 58 1 28 54
M  V30 59 1 28 55
M  V30 60 1 29 56
M  V30 61 1 29 57
M  V30 62 1 31 58
M  V30 63 1 32 59
M  V30 64 1 33 60
M  V30 65 1 34 61
M  V30 66 1 35 62
M  V30 END BOND
M  V30 END CTAB
M  END
>  <Dataset>  (768) 
ChEMBL_Kinases

>  <Ligand_Instance>  (768) 
nan

>  <PDB_ID>  (768) 
nan

>  <Standardized_SMILES>  (768) 
CCNc1nc(-c2ccoc2)c(-c2cnc3[nH]nc(C)c3n2)cc1OC[C@@H](N)Cc1ccccc1

>  <Name>  (768) 
nan

>  <Pocket>  (768) 
nan

>  <ATP_Site>  (768) 
nan

>  <Peripheral>  (768) 
nan

>  <Num_H_Atoms_ProtBoundConf>  (768) 
nan

>  <Num_Resolved_Atoms>  (768) 
nan

>  <Num_Not_Resolved_Atoms>  (768) 
nan

$$$$
CHEMBL48988
     RDKit          3D

  0  0  0  0  0  0  0  0  0  0999 V3000
M  V30 BEGIN CTAB
M  V30 COUNTS 58 61 0 0 0
M  V30 BEGIN ATOM
M  V30 1 O 3.394938 -1.046468 1.248452 0
M  V30 2 C 2.180329 -0.894693 1.545692 0
M  V30 3 O 2.017614 0.054391 2.521921 0
M  V30 4 C 3.087503 0.768246 3.114752 0
M  V30 5 C 3.176430 0.583467 4.610128 0
M  V30 6 C 3.861279 1.868903 5.024075 0
M  V30 7 C 3.207833 2.936259 4.208740 0
M  V30 8 C 2.782442 2.253985 2.928948 0
M  V30 9 O 1.417019 2.468386 2.673012 0
M  V30 10 C 0.890488 3.009422 1.512685 0
M  V30 11 C -0.504105 3.066283 1.628155 0
M  V30 12 C -1.292074 3.573783 0.591862 0
M  V30 13 C -0.684738 4.022761 -0.556080 0
M  V30 14 O -1.446218 4.536441 -1.611271 0
M  V30 15 C 0.678446 3.960090 -0.652536 0
M  V30 16 C 1.461531 3.465045 0.355684 0
M  V30 17 C 1.078881 -1.628238 0.936947 0
M  V30 18 C -0.184868 -1.332130 1.384891 0
M  V30 19 C -1.285448 -2.002539 0.838118 0
M  V30 20 O -2.532999 -1.643945 1.347495 0
M  V30 21 C -1.115332 -2.951840 -0.140646 0
M  V30 22 C -2.235366 -3.703838 -0.642976 0
M  V30 23 O -3.121615 -3.658353 0.286476 0
M  V30 24 C -2.703416 -4.462007 -1.759155 0
M  V30 25 C -3.584401 -5.496060 -1.415073 0
M  V30 26 O -3.979853 -5.799697 -0.102434 0
M  V30 27 C -4.178229 -6.354446 -2.341913 0
M  V30 28 C -3.834620 -6.113749 -3.648007 0
M  V30 29 C -2.985054 -5.122490 -4.056903 0
M  V30 30 C -2.433349 -4.306979 -3.095475 0
M  V30 31 C -1.655170 -3.158054 -3.581493 0
M  V30 32 O -1.147239 -2.153512 -3.070285 0
M  V30 33 O -1.323027 -3.011759 -4.901270 0
M  V30 34 C 0.213849 -3.181507 -0.526682 0
M  V30 35 O 0.524353 -4.138684 -1.516650 0
M  V30 36 C 1.340546 -2.564125 -0.037327 0
M  V30 37 H 4.049827 0.464416 2.694013 0
M  V30 38 H 3.888249 -0.234278 4.872848 0
M  V30 39 H 2.219275 0.474556 5.117771 0
M  V30 40 H 3.730745 2.053281 6.125347 0
M  V30 41 H 4.946602 1.844461 4.760877 0
M  V30 42 H 3.918472 3.748302 3.911229 0
M  V30 43 H 2.378534 3.386111 4.774789 0
M  V30 44 H 3.366703 2.584531 2.060019 0
M  V30 45 H -1.124593 2.751652 2.467074 0
M  V30 46 H -2.362766 3.644994 0.616689 0
M  V30 47 H -2.333411 4.999269 -1.399102 0
M  V30 48 H 1.214216 4.301939 -1.539704 0
M  V30 49 H 2.535894 3.370519 0.384157 0
M  V30 50 H -0.339723 -0.600551 2.141363 0
M  V30 51 H -2.741001 -1.544940 2.314112 0
M  V30 52 H -4.930540 -5.541821 0.133538 0
M  V30 53 H -4.848566 -7.144357 -2.099558 0
M  V30 54 H -4.243570 -6.729173 -4.427656 0
M  V30 55 H -2.741048 -4.969169 -5.112545 0
M  V30 56 H -1.378169 -2.113940 -5.358330 0
M  V30 57 H 1.114125 -3.857262 -2.290100 0
M  V30 58 H 2.338994 -2.768739 -0.361425 0
M  V30 END ATOM
M  V30 BEGIN BOND
M  V30 1 2 1 2
M  V30 2 1 2 3
M  V30 3 1 3 4
M  V30 4 1 4 5
M  V30 5 1 5 6
M  V30 6 1 6 7
M  V30 7 1 7 8
M  V30 8 1 8 9
M  V30 9 1 9 10
M  V30 10 2 10 11
M  V30 11 1 11 12
M  V30 12 2 12 13
M  V30 13 1 13 14
M  V30 14 1 13 15
M  V30 15 2 15 16
M  V30 16 1 2 17
M  V30 17 2 17 18
M  V30 18 1 18 19
M  V30 19 1 19 20
M  V30 20 2 19 21
M  V30 21 1 21 22
M  V30 22 2 22 23
M  V30 23 1 22 24
M  V30 24 2 24 25
M  V30 25 1 25 26
M  V30 26 1 25 27
M  V30 27 2 27 28
M  V30 28 1 28 29
M  V30 29 2 29 30
M  V30 30 1 30 31
M  V30 31 2 31 32
M  V30 32 1 31 33
M  V30 33 1 21 34
M  V30 34 1 34 35
M  V30 35 2 34 36
M  V30 36 1 8 4
M  V30 37 1 16 10
M  V30 38 1 36 17
M  V30 39 1 30 24
M  V30 40 1 4 37
M  V30 41 1 5 38
M  V30 42 1 5 39
M  V30 43 1 6 40
M  V30 44 1 6 41
M  V30 45 1 7 42
M  V30 46 1 7 43
M  V30 47 1 8 44
M  V30 48 1 11 45
M  V30 49 1 12 46
M  V30 50 1 14 47
M  V30 51 1 15 48
M  V30 52 1 16 49
M  V30 53 1 18 50
M  V30 54 1 20 51
M  V30 55 1 26 52
M  V30 56 1 27 53
M  V30 57 1 28 54
M  V30 58 1 29 55
M  V30 59 1 33 56
M  V30 60 1 35 57
M  V30 61 1 36 58
M  V30 END BOND
M  V30 END CTAB
M  END
>  <Dataset>  (769) 
ChEMBL_Kinases

>  <Ligand_Instance>  (769) 
nan

>  <PDB_ID>  (769) 
nan

>  <Standardized_SMILES>  (769) 
O=C(OC1CCCC1Oc1ccc(O)cc1)c1cc(O)c(C(=O)c2c(O)cccc2C(=O)O)c(O)c1

>  <Name>  (769) 
nan

>  <Pocket>  (769) 
nan

>  <ATP_Site>  (769) 
nan

>  <Peripheral>  (769) 
nan

>  <Num_H_Atoms_ProtBoundConf>  (769) 
nan

>  <Num_Resolved_Atoms>  (769) 
nan

>  <Num_Not_Resolved_Atoms>  (769) 
nan

$$$$
CHEMBL491021
     RDKit          3D

  0  0  0  0  0  0  0  0  0  0999 V3000
M  V30 BEGIN CTAB
M  V30 COUNTS 51 54 0 0 0
M  V30 BEGIN ATOM
M  V30 1 C -2.277228 -2.446232 0.952000 0
M  V30 2 C -1.410057 -3.554700 1.410736 0 CFG=2
M  V30 3 N -0.038110 -3.138392 1.753538 0
M  V30 4 C 0.547037 -2.566390 0.593070 0
M  V30 5 C 0.698530 -1.217879 0.356236 0
M  V30 6 C 1.271513 -0.865531 -0.838098 0
M  V30 7 C 1.523053 0.413025 -1.289088 0
M  V30 8 C 1.317570 1.733383 -0.752230 0
M  V30 9 C 0.796972 2.731739 -1.557997 0
M  V30 10 C 0.594924 4.027662 -1.067748 0
M  V30 11 Cl -0.067207 5.293506 -2.097305 0
M  V30 12 C 0.939781 4.254528 0.250747 0
M  V30 13 C 1.461818 3.312404 1.112281 0
M  V30 14 C 1.801610 3.671971 2.487379 0
M  V30 15 C 0.718679 3.539558 3.500825 0
M  V30 16 C -0.457797 4.377806 3.212739 0
M  V30 17 N -1.377649 4.347457 4.301099 0
M  V30 18 O -1.146545 5.141552 2.520286 0
M  V30 19 C 1.644589 2.033033 0.575142 0
M  V30 20 N 2.094132 0.220753 -2.513355 0
M  V30 21 O 2.172759 -1.069787 -2.763148 0
M  V30 22 C 1.688862 -1.776803 -1.781263 0
M  V30 23 C 1.519494 -3.117420 -1.505974 0
M  V30 24 N 0.954528 -3.456393 -0.327262 0
M  V30 25 C -1.380632 -4.708198 0.488300 0
M  V30 26 C -0.437914 -5.623724 0.987021 0
M  V30 27 C -0.195646 -6.818875 0.306341 0
M  V30 28 C -0.844697 -7.155682 -0.852514 0
M  V30 29 C -1.775725 -6.225704 -1.322556 0
M  V30 30 C -2.038062 -5.038391 -0.675524 0
M  V30 31 H -3.008605 -2.663333 0.174223 0
M  V30 32 H -1.720715 -1.545053 0.611944 0
M  V30 33 H -2.896468 -2.075664 1.826856 0
M  V30 34 H -1.803079 -3.929458 2.403552 0
M  V30 35 H 0.505115 -3.201454 2.643822 0
M  V30 36 H 0.379154 -0.519101 1.084418 0
M  V30 37 H 0.548378 2.490176 -2.577109 0
M  V30 38 H 0.763655 5.270931 0.566291 0
M  V30 39 H 2.179602 4.719561 2.563590 0
M  V30 40 H 2.650501 3.020822 2.853648 0
M  V30 41 H 1.147925 3.893073 4.469648 0
M  V30 42 H 0.434270 2.474688 3.695512 0
M  V30 43 H -2.022396 4.196202 5.103299 0
M  V30 44 H -2.030891 4.868418 4.917453 0
M  V30 45 H 2.051908 1.251217 1.208797 0
M  V30 46 H 1.828737 -3.855182 -2.211346 0
M  V30 47 H 0.193434 -5.564438 1.886403 0
M  V30 48 H 0.523285 -7.575563 0.635277 0
M  V30 49 H -0.693167 -8.064674 -1.415896 0
M  V30 50 H -2.361289 -6.355516 -2.223796 0
M  V30 51 H -2.720234 -4.280634 -0.955601 0
M  V30 END ATOM
M  V30 BEGIN BOND
M  V30 1 1 1 2
M  V30 2 1 2 3
M  V30 3 1 3 4
M  V30 4 2 4 5
M  V30 5 1 5 6
M  V30 6 1 6 7
M  V30 7 1 7 8
M  V30 8 2 8 9
M  V30 9 1 9 10
M  V30 10 1 10 11
M  V30 11 2 10 12
M  V30 12 1 12 13
M  V30 13 1 13 14
M  V30 14 1 14 15
M  V30 15 1 15 16
M  V30 16 1 16 17
M  V30 17 2 16 18
M  V30 18 2 13 19
M  V30 19 2 7 20
M  V30 20 1 20 21
M  V30 21 1 21 22
M  V30 22 1 22 23
M  V30 23 2 23 24
M  V30 24 1 2 25
M  V30 25 2 25 26
M  V30 26 1 26 27
M  V30 27 2 27 28
M  V30 28 1 28 29
M  V30 29 2 29 30
M  V30 30 1 24 4
M  V30 31 1 30 25
M  V30 32 2 22 6
M  V30 33 1 19 8
M  V30 34 1 1 31
M  V30 35 1 1 32
M  V30 36 1 1 33
M  V30 37 1 2 34 CFG=1
M  V30 38 1 3 35
M  V30 39 1 5 36
M  V30 40 1 9 37
M  V30 41 1 12 38
M  V30 42 1 14 39
M  V30 43 1 14 40
M  V30 44 1 15 41
M  V30 45 1 15 42
M  V30 46 1 17 43
M  V30 47 1 17 44
M  V30 48 1 19 45
M  V30 49 1 23 46
M  V30 50 1 26 47
M  V30 51 1 27 48
M  V30 52 1 28 49
M  V30 53 1 29 50
M  V30 54 1 30 51
M  V30 END BOND
M  V30 END CTAB
M  END
>  <Dataset>  (770) 
ChEMBL_Kinases

>  <Ligand_Instance>  (770) 
nan

>  <PDB_ID>  (770) 
nan

>  <Standardized_SMILES>  (770) 
C[C@H](Nc1cc2c(-c3cc(Cl)cc(CCC(N)=O)c3)noc2cn1)c1ccccc1

>  <Name>  (770) 
nan

>  <Pocket>  (770) 
nan

>  <ATP_Site>  (770) 
nan

>  <Peripheral>  (770) 
nan

>  <Num_H_Atoms_ProtBoundConf>  (770) 
nan

>  <Num_Resolved_Atoms>  (770) 
nan

>  <Num_Not_Resolved_Atoms>  (770) 
nan

$$$$
CHEMBL3660143
     RDKit          3D

  0  0  0  0  0  0  0  0  0  0999 V3000
M  V30 BEGIN CTAB
M  V30 COUNTS 72 76 0 0 0
M  V30 BEGIN ATOM
M  V30 1 C 5.122779 -1.569873 3.772474 0
M  V30 2 C 4.640602 -1.141398 2.374105 0
M  V30 3 C 3.198974 -0.759009 2.547574 0 CFG=2
M  V30 4 C 2.456459 -1.934677 3.057704 0
M  V30 5 O 2.715043 -2.302858 4.235084 0
M  V30 6 N 1.476555 -2.703533 2.371396 0
M  V30 7 C 0.957786 -3.915771 2.951357 0
M  V30 8 C 1.087840 -2.162343 1.118499 0
M  V30 9 C 0.138535 -2.857359 0.375745 0
M  V30 10 N -0.259452 -2.392687 -0.821534 0
M  V30 11 C 0.265430 -1.236601 -1.314094 0
M  V30 12 N -0.319188 -0.947523 -2.581048 0
M  V30 13 C -1.644244 -0.451985 -2.441978 0
M  V30 14 C -2.322611 -0.264125 -1.260632 0
M  V30 15 C -3.602423 0.191579 -1.062681 0
M  V30 16 N -4.076309 0.310618 0.254513 0
M  V30 17 C -5.465528 0.306677 0.669978 0
M  V30 18 C -5.618625 -0.747648 1.745346 0
M  V30 19 N -4.443564 -1.542204 1.964647 0
M  V30 20 C -4.285654 -2.672691 1.116319 0
M  V30 21 C -3.236333 -0.792931 2.185317 0
M  V30 22 C -3.172364 0.473187 1.377447 0
M  V30 23 C -4.307112 0.505533 -2.204233 0
M  V30 24 C -3.697653 0.347244 -3.446974 0
M  V30 25 C -2.400177 -0.118610 -3.566667 0
M  V30 26 O -1.926622 -0.224609 -4.850841 0
M  V30 27 C -2.028272 -1.337967 -5.689203 0
M  V30 28 F -1.411235 -0.983899 -6.884361 0
M  V30 29 F -3.396978 -1.548902 -5.895028 0
M  V30 30 F -1.462978 -2.480055 -5.197198 0
M  V30 31 N 1.180887 -0.554647 -0.612727 0
M  V30 32 C 1.608907 -0.979317 0.585327 0
M  V30 33 N 2.607819 -0.224170 1.308577 0
M  V30 34 C 3.050903 1.028372 0.790384 0
M  V30 35 C 4.286639 0.942773 -0.061720 0
M  V30 36 C 3.891561 1.395286 -1.464580 0
M  V30 37 C 2.609431 2.132159 -1.307912 0
M  V30 38 C 2.087277 1.899979 0.096306 0
M  V30 39 H 4.981907 -2.636165 3.954860 0
M  V30 40 H 4.606995 -0.994261 4.566233 0
M  V30 41 H 6.204309 -1.347008 3.897397 0
M  V30 42 H 5.265060 -0.243709 2.155150 0
M  V30 43 H 4.836564 -1.956864 1.682212 0
M  V30 44 H 3.191793 0.076038 3.297970 0
M  V30 45 H -0.109181 -4.102033 2.738112 0
M  V30 46 H 1.585900 -4.812459 2.770854 0
M  V30 47 H 1.022860 -3.756545 4.069825 0
M  V30 48 H -0.302274 -3.797470 0.752082 0
M  V30 49 H 0.074627 -1.047580 -3.520475 0
M  V30 50 H -1.745944 -0.521249 -0.371957 0
M  V30 51 H -5.671355 1.287529 1.140990 0
M  V30 52 H -6.162705 0.153088 -0.170985 0
M  V30 53 H -6.414544 -1.437595 1.414694 0
M  V30 54 H -5.934234 -0.313150 2.712019 0
M  V30 55 H -5.106286 -2.909590 0.440924 0
M  V30 56 H -4.031017 -3.557786 1.768882 0
M  V30 57 H -3.368438 -2.519073 0.511845 0
M  V30 58 H -2.373271 -1.433944 1.846109 0
M  V30 59 H -3.067101 -0.585651 3.251429 0
M  V30 60 H -3.572741 1.289706 2.045747 0
M  V30 61 H -2.159464 0.799276 1.100878 0
M  V30 62 H -5.316573 0.863958 -2.077235 0
M  V30 63 H -4.315602 0.615877 -4.317719 0
M  V30 64 H 3.386142 1.614285 1.723872 0
M  V30 65 H 5.070514 1.630623 0.292251 0
M  V30 66 H 4.734781 -0.075406 -0.105918 0
M  V30 67 H 3.786664 0.507994 -2.143897 0
M  V30 68 H 4.726448 1.978708 -1.903659 0
M  V30 69 H 1.826278 1.852648 -2.052970 0
M  V30 70 H 2.822411 3.206835 -1.527402 0
M  V30 71 H 2.081706 2.946353 0.553127 0
M  V30 72 H 1.021934 1.620476 0.140695 0
M  V30 END ATOM
M  V30 BEGIN BOND
M  V30 1 1 1 2
M  V30 2 1 2 3
M  V30 3 1 3 4
M  V30 4 2 4 5
M  V30 5 1 4 6
M  V30 6 1 6 7
M  V30 7 1 6 8
M  V30 8 2 8 9
M  V30 9 1 9 10
M  V30 10 2 10 11
M  V30 11 1 11 12
M  V30 12 1 12 13
M  V30 13 2 13 14
M  V30 14 1 14 15
M  V30 15 1 15 16
M  V30 16 1 16 17
M  V30 17 1 17 18
M  V30 18 1 18 19
M  V30 19 1 19 20
M  V30 20 1 19 21
M  V30 21 1 21 22
M  V30 22 2 15 23
M  V30 23 1 23 24
M  V30 24 2 24 25
M  V30 25 1 25 26
M  V30 26 1 26 27
M  V30 27 1 27 28
M  V30 28 1 27 29
M  V30 29 1 27 30
M  V30 30 1 11 31
M  V30 31 2 31 32
M  V30 32 1 32 33
M  V30 33 1 33 34
M  V30 34 1 34 35
M  V30 35 1 35 36
M  V30 36 1 36 37
M  V30 37 1 37 38
M  V30 38 1 33 3
M  V30 39 1 38 34
M  V30 40 1 32 8
M  V30 41 1 25 13
M  V30 42 1 22 16
M  V30 43 1 1 39
M  V30 44 1 1 40
M  V30 45 1 1 41
M  V30 46 1 2 42
M  V30 47 1 2 43
M  V30 48 1 3 44 CFG=1
M  V30 49 1 7 45
M  V30 50 1 7 46
M  V30 51 1 7 47
M  V30 52 1 9 48
M  V30 53 1 12 49
M  V30 54 1 14 50
M  V30 55 1 17 51
M  V30 56 1 17 52
M  V30 57 1 18 53
M  V30 58 1 18 54
M  V30 59 1 20 55
M  V30 60 1 20 56
M  V30 61 1 20 57
M  V30 62 1 21 58
M  V30 63 1 21 59
M  V30 64 1 22 60
M  V30 65 1 22 61
M  V30 66 1 23 62
M  V30 67 1 24 63
M  V30 68 1 34 64
M  V30 69 1 35 65
M  V30 70 1 35 66
M  V30 71 1 36 67
M  V30 72 1 36 68
M  V30 73 1 37 69
M  V30 74 1 37 70
M  V30 75 1 38 71
M  V30 76 1 38 72
M  V30 END BOND
M  V30 END CTAB
M  END
>  <Dataset>  (771) 
ChEMBL_Kinases

>  <Ligand_Instance>  (771) 
nan

>  <PDB_ID>  (771) 
nan

>  <Standardized_SMILES>  (771) 
CC[C@@H]1C(=O)N(C)c2cnc(Nc3cc(N4CCN(C)CC4)ccc3OC(F)(F)F)nc2N1C1CCCC1

>  <Name>  (771) 
nan

>  <Pocket>  (771) 
nan

>  <ATP_Site>  (771) 
nan

>  <Peripheral>  (771) 
nan

>  <Num_H_Atoms_ProtBoundConf>  (771) 
nan

>  <Num_Resolved_Atoms>  (771) 
nan

>  <Num_Not_Resolved_Atoms>  (771) 
nan

$$$$
CHEMBL387748
     RDKit          3D

  0  0  0  0  0  0  0  0  0  0999 V3000
M  V30 BEGIN CTAB
M  V30 COUNTS 51 55 0 0 0
M  V30 BEGIN ATOM
M  V30 1 C 5.069423 -2.080424 3.675383 0
M  V30 2 C 3.569396 -2.140812 3.634969 0
M  V30 3 C 2.796875 -2.871748 4.531936 0
M  V30 4 C 1.448509 -2.811239 4.346231 0
M  V30 5 C 0.944927 -2.055637 3.315787 0
M  V30 6 C 1.723023 -1.322927 2.416862 0
M  V30 7 C 1.001993 -0.597922 1.408837 0
M  V30 8 N 0.867986 0.700229 1.077110 0
M  V30 9 C 0.049434 0.819620 0.018384 0
M  V30 10 C -0.360447 2.083194 -0.663286 0
M  V30 11 N -1.565044 2.611300 -0.054227 0
M  V30 12 C -2.082260 3.815930 -0.608114 0
M  V30 13 C -1.468872 4.444436 -1.667512 0
M  V30 14 C -1.929233 5.627023 -2.253151 0
M  V30 15 C -3.089185 6.163928 -1.689788 0
M  V30 16 C -3.748620 5.586132 -0.632488 0
M  V30 17 C -4.932022 6.193747 -0.106564 0
M  V30 18 N -5.888387 6.694220 0.310375 0
M  V30 19 C -3.231463 4.414394 -0.105502 0
M  V30 20 N -0.344741 -0.440081 -0.328011 0
M  V30 21 C 0.244709 -1.320707 0.532675 0
M  V30 22 C -0.099048 -2.713242 0.261634 0
M  V30 23 C -1.393282 -3.195551 0.364849 0
M  V30 24 C -1.688546 -4.533158 0.095821 0
M  V30 25 C -0.617114 -5.338821 -0.276828 0
M  V30 26 N -0.824617 -6.644012 -0.554307 0
M  V30 27 C 0.215136 -7.450582 -0.923327 0
M  V30 28 C 1.497889 -6.954878 -1.021360 0
M  V30 29 N 1.715264 -5.636156 -0.742357 0
M  V30 30 C 0.668180 -4.842928 -0.375355 0
M  V30 31 C 0.955990 -3.520318 -0.108624 0
M  V30 32 N 3.050695 -1.407259 2.632332 0
M  V30 33 H 5.502952 -2.674315 2.820715 0
M  V30 34 H 5.410751 -1.031682 3.594463 0
M  V30 35 H 5.439832 -2.457637 4.659449 0
M  V30 36 H 3.315522 -3.426938 5.302373 0
M  V30 37 H 0.817646 -3.360051 5.014873 0
M  V30 38 H -0.140457 -2.062487 3.238462 0
M  V30 39 H 1.359305 1.441117 1.611736 0
M  V30 40 H 0.469528 2.835369 -0.632651 0
M  V30 41 H -0.606773 1.805740 -1.717518 0
M  V30 42 H -2.058161 2.171926 0.741742 0
M  V30 43 H -0.565652 4.018088 -2.098436 0
M  V30 44 H -1.428379 6.088339 -3.074704 0
M  V30 45 H -3.417114 7.084497 -2.172780 0
M  V30 46 H -3.733899 3.926787 0.739262 0
M  V30 47 H -2.198752 -2.509578 0.663651 0
M  V30 48 H -2.681175 -4.932620 0.167842 0
M  V30 49 H -0.011777 -8.495564 -1.135884 0
M  V30 50 H 2.256641 -7.665196 -1.319215 0
M  V30 51 H 1.961115 -3.158253 -0.191105 0
M  V30 END ATOM
M  V30 BEGIN BOND
M  V30 1 1 1 2
M  V30 2 2 2 3
M  V30 3 1 3 4
M  V30 4 2 4 5
M  V30 5 1 5 6
M  V30 6 1 6 7
M  V30 7 1 7 8
M  V30 8 1 8 9
M  V30 9 1 9 10
M  V30 10 1 10 11
M  V30 11 1 11 12
M  V30 12 2 12 13
M  V30 13 1 13 14
M  V30 14 2 14 15
M  V30 15 1 15 16
M  V30 16 1 16 17
M  V30 17 3 17 18
M  V30 18 2 16 19
M  V30 19 2 9 20
M  V30 20 1 20 21
M  V30 21 1 21 22
M  V30 22 2 22 23
M  V30 23 1 23 24
M  V30 24 2 24 25
M  V30 25 1 25 26
M  V30 26 2 26 27
M  V30 27 1 27 28
M  V30 28 2 28 29
M  V30 29 1 29 30
M  V30 30 2 30 31
M  V30 31 2 6 32
M  V30 32 1 32 2
M  V30 33 2 21 7
M  V30 34 1 31 22
M  V30 35 1 19 12
M  V30 36 1 30 25
M  V30 37 1 1 33
M  V30 38 1 1 34
M  V30 39 1 1 35
M  V30 40 1 3 36
M  V30 41 1 4 37
M  V30 42 1 5 38
M  V30 43 1 8 39
M  V30 44 1 10 40
M  V30 45 1 10 41
M  V30 46 1 11 42
M  V30 47 1 13 43
M  V30 48 1 14 44
M  V30 49 1 15 45
M  V30 50 1 19 46
M  V30 51 1 23 47
M  V30 52 1 24 48
M  V30 53 1 27 49
M  V30 54 1 28 50
M  V30 55 1 31 51
M  V30 END BOND
M  V30 END CTAB
M  END
>  <Dataset>  (772) 
ChEMBL_Kinases

>  <Ligand_Instance>  (772) 
nan

>  <PDB_ID>  (772) 
nan

>  <Standardized_SMILES>  (772) 
Cc1cccc(-c2[nH]c(CNc3cccc(C#N)c3)nc2-c2ccc3nccnc3c2)n1

>  <Name>  (772) 
nan

>  <Pocket>  (772) 
nan

>  <ATP_Site>  (772) 
nan

>  <Peripheral>  (772) 
nan

>  <Num_H_Atoms_ProtBoundConf>  (772) 
nan

>  <Num_Resolved_Atoms>  (772) 
nan

>  <Num_Not_Resolved_Atoms>  (772) 
nan

$$$$
CHEMBL494088
     RDKit          3D

  0  0  0  0  0  0  0  0  0  0999 V3000
M  V30 BEGIN CTAB
M  V30 COUNTS 55 58 0 0 0
M  V30 BEGIN ATOM
M  V30 1 C 0.355897 -3.739943 0.573044 0
M  V30 2 C 0.700488 -2.639952 -0.402983 0
M  V30 3 N 0.823163 -1.350407 0.226684 0
M  V30 4 C 1.928536 -0.853876 0.777791 0
M  V30 5 C 3.280469 -1.283887 1.028861 0
M  V30 6 N 4.231546 -0.513279 1.584045 0
M  V30 7 O 5.373513 -1.079752 1.693717 0
M  V30 8 N 5.263595 -2.289277 1.211736 0
M  V30 9 C 3.976676 -2.433359 0.796730 0
M  V30 10 N 3.584355 -3.649026 0.260744 0
M  V30 11 N 1.547804 0.375485 1.163193 0
M  V30 12 C 0.274562 0.625139 0.868783 0
M  V30 13 C -0.436181 1.774037 1.122042 0
M  V30 14 C 0.193014 2.898553 1.779757 0
M  V30 15 C 0.716374 3.846167 2.333969 0
M  V30 16 C 1.369502 4.983634 2.990644 0
M  V30 17 C 0.255915 5.944253 3.336767 0
M  V30 18 C 2.062983 4.571329 4.270052 0
M  V30 19 O 2.281784 5.588902 2.137204 0
M  V30 20 N -1.741778 1.808515 0.732524 0
M  V30 21 C -2.295233 0.724037 0.115018 0
M  V30 22 C -1.527861 -0.410203 -0.114746 0
M  V30 23 O -2.047696 -1.514748 -0.729012 0
M  V30 24 C -3.363510 -1.620729 -1.179173 0
M  V30 25 C -3.654677 -2.961960 -1.820101 0
M  V30 26 C -3.442332 -4.112914 -0.873425 0
M  V30 27 C -2.981348 -5.211424 -1.811257 0
M  V30 28 N -2.154493 -4.541781 -2.788859 0
M  V30 29 C -2.740931 -3.233855 -2.986481 0
M  V30 30 C -0.219451 -0.498792 0.252899 0
M  V30 31 H 0.179521 -4.698249 0.090706 0
M  V30 32 H 1.042795 -3.757723 1.422251 0
M  V30 33 H -0.640645 -3.436911 1.011028 0
M  V30 34 H 1.576408 -2.897328 -0.983693 0
M  V30 35 H -0.131630 -2.599656 -1.179983 0
M  V30 36 H 3.856470 -4.568847 0.635538 0
M  V30 37 H 3.856808 -4.568039 0.636000 0
M  V30 38 H -0.080843 6.468835 2.409109 0
M  V30 39 H 0.707225 6.740064 3.978233 0
M  V30 40 H -0.549723 5.477568 3.899617 0
M  V30 41 H 2.903263 5.245523 4.518361 0
M  V30 42 H 2.509656 3.571258 4.083176 0
M  V30 43 H 1.355353 4.423081 5.114583 0
M  V30 44 H 3.161611 5.204330 2.369131 0
M  V30 45 H -3.324282 0.735537 -0.198277 0
M  V30 46 H -3.513044 -0.857822 -1.985003 0
M  V30 47 H -4.075889 -1.417925 -0.375484 0
M  V30 48 H -4.703639 -3.007624 -2.175162 0
M  V30 49 H -2.726836 -3.914870 -0.071399 0
M  V30 50 H -4.414851 -4.451759 -0.452375 0
M  V30 51 H -3.838630 -5.641431 -2.362648 0
M  V30 52 H -2.461189 -6.026579 -1.293294 0
M  V30 53 H -1.156808 -4.456385 -2.487508 0
M  V30 54 H -3.275078 -3.222643 -3.969551 0
M  V30 55 H -1.925625 -2.484233 -3.076275 0
M  V30 END ATOM
M  V30 BEGIN BOND
M  V30 1 1 1 2
M  V30 2 1 2 3
M  V30 3 1 3 4
M  V30 4 1 4 5
M  V30 5 2 5 6
M  V30 6 1 6 7
M  V30 7 1 7 8
M  V30 8 2 8 9
M  V30 9 1 9 10
M  V30 10 2 4 11
M  V30 11 1 11 12
M  V30 12 2 12 13
M  V30 13 1 13 14
M  V30 14 3 14 15
M  V30 15 1 15 16
M  V30 16 1 16 17
M  V30 17 1 16 18
M  V30 18 1 16 19
M  V30 19 1 13 20
M  V30 20 2 20 21
M  V30 21 1 21 22
M  V30 22 1 22 23
M  V30 23 1 23 24
M  V30 24 1 24 25
M  V30 25 1 25 26
M  V30 26 1 26 27
M  V30 27 1 27 28
M  V30 28 1 28 29
M  V30 29 2 22 30
M  V30 30 1 30 3
M  V30 31 1 9 5
M  V30 32 1 30 12
M  V30 33 1 29 25
M  V30 34 1 1 31
M  V30 35 1 1 32
M  V30 36 1 1 33
M  V30 37 1 2 34
M  V30 38 1 2 35
M  V30 39 1 10 36
M  V30 40 1 10 37
M  V30 41 1 17 38
M  V30 42 1 17 39
M  V30 43 1 17 40
M  V30 44 1 18 41
M  V30 45 1 18 42
M  V30 46 1 18 43
M  V30 47 1 19 44
M  V30 48 1 21 45
M  V30 49 1 24 46
M  V30 50 1 24 47
M  V30 51 1 25 48
M  V30 52 1 26 49
M  V30 53 1 26 50
M  V30 54 1 27 51
M  V30 55 1 27 52
M  V30 56 1 28 53
M  V30 57 1 29 54
M  V30 58 1 29 55
M  V30 END BOND
M  V30 END CTAB
M  END
>  <Dataset>  (773) 
ChEMBL_Kinases

>  <Ligand_Instance>  (773) 
nan

>  <PDB_ID>  (773) 
nan

>  <Standardized_SMILES>  (773) 
CCn1c(-c2nonc2N)nc2c(C#CC(C)(C)O)ncc(OCC3CCNC3)c21

>  <Name>  (773) 
nan

>  <Pocket>  (773) 
nan

>  <ATP_Site>  (773) 
nan

>  <Peripheral>  (773) 
nan

>  <Num_H_Atoms_ProtBoundConf>  (773) 
nan

>  <Num_Resolved_Atoms>  (773) 
nan

>  <Num_Not_Resolved_Atoms>  (773) 
nan

$$$$
CHEMBL366266
     RDKit          3D

  0  0  0  0  0  0  0  0  0  0999 V3000
M  V30 BEGIN CTAB
M  V30 COUNTS 52 56 0 0 0
M  V30 BEGIN ATOM
M  V30 1 O -1.582525 -5.627047 3.236904 0
M  V30 2 C -0.830691 -4.634732 3.080677 0
M  V30 3 N 0.347816 -4.094639 3.671136 0
M  V30 4 C 0.659961 -2.915380 2.976694 0
M  V30 5 O 1.697795 -2.295853 3.377855 0
M  V30 6 C -0.354661 -2.709621 1.918149 0
M  V30 7 C -0.210137 -1.509674 1.104706 0
M  V30 8 C 0.937640 -1.059503 0.486924 0
M  V30 9 N 0.676527 0.090672 -0.158672 0
M  V30 10 C 1.719045 0.784013 -0.886125 0
M  V30 11 C 2.482667 1.690574 0.042647 0
M  V30 12 C 1.551399 2.694138 0.644517 0
M  V30 13 N 2.275261 3.596316 1.547587 0
M  V30 14 C 2.489775 3.429425 2.884171 0
M  V30 15 C 3.208456 4.466648 3.408077 0
M  V30 16 N 3.442947 5.300599 2.354384 0
M  V30 17 C 2.881904 4.761585 1.274675 0
M  V30 18 C -0.613766 0.430886 0.005386 0
M  V30 19 C -1.368081 1.497854 -0.443545 0
M  V30 20 C -2.701311 1.594218 -0.113794 0
M  V30 21 C -3.309420 0.615117 0.679041 0
M  V30 22 C -2.493544 -0.422778 1.091757 0
M  V30 23 C -1.163056 -0.565692 0.791288 0
M  V30 24 C -1.211449 -3.727346 2.001234 0
M  V30 25 N -2.282895 -3.733239 1.034900 0
M  V30 26 C -1.866455 -4.036892 -0.299330 0
M  V30 27 C -0.520414 -4.311186 -0.572472 0
M  V30 28 C -0.110291 -4.603812 -1.872488 0
M  V30 29 C -0.993246 -4.634652 -2.919668 0
M  V30 30 C -2.324812 -4.365712 -2.661813 0
M  V30 31 C -2.738150 -4.074627 -1.375005 0
M  V30 32 H 0.771748 -4.611669 4.468590 0
M  V30 33 H 1.885988 -1.603847 0.551934 0
M  V30 34 H 1.258489 1.373492 -1.711150 0
M  V30 35 H 2.458790 0.050732 -1.304157 0
M  V30 36 H 2.805745 1.024941 0.898830 0
M  V30 37 H 3.367987 2.141850 -0.430134 0
M  V30 38 H 0.989161 3.311521 -0.068328 0
M  V30 39 H 0.792239 2.204734 1.320688 0
M  V30 40 H 2.095099 2.543731 3.383244 0
M  V30 41 H 3.455150 4.475823 4.444115 0
M  V30 42 H 2.892535 5.186034 0.267419 0
M  V30 43 H -0.904125 2.256075 -1.058395 0
M  V30 44 H -3.333868 2.411012 -0.441320 0
M  V30 45 H -4.357916 0.670143 0.951188 0
M  V30 46 H -2.991549 -1.156579 1.707297 0
M  V30 47 H -3.302676 -3.551323 1.155943 0
M  V30 48 H 0.242990 -4.312772 0.176219 0
M  V30 49 H 0.949219 -4.814873 -2.064101 0
M  V30 50 H -0.603348 -4.870105 -3.903866 0
M  V30 51 H -3.018410 -4.393712 -3.505032 0
M  V30 52 H -3.785197 -3.861410 -1.165094 0
M  V30 END ATOM
M  V30 BEGIN BOND
M  V30 1 2 1 2
M  V30 2 1 2 3
M  V30 3 1 3 4
M  V30 4 2 4 5
M  V30 5 1 4 6
M  V30 6 1 6 7
M  V30 7 2 7 8
M  V30 8 1 8 9
M  V30 9 1 9 10
M  V30 10 1 10 11
M  V30 11 1 11 12
M  V30 12 1 12 13
M  V30 13 1 13 14
M  V30 14 2 14 15
M  V30 15 1 15 16
M  V30 16 2 16 17
M  V30 17 1 9 18
M  V30 18 2 18 19
M  V30 19 1 19 20
M  V30 20 2 20 21
M  V30 21 1 21 22
M  V30 22 2 22 23
M  V30 23 2 6 24
M  V30 24 1 24 25
M  V30 25 1 25 26
M  V30 26 2 26 27
M  V30 27 1 27 28
M  V30 28 2 28 29
M  V30 29 1 29 30
M  V30 30 2 30 31
M  V30 31 1 24 2
M  V30 32 1 31 26
M  V30 33 1 23 7
M  V30 34 1 17 13
M  V30 35 1 23 18
M  V30 36 1 3 32
M  V30 37 1 8 33
M  V30 38 1 10 34
M  V30 39 1 10 35
M  V30 40 1 11 36
M  V30 41 1 11 37
M  V30 42 1 12 38
M  V30 43 1 12 39
M  V30 44 1 14 40
M  V30 45 1 15 41
M  V30 46 1 17 42
M  V30 47 1 19 43
M  V30 48 1 20 44
M  V30 49 1 21 45
M  V30 50 1 22 46
M  V30 51 1 25 47
M  V30 52 1 27 48
M  V30 53 1 28 49
M  V30 54 1 29 50
M  V30 55 1 30 51
M  V30 56 1 31 52
M  V30 END BOND
M  V30 END CTAB
M  END
>  <Dataset>  (774) 
ChEMBL_Kinases

>  <Ligand_Instance>  (774) 
nan

>  <PDB_ID>  (774) 
nan

>  <Standardized_SMILES>  (774) 
O=C1NC(=O)C(c2cn(CCCn3ccnc3)c3ccccc23)=C1Nc1ccccc1

>  <Name>  (774) 
nan

>  <Pocket>  (774) 
nan

>  <ATP_Site>  (774) 
nan

>  <Peripheral>  (774) 
nan

>  <Num_H_Atoms_ProtBoundConf>  (774) 
nan

>  <Num_Resolved_Atoms>  (774) 
nan

>  <Num_Not_Resolved_Atoms>  (774) 
nan

$$$$
CHEMBL3823505
     RDKit          3D

  0  0  0  0  0  0  0  0  0  0999 V3000
M  V30 BEGIN CTAB
M  V30 COUNTS 23 25 0 0 0
M  V30 BEGIN ATOM
M  V30 1 N 2.738639 -0.530468 4.644403 0
M  V30 2 C 2.028500 -0.704328 3.423545 0
M  V30 3 N 1.859730 -1.978707 2.965529 0
M  V30 4 C 1.184957 -2.171377 1.801729 0
M  V30 5 C 0.718579 -1.037323 1.169878 0
M  V30 6 C 0.033066 -1.251479 -0.014971 0
M  V30 7 C -0.481524 -0.188538 -0.737796 0
M  V30 8 C -1.181198 -0.330764 -1.936721 0
M  V30 9 N -1.663717 0.729089 -2.605901 0
M  V30 10 C -1.501695 1.991549 -2.160879 0
M  V30 11 C -0.821067 2.216058 -0.982856 0
M  V30 12 C -0.321990 1.118063 -0.290962 0
M  V30 13 C 0.361251 1.328306 0.889524 0
M  V30 14 C 0.870669 0.262919 1.603302 0
M  V30 15 N 1.554556 0.379009 2.772036 0
M  V30 16 H 1.929897 -0.639930 5.303389 0
M  V30 17 H 3.664618 -0.353293 5.089776 0
M  V30 18 H 1.019223 -3.156287 1.388245 0
M  V30 19 H -0.150875 -2.223032 -0.457332 0
M  V30 20 H -1.301308 -1.350255 -2.278003 0
M  V30 21 H -1.880771 2.868218 -2.680589 0
M  V30 22 H -0.651023 3.190380 -0.563512 0
M  V30 23 H 0.506128 2.309034 1.267279 0
M  V30 END ATOM
M  V30 BEGIN BOND
M  V30 1 1 1 2
M  V30 2 2 2 3
M  V30 3 1 3 4
M  V30 4 2 4 5
M  V30 5 1 5 6
M  V30 6 2 6 7
M  V30 7 1 7 8
M  V30 8 2 8 9
M  V30 9 1 9 10
M  V30 10 2 10 11
M  V30 11 1 11 12
M  V30 12 2 12 13
M  V30 13 1 13 14
M  V30 14 2 14 15
M  V30 15 1 15 2
M  V30 16 1 14 5
M  V30 17 1 12 7
M  V30 18 1 1 16
M  V30 19 1 1 17
M  V30 20 1 4 18
M  V30 21 1 6 19
M  V30 22 1 8 20
M  V30 23 1 10 21
M  V30 24 1 11 22
M  V30 25 1 13 23
M  V30 END BOND
M  V30 END CTAB
M  END
>  <Dataset>  (775) 
ChEMBL_Kinases

>  <Ligand_Instance>  (775) 
nan

>  <PDB_ID>  (775) 
nan

>  <Standardized_SMILES>  (775) 
Nc1ncc2cc3cnccc3cc2n1

>  <Name>  (775) 
nan

>  <Pocket>  (775) 
nan

>  <ATP_Site>  (775) 
nan

>  <Peripheral>  (775) 
nan

>  <Num_H_Atoms_ProtBoundConf>  (775) 
nan

>  <Num_Resolved_Atoms>  (775) 
nan

>  <Num_Not_Resolved_Atoms>  (775) 
nan

$$$$
CHEMBL3818173
     RDKit          3D

  0  0  0  0  0  0  0  0  0  0999 V3000
M  V30 BEGIN CTAB
M  V30 COUNTS 36 39 0 0 0
M  V30 BEGIN ATOM
M  V30 1 O -1.054693 -1.801329 2.904738 0
M  V30 2 C 0.203002 -1.844115 2.895452 0
M  V30 3 N 1.127739 -2.168202 1.879712 0
M  V30 4 C 0.510288 -2.513505 0.621318 0
M  V30 5 C 0.307248 -1.420201 -0.228300 0
M  V30 6 C -0.281100 -1.700351 -1.445085 0
M  V30 7 N -0.519580 -0.640488 -2.361961 0
M  V30 8 C -0.142651 0.677630 -1.993499 0
M  V30 9 C 1.147922 1.061588 -2.339431 0
M  V30 10 Cl 2.252029 -0.025067 -3.186326 0
M  V30 11 C 1.576192 2.331490 -2.009439 0
M  V30 12 N 0.749787 3.178682 -1.362384 0
M  V30 13 C -0.508272 2.833812 -1.013716 0
M  V30 14 C -0.962494 1.560727 -1.334984 0
M  V30 15 O -2.258884 1.435776 -0.885981 0
M  V30 16 C -2.416032 2.458638 0.106771 0
M  V30 17 O -1.548301 3.488501 -0.359599 0
M  V30 18 C -0.626915 -2.999927 -1.750466 0
M  V30 19 C -0.403903 -4.049237 -0.871995 0
M  V30 20 N 0.177319 -3.761087 0.325943 0
M  V30 21 C 0.711450 -1.470952 4.237915 0
M  V30 22 C 1.952541 -0.554785 4.172442 0
M  V30 23 C 2.040753 -1.918960 4.727419 0
M  V30 24 H 2.144824 -2.135190 2.105327 0
M  V30 25 H 0.589937 -0.411312 0.040635 0
M  V30 26 H -0.963835 -0.838695 -3.285562 0
M  V30 27 H 2.581878 2.653240 -2.270229 0
M  V30 28 H -2.047622 2.133247 1.095093 0
M  V30 29 H -3.465898 2.808882 0.147773 0
M  V30 30 H -1.086850 -3.251446 -2.689943 0
M  V30 31 H -0.667747 -5.088503 -1.087765 0
M  V30 32 H -0.018841 -1.216678 5.033897 0
M  V30 33 H 2.449276 -0.413554 3.197881 0
M  V30 34 H 1.987889 0.303819 4.878317 0
M  V30 35 H 2.200226 -2.082882 5.795812 0
M  V30 36 H 2.476980 -2.746436 4.105202 0
M  V30 END ATOM
M  V30 BEGIN BOND
M  V30 1 2 1 2
M  V30 2 1 2 3
M  V30 3 1 3 4
M  V30 4 2 4 5
M  V30 5 1 5 6
M  V30 6 1 6 7
M  V30 7 1 7 8
M  V30 8 2 8 9
M  V30 9 1 9 10
M  V30 10 1 9 11
M  V30 11 2 11 12
M  V30 12 1 12 13
M  V30 13 2 13 14
M  V30 14 1 14 15
M  V30 15 1 15 16
M  V30 16 1 16 17
M  V30 17 2 6 18
M  V30 18 1 18 19
M  V30 19 2 19 20
M  V30 20 1 2 21
M  V30 21 1 21 22
M  V30 22 1 22 23
M  V30 23 1 20 4
M  V30 24 1 23 21
M  V30 25 1 14 8
M  V30 26 1 17 13
M  V30 27 1 3 24
M  V30 28 1 5 25
M  V30 29 1 7 26
M  V30 30 1 11 27
M  V30 31 1 16 28
M  V30 32 1 16 29
M  V30 33 1 18 30
M  V30 34 1 19 31
M  V30 35 1 21 32
M  V30 36 1 22 33
M  V30 37 1 22 34
M  V30 38 1 23 35
M  V30 39 1 23 36
M  V30 END BOND
M  V30 END CTAB
M  END
>  <Dataset>  (776) 
ChEMBL_Kinases

>  <Ligand_Instance>  (776) 
nan

>  <PDB_ID>  (776) 
nan

>  <Standardized_SMILES>  (776) 
O=C(Nc1cc(Nc2c(Cl)cnc3c2OCO3)ccn1)C1CC1

>  <Name>  (776) 
nan

>  <Pocket>  (776) 
nan

>  <ATP_Site>  (776) 
nan

>  <Peripheral>  (776) 
nan

>  <Num_H_Atoms_ProtBoundConf>  (776) 
nan

>  <Num_Resolved_Atoms>  (776) 
nan

>  <Num_Not_Resolved_Atoms>  (776) 
nan

$$$$
CHEMBL3815054
     RDKit          3D

  0  0  0  0  0  0  0  0  0  0999 V3000
M  V30 BEGIN CTAB
M  V30 COUNTS 57 62 0 0 0
M  V30 BEGIN ATOM
M  V30 1 C 1.035474 -1.027431 6.100538 0
M  V30 2 N 0.702206 0.129931 6.900661 0
M  V30 3 C 0.521706 -0.203625 8.296296 0
M  V30 4 C -0.436453 0.849464 6.379964 0
M  V30 5 C -0.139059 1.520168 5.063059 0
M  V30 6 C -1.349601 2.270706 4.519283 0
M  V30 7 N -0.938620 2.863585 3.260367 0
M  V30 8 C -1.090180 2.153955 2.105464 0
M  V30 9 C -0.609738 2.993406 1.092695 0
M  V30 10 C -0.606586 2.560331 -0.321847 0
M  V30 11 C -0.759223 3.411194 -1.408297 0
M  V30 12 C -0.737847 2.907502 -2.690547 0
M  V30 13 C -0.566560 1.558268 -2.951873 0
M  V30 14 C -0.412117 0.690953 -1.890329 0
M  V30 15 C -0.437679 1.220972 -0.613534 0
M  V30 16 C -0.241065 -0.691782 -2.338314 0
M  V30 17 N -0.055072 -1.948069 -1.891690 0
M  V30 18 C 0.009815 -2.716249 -3.014083 0
M  V30 19 C 0.196075 -4.090722 -3.034954 0
M  V30 20 C 0.236657 -4.706838 -4.277171 0
M  V30 21 C 0.433444 -6.150534 -4.328280 0
M  V30 22 C 0.007222 -7.084732 -3.406997 0
M  V30 23 N 0.380452 -8.296789 -3.805091 0
M  V30 24 N 1.028158 -8.130433 -4.953391 0
M  V30 25 C 1.090518 -6.816652 -5.324715 0
M  V30 26 C 0.092684 -3.940946 -5.417413 0
M  V30 27 C -0.092845 -2.572508 -5.402426 0
M  V30 28 C -0.131666 -1.967960 -4.162680 0
M  V30 29 C -0.292484 -0.668606 -3.716416 0
M  V30 30 C -0.493578 0.712823 -4.135445 0
M  V30 31 O -0.590391 1.123694 -5.322738 0
M  V30 32 C -0.185085 4.178525 1.665437 0
M  V30 33 N -0.410502 4.042692 2.996622 0
M  V30 34 H 1.908710 -0.900537 5.459036 0
M  V30 35 H 1.228165 -1.905388 6.756323 0
M  V30 36 H 0.095133 -1.291321 5.544601 0
M  V30 37 H 0.052208 -1.231111 8.287773 0
M  V30 38 H -0.155854 0.536638 8.750620 0
M  V30 39 H 1.511450 -0.293847 8.764566 0
M  V30 40 H -0.712011 1.626519 7.117579 0
M  V30 41 H -1.286887 0.149586 6.310155 0
M  V30 42 H 0.093026 0.721440 4.322522 0
M  V30 43 H 0.701944 2.201658 5.098337 0
M  V30 44 H -2.181915 1.550454 4.391755 0
M  V30 45 H -1.713245 3.029203 5.240400 0
M  V30 46 H -1.490511 1.156029 1.968465 0
M  V30 47 H -0.889736 4.461832 -1.181531 0
M  V30 48 H -0.857762 3.580233 -3.529348 0
M  V30 49 H -0.315568 0.543387 0.247690 0
M  V30 50 H 0.022518 -2.248657 -0.897574 0
M  V30 51 H 0.308327 -4.698333 -2.147098 0
M  V30 52 H -0.554709 -6.876247 -2.483141 0
M  V30 53 H 1.426141 -8.944332 -5.478529 0
M  V30 54 H 1.575185 -6.469514 -6.224446 0
M  V30 55 H 0.122128 -4.406655 -6.399902 0
M  V30 56 H -0.206887 -1.959645 -6.286707 0
M  V30 57 H 0.224104 4.980561 1.087388 0
M  V30 END ATOM
M  V30 BEGIN BOND
M  V30 1 1 1 2
M  V30 2 1 2 3
M  V30 3 1 2 4
M  V30 4 1 4 5
M  V30 5 1 5 6
M  V30 6 1 6 7
M  V30 7 1 7 8
M  V30 8 2 8 9
M  V30 9 1 9 10
M  V30 10 2 10 11
M  V30 11 1 11 12
M  V30 12 2 12 13
M  V30 13 1 13 14
M  V30 14 2 14 15
M  V30 15 1 14 16
M  V30 16 1 16 17
M  V30 17 1 17 18
M  V30 18 2 18 19
M  V30 19 1 19 20
M  V30 20 1 20 21
M  V30 21 1 21 22
M  V30 22 2 22 23
M  V30 23 1 23 24
M  V30 24 1 24 25
M  V30 25 2 20 26
M  V30 26 1 26 27
M  V30 27 2 27 28
M  V30 28 1 28 29
M  V30 29 1 29 30
M  V30 30 2 30 31
M  V30 31 1 9 32
M  V30 32 2 32 33
M  V30 33 1 33 7
M  V30 34 1 15 10
M  V30 35 2 29 16
M  V30 36 1 30 13
M  V30 37 1 28 18
M  V30 38 2 25 21
M  V30 39 1 1 34
M  V30 40 1 1 35
M  V30 41 1 1 36
M  V30 42 1 3 37
M  V30 43 1 3 38
M  V30 44 1 3 39
M  V30 45 1 4 40
M  V30 46 1 4 41
M  V30 47 1 5 42
M  V30 48 1 5 43
M  V30 49 1 6 44
M  V30 50 1 6 45
M  V30 51 1 8 46
M  V30 52 1 11 47
M  V30 53 1 12 48
M  V30 54 1 15 49
M  V30 55 1 17 50
M  V30 56 1 19 51
M  V30 57 1 22 52
M  V30 58 1 24 53
M  V30 59 1 25 54
M  V30 60 1 26 55
M  V30 61 1 27 56
M  V30 62 1 32 57
M  V30 END BOND
M  V30 END CTAB
M  END
>  <Dataset>  (777) 
ChEMBL_Kinases

>  <Ligand_Instance>  (777) 
nan

>  <PDB_ID>  (777) 
nan

>  <Standardized_SMILES>  (777) 
CN(C)CCCn1cc(-c2ccc3c(c2)-c2[nH]c4cc(-c5cn[nH]c5)ccc4c2C3=O)cn1

>  <Name>  (777) 
nan

>  <Pocket>  (777) 
nan

>  <ATP_Site>  (777) 
nan

>  <Peripheral>  (777) 
nan

>  <Num_H_Atoms_ProtBoundConf>  (777) 
nan

>  <Num_Resolved_Atoms>  (777) 
nan

>  <Num_Not_Resolved_Atoms>  (777) 
nan

$$$$
CHEMBL121405
     RDKit          3D

  0  0  0  0  0  0  0  0  0  0999 V3000
M  V30 BEGIN CTAB
M  V30 COUNTS 61 65 0 0 0
M  V30 BEGIN ATOM
M  V30 1 O -0.251055 -1.641066 -3.716399 0
M  V30 2 C 1.018842 -2.145322 -3.348575 0
M  V30 3 C 1.400673 -1.334615 -2.145506 0
M  V30 4 N 2.424586 -0.454777 -2.017907 0
M  V30 5 C 2.361428 0.023721 -0.749007 0
M  V30 6 C 3.117998 0.967410 0.053273 0
M  V30 7 C 2.443862 2.092920 0.526752 0
M  V30 8 C 3.043284 3.065686 1.298630 0
M  V30 9 C 4.380082 2.942838 1.634484 0
M  V30 10 F 5.023674 3.867284 2.390682 0
M  V30 11 C 5.057476 1.837307 1.173967 0
M  V30 12 C 4.469228 0.856962 0.400893 0
M  V30 13 C 1.300024 -0.572641 -0.125251 0
M  V30 14 C 0.631919 -0.559664 1.197417 0
M  V30 15 C 1.301432 -0.962899 2.344568 0
M  V30 16 C 0.570129 -0.907579 3.511215 0
M  V30 17 N -0.712761 -0.496242 3.582893 0
M  V30 18 C -1.373676 -0.102667 2.478839 0
M  V30 19 N -2.731022 0.331546 2.543900 0
M  V30 20 C -3.439113 0.359085 3.785850 0
M  V30 21 C -4.852108 0.859911 3.573718 0
M  V30 22 C -5.548315 0.008688 2.561242 0
M  V30 23 C -5.545657 -1.447375 2.888596 0
M  V30 24 C -4.284147 -1.975817 3.482967 0
M  V30 25 C -3.570282 -1.026850 4.403945 0
M  V30 26 C -0.688006 -0.138120 1.282435 0
M  V30 27 O 0.729702 -1.398802 -1.001729 0
M  V30 28 C 1.925288 -1.898276 -4.490328 0
M  V30 29 C 2.912208 -3.000179 -4.767146 0
M  V30 30 N 2.382978 -4.328924 -4.536104 0
M  V30 31 C 2.055700 -4.411306 -3.140882 0
M  V30 32 C 0.816459 -3.563889 -2.946486 0
M  V30 33 H -0.767001 -1.399186 -2.906140 0
M  V30 34 H 1.398130 2.217153 0.281109 0
M  V30 35 H 2.463349 3.931392 1.644093 0
M  V30 36 H 6.119068 1.691485 1.411352 0
M  V30 37 H 4.976163 -0.018551 0.026914 0
M  V30 38 H 2.327195 -1.291849 2.288184 0
M  V30 39 H 1.123923 -1.232353 4.405752 0
M  V30 40 H -3.196878 0.629602 1.660620 0
M  V30 41 H -2.952087 1.002213 4.544402 0
M  V30 42 H -4.905272 1.908912 3.285240 0
M  V30 43 H -5.395938 0.714502 4.538298 0
M  V30 44 H -6.631741 0.322135 2.555575 0
M  V30 45 H -5.200718 0.185266 1.520480 0
M  V30 46 H -6.449656 -1.755312 3.491282 0
M  V30 47 H -5.681871 -1.992039 1.909662 0
M  V30 48 H -4.587192 -2.851108 4.127071 0
M  V30 49 H -3.596363 -2.415563 2.728943 0
M  V30 50 H -4.236299 -0.881733 5.300051 0
M  V30 51 H -2.603337 -1.470710 4.654399 0
M  V30 52 H -1.171608 0.170174 0.347700 0
M  V30 53 H 1.349352 -1.761788 -5.452554 0
M  V30 54 H 2.501859 -0.955842 -4.385853 0
M  V30 55 H 3.780843 -2.861901 -4.122651 0
M  V30 56 H 3.228891 -2.942775 -5.836390 0
M  V30 57 H 1.499611 -4.399025 -5.095451 0
M  V30 58 H 2.850495 -3.968341 -2.534191 0
M  V30 59 H 1.842903 -5.430632 -2.773588 0
M  V30 60 H -0.067562 -4.028794 -3.446685 0
M  V30 61 H 0.583095 -3.622295 -1.863144 0
M  V30 END ATOM
M  V30 BEGIN BOND
M  V30 1 1 1 2
M  V30 2 1 2 3
M  V30 3 2 3 4
M  V30 4 1 4 5
M  V30 5 1 5 6
M  V30 6 2 6 7
M  V30 7 1 7 8
M  V30 8 2 8 9
M  V30 9 1 9 10
M  V30 10 1 9 11
M  V30 11 2 11 12
M  V30 12 2 5 13
M  V30 13 1 13 14
M  V30 14 2 14 15
M  V30 15 1 15 16
M  V30 16 2 16 17
M  V30 17 1 17 18
M  V30 18 1 18 19
M  V30 19 1 19 20
M  V30 20 1 20 21
M  V30 21 1 21 22
M  V30 22 1 22 23
M  V30 23 1 23 24
M  V30 24 1 24 25
M  V30 25 2 18 26
M  V30 26 1 13 27
M  V30 27 1 2 28
M  V30 28 1 28 29
M  V30 29 1 29 30
M  V30 30 1 30 31
M  V30 31 1 31 32
M  V30 32 1 32 2
M  V30 33 1 27 3
M  V30 34 1 12 6
M  V30 35 1 26 14
M  V30 36 1 25 20
M  V30 37 1 1 33
M  V30 38 1 7 34
M  V30 39 1 8 35
M  V30 40 1 11 36
M  V30 41 1 12 37
M  V30 42 1 15 38
M  V30 43 1 16 39
M  V30 44 1 19 40
M  V30 45 1 20 41
M  V30 46 1 21 42
M  V30 47 1 21 43
M  V30 48 1 22 44
M  V30 49 1 22 45
M  V30 50 1 23 46
M  V30 51 1 23 47
M  V30 52 1 24 48
M  V30 53 1 24 49
M  V30 54 1 25 50
M  V30 55 1 25 51
M  V30 56 1 26 52
M  V30 57 1 28 53
M  V30 58 1 28 54
M  V30 59 1 29 55
M  V30 60 1 29 56
M  V30 61 1 30 57
M  V30 62 1 31 58
M  V30 63 1 31 59
M  V30 64 1 32 60
M  V30 65 1 32 61
M  V30 END BOND
M  V30 END CTAB
M  END
>  <Dataset>  (778) 
ChEMBL_Kinases

>  <Ligand_Instance>  (778) 
nan

>  <PDB_ID>  (778) 
nan

>  <Standardized_SMILES>  (778) 
OC1(c2nc(-c3ccc(F)cc3)c(-c3ccnc(NC4CCCCC4)c3)o2)CCNCC1

>  <Name>  (778) 
nan

>  <Pocket>  (778) 
nan

>  <ATP_Site>  (778) 
nan

>  <Peripheral>  (778) 
nan

>  <Num_H_Atoms_ProtBoundConf>  (778) 
nan

>  <Num_Resolved_Atoms>  (778) 
nan

>  <Num_Not_Resolved_Atoms>  (778) 
nan

$$$$
CHEMBL3814269
     RDKit          3D

  0  0  0  0  0  0  0  0  0  0999 V3000
M  V30 BEGIN CTAB
M  V30 COUNTS 32 34 0 0 0
M  V30 BEGIN ATOM
M  V30 1 C 0.040151 -4.397851 1.882658 0
M  V30 2 O 0.178848 -3.029646 2.149781 0
M  V30 3 C 1.329611 -2.406395 2.574135 0
M  V30 4 C 2.500911 -3.104300 2.783533 0
M  V30 5 C 3.651089 -2.468308 3.209853 0
M  V30 6 C 3.642078 -1.109896 3.434241 0
M  V30 7 Br 5.207227 -0.166747 4.027347 0
M  V30 8 C 2.478392 -0.377874 3.232659 0
M  V30 9 C 1.330673 -1.028125 2.804642 0
M  V30 10 C 0.085698 -0.256547 2.587043 0
M  V30 11 C -0.263909 0.091450 1.385956 0
M  V30 12 S 0.797288 -0.382982 -0.019242 0
M  V30 13 C -0.355182 0.451381 -1.263312 0
M  V30 14 N -0.260302 0.548086 -2.596566 0
M  V30 15 C -1.216376 1.200490 -3.283357 0
M  V30 16 O -1.085313 1.263015 -4.508257 0
M  V30 17 C -2.223361 1.713739 -2.497287 0
M  V30 18 C -3.308215 2.446378 -3.210279 0
M  V30 19 N -2.263544 1.584321 -1.164763 0
M  V30 20 N -1.328677 0.944950 -0.480725 0
M  V30 21 C -1.274509 0.760577 0.837762 0
M  V30 22 O -2.133902 1.180552 1.665294 0
M  V30 23 H 0.131224 -4.536874 0.777579 0
M  V30 24 H 0.746015 -5.055080 2.389960 0
M  V30 25 H -0.995338 -4.752570 2.156084 0
M  V30 26 H 2.567357 -4.166084 2.624674 0
M  V30 27 H 4.607732 -2.945207 3.396431 0
M  V30 28 H 2.386361 0.692254 3.385781 0
M  V30 29 H -0.586614 0.052278 3.405675 0
M  V30 30 H -3.764507 1.819659 -4.000694 0
M  V30 31 H -2.822976 3.290281 -3.743686 0
M  V30 32 H -4.100042 2.800778 -2.535546 0
M  V30 END ATOM
M  V30 BEGIN BOND
M  V30 1 1 1 2
M  V30 2 1 2 3
M  V30 3 2 3 4
M  V30 4 1 4 5
M  V30 5 2 5 6
M  V30 6 1 6 7
M  V30 7 1 6 8
M  V30 8 2 8 9
M  V30 9 1 9 10
M  V30 10 2 10 11
M  V30 11 1 11 12
M  V30 12 1 12 13
M  V30 13 2 13 14
M  V30 14 1 14 15
M  V30 15 2 15 16
M  V30 16 1 15 17
M  V30 17 1 17 18
M  V30 18 2 17 19
M  V30 19 1 19 20
M  V30 20 1 20 21
M  V30 21 2 21 22
M  V30 22 1 9 3
M  V30 23 1 21 11
M  V30 24 1 20 13
M  V30 25 1 1 23
M  V30 26 1 1 24
M  V30 27 1 1 25
M  V30 28 1 4 26
M  V30 29 1 5 27
M  V30 30 1 8 28
M  V30 31 1 10 29
M  V30 32 1 18 30
M  V30 33 1 18 31
M  V30 34 1 18 32
M  V30 END BOND
M  V30 END CTAB
M  END
>  <Dataset>  (779) 
ChEMBL_Kinases

>  <Ligand_Instance>  (779) 
nan

>  <PDB_ID>  (779) 
nan

>  <Standardized_SMILES>  (779) 
COc1ccc(Br)cc1/C=c1\sc2nc(=O)c(C)nn2c1=O

>  <Name>  (779) 
nan

>  <Pocket>  (779) 
nan

>  <ATP_Site>  (779) 
nan

>  <Peripheral>  (779) 
nan

>  <Num_H_Atoms_ProtBoundConf>  (779) 
nan

>  <Num_Resolved_Atoms>  (779) 
nan

>  <Num_Not_Resolved_Atoms>  (779) 
nan

$$$$
CHEMBL3810312
     RDKit          3D

  0  0  0  0  0  0  0  0  0  0999 V3000
M  V30 BEGIN CTAB
M  V30 COUNTS 64 68 0 0 0
M  V30 BEGIN ATOM
M  V30 1 C 4.074449 -1.035563 7.433966 0
M  V30 2 O 4.098733 -0.071792 6.406984 0
M  V30 3 C 2.953156 0.639856 6.038094 0
M  V30 4 C 1.790278 0.357870 6.725462 0
M  V30 5 C 0.663850 1.069699 6.350170 0
M  V30 6 C 0.725097 2.003901 5.342245 0
M  V30 7 C 1.879901 2.288523 4.654276 0
M  V30 8 C 2.113998 3.250539 3.548883 0
M  V30 9 N 1.945623 2.575451 2.296741 0
M  V30 10 C 0.768703 2.205924 1.638953 0
M  V30 11 O -0.254997 2.557834 2.317729 0
M  V30 12 C 0.593523 1.520409 0.369722 0
M  V30 13 C -0.696855 1.296588 -0.073179 0
M  V30 14 C -0.991383 0.668578 -1.247214 0
M  V30 15 C -2.459566 0.529376 -1.600400 0
M  V30 16 N -3.039051 1.842311 -1.707903 0
M  V30 17 C -3.684512 2.483165 -2.795639 0
M  V30 18 O -4.096380 3.645772 -2.746829 0
M  V30 19 N -3.769810 1.595360 -3.898287 0
M  V30 20 C -3.266936 0.276892 -3.876009 0
M  V30 21 C -3.378797 -0.613044 -5.035203 0
M  V30 22 C -2.660212 -0.257473 -2.833800 0
M  V30 23 C -2.125617 -1.582958 -2.589936 0
M  V30 24 O -1.550409 -1.974538 -1.503659 0
M  V30 25 N -1.997552 -2.810049 -3.253486 0
M  V30 26 C -1.366485 -3.897433 -2.588509 0
M  V30 27 C 0.000442 -3.960812 -2.785783 0
M  V30 28 C 0.734897 -4.976846 -2.191661 0
M  V30 29 C 0.080654 -5.919050 -1.404122 0
M  V30 30 N 0.440439 -7.007597 -0.692108 0
M  V30 31 N -0.606905 -7.561881 -0.111014 0
M  V30 32 C -1.730920 -6.880663 -0.397072 0
M  V30 33 C -1.282321 -5.850758 -1.210946 0
M  V30 34 C -2.011983 -4.833709 -1.806433 0
M  V30 35 C 0.046008 0.232645 -2.037779 0
M  V30 36 C 1.357984 0.416024 -1.668663 0
M  V30 37 C 1.576492 1.055942 -0.473274 0
M  V30 38 F 2.858924 1.239085 -0.104319 0
M  V30 39 C 3.022042 1.574294 5.027014 0
M  V30 40 H 5.070909 -1.465127 7.566900 0
M  V30 41 H 3.814080 -0.558938 8.410039 0
M  V30 42 H 3.342202 -1.805066 7.152692 0
M  V30 43 H 1.685907 -0.363967 7.523120 0
M  V30 44 H -0.283594 0.907838 6.838557 0
M  V30 45 H -0.130908 2.579783 5.028255 0
M  V30 46 H 1.393391 4.090573 3.683379 0
M  V30 47 H 3.116620 3.734732 3.634657 0
M  V30 48 H 2.843762 2.331946 1.821673 0
M  V30 49 H -1.518279 1.637856 0.544826 0
M  V30 50 H -2.957378 -0.007558 -0.736222 0
M  V30 51 H -2.909596 2.319519 -0.779473 0
M  V30 52 H -4.228331 1.931606 -4.774034 0
M  V30 53 H -3.855842 0.028037 -5.849252 0
M  V30 54 H -4.098736 -1.436974 -4.924898 0
M  V30 55 H -2.411978 -0.902251 -5.487882 0
M  V30 56 H -2.404914 -2.783680 -4.212126 0
M  V30 57 H 0.558236 -3.257456 -3.385796 0
M  V30 58 H 1.800692 -5.101071 -2.292423 0
M  V30 59 H 1.452453 -7.320513 -0.648915 0
M  V30 60 H -2.751652 -7.074717 -0.076864 0
M  V30 61 H -3.093713 -4.697955 -1.711300 0
M  V30 62 H -0.133455 -0.253769 -2.983703 0
M  V30 63 H 2.174077 0.076417 -2.282643 0
M  V30 64 H 3.982014 1.713481 4.558131 0
M  V30 END ATOM
M  V30 BEGIN BOND
M  V30 1 1 1 2
M  V30 2 1 2 3
M  V30 3 2 3 4
M  V30 4 1 4 5
M  V30 5 2 5 6
M  V30 6 1 6 7
M  V30 7 1 7 8
M  V30 8 1 8 9
M  V30 9 1 9 10
M  V30 10 2 10 11
M  V30 11 1 10 12
M  V30 12 2 12 13
M  V30 13 1 13 14
M  V30 14 1 14 15
M  V30 15 1 15 16
M  V30 16 1 16 17
M  V30 17 2 17 18
M  V30 18 1 17 19
M  V30 19 1 19 20
M  V30 20 1 20 21
M  V30 21 2 20 22
M  V30 22 1 22 23
M  V30 23 2 23 24
M  V30 24 1 23 25
M  V30 25 1 25 26
M  V30 26 2 26 27
M  V30 27 1 27 28
M  V30 28 2 28 29
M  V30 29 1 29 30
M  V30 30 1 30 31
M  V30 31 2 31 32
M  V30 32 1 32 33
M  V30 33 2 33 34
M  V30 34 2 14 35
M  V30 35 1 35 36
M  V30 36 2 36 37
M  V30 37 1 37 38
M  V30 38 2 7 39
M  V30 39 1 39 3
M  V30 40 1 37 12
M  V30 41 1 22 15
M  V30 42 1 34 26
M  V30 43 1 33 29
M  V30 44 1 1 40
M  V30 45 1 1 41
M  V30 46 1 1 42
M  V30 47 1 4 43
M  V30 48 1 5 44
M  V30 49 1 6 45
M  V30 50 1 8 46
M  V30 51 1 8 47
M  V30 52 1 9 48
M  V30 53 1 13 49
M  V30 54 1 15 50
M  V30 55 1 16 51
M  V30 56 1 19 52
M  V30 57 1 21 53
M  V30 58 1 21 54
M  V30 59 1 21 55
M  V30 60 1 25 56
M  V30 61 1 27 57
M  V30 62 1 28 58
M  V30 63 1 30 59
M  V30 64 1 32 60
M  V30 65 1 34 61
M  V30 66 1 35 62
M  V30 67 1 36 63
M  V30 68 1 39 64
M  V30 END BOND
M  V30 END CTAB
M  END
>  <Dataset>  (780) 
ChEMBL_Kinases

>  <Ligand_Instance>  (780) 
nan

>  <PDB_ID>  (780) 
nan

>  <Standardized_SMILES>  (780) 
COc1cccc(CNC(=O)c2cc(C3NC(=O)NC(C)=C3C(=O)Nc3ccc4[nH]ncc4c3)ccc2F)c1

>  <Name>  (780) 
nan

>  <Pocket>  (780) 
nan

>  <ATP_Site>  (780) 
nan

>  <Peripheral>  (780) 
nan

>  <Num_H_Atoms_ProtBoundConf>  (780) 
nan

>  <Num_Resolved_Atoms>  (780) 
nan

>  <Num_Not_Resolved_Atoms>  (780) 
nan

$$$$
CHEMBL1098827
     RDKit          3D

  0  0  0  0  0  0  0  0  0  0999 V3000
M  V30 BEGIN CTAB
M  V30 COUNTS 29 32 0 0 0
M  V30 BEGIN ATOM
M  V30 1 O 0.590429 1.326385 2.435500 0
M  V30 2 C 0.921104 0.296299 1.773331 0
M  V30 3 C 2.207306 -0.168906 1.922282 0
M  V30 4 C 3.148759 0.438136 2.760287 0
M  V30 5 C 4.437526 -0.032344 2.906185 0
M  V30 6 C 4.763218 -1.147254 2.176791 0
M  V30 7 C 3.891021 -1.800236 1.330733 0
M  V30 8 C 2.601192 -1.296132 1.210290 0
M  V30 9 N 1.697874 -1.880327 0.404890 0
M  V30 10 C 0.438230 -1.430739 0.254392 0
M  V30 11 N 0.054079 -0.327521 0.951746 0
M  V30 12 C -1.323087 -0.062759 0.612758 0
M  V30 13 C -2.129713 0.966732 1.086923 0
M  V30 14 C -3.440821 1.004633 0.599431 0
M  V30 15 C -3.911630 0.082284 -0.295680 0
M  V30 16 C -3.079235 -0.935031 -0.750321 0
M  V30 17 C -1.778314 -1.012532 -0.297312 0
M  V30 18 C -0.667792 -1.922599 -0.559841 0
M  V30 19 N -0.720150 -2.935545 -1.359777 0
M  V30 20 O -1.842244 -3.276359 -2.064138 0
M  V30 21 H 2.777832 1.303484 3.279834 0
M  V30 22 H 5.140050 0.474139 3.572685 0
M  V30 23 H 5.792756 -1.503662 2.308302 0
M  V30 24 H 4.188859 -2.686827 0.765998 0
M  V30 25 H -1.785086 1.704834 1.790597 0
M  V30 26 H -4.048464 1.803373 0.974484 0
M  V30 27 H -4.952221 0.167692 -0.640014 0
M  V30 28 H -3.469277 -1.659443 -1.461313 0
M  V30 29 H -1.779302 -3.542176 -3.040347 0
M  V30 END ATOM
M  V30 BEGIN BOND
M  V30 1 2 1 2
M  V30 2 1 2 3
M  V30 3 2 3 4
M  V30 4 1 4 5
M  V30 5 2 5 6
M  V30 6 1 6 7
M  V30 7 2 7 8
M  V30 8 1 8 9
M  V30 9 2 9 10
M  V30 10 1 10 11
M  V30 11 1 11 12
M  V30 12 2 12 13
M  V30 13 1 13 14
M  V30 14 2 14 15
M  V30 15 1 15 16
M  V30 16 2 16 17
M  V30 17 1 17 18
M  V30 18 2 18 19
M  V30 19 1 19 20
M  V30 20 1 11 2
M  V30 21 1 17 12
M  V30 22 1 8 3
M  V30 23 1 18 10
M  V30 24 1 4 21
M  V30 25 1 5 22
M  V30 26 1 6 23
M  V30 27 1 7 24
M  V30 28 1 13 25
M  V30 29 1 14 26
M  V30 30 1 15 27
M  V30 31 1 16 28
M  V30 32 1 20 29
M  V30 END BOND
M  V30 END CTAB
M  END
>  <Dataset>  (781) 
ChEMBL_Kinases

>  <Ligand_Instance>  (781) 
nan

>  <PDB_ID>  (781) 
nan

>  <Standardized_SMILES>  (781) 
O=c1c2ccccc2nc2n1-c1ccccc1/C2=N\O

>  <Name>  (781) 
nan

>  <Pocket>  (781) 
nan

>  <ATP_Site>  (781) 
nan

>  <Peripheral>  (781) 
nan

>  <Num_H_Atoms_ProtBoundConf>  (781) 
nan

>  <Num_Resolved_Atoms>  (781) 
nan

>  <Num_Not_Resolved_Atoms>  (781) 
nan

$$$$
CHEMBL3810107
     RDKit          3D

  0  0  0  0  0  0  0  0  0  0999 V3000
M  V30 BEGIN CTAB
M  V30 COUNTS 62 66 0 0 0
M  V30 BEGIN ATOM
M  V30 1 C 2.332466 -2.370590 5.603773 0
M  V30 2 C 1.034178 -2.425798 4.879445 0
M  V30 3 C 0.900794 -2.265172 3.572923 0
M  V30 4 C 2.147471 -2.026993 2.828356 0
M  V30 5 O 3.328812 -1.953465 3.262948 0
M  V30 6 N 2.146206 -1.842503 1.420624 0
M  V30 7 C 3.502381 -1.636905 0.954471 0
M  V30 8 C 4.167830 -2.785575 0.612220 0
M  V30 9 C 5.482108 -2.622393 0.169194 0
M  V30 10 C 6.039644 -1.354820 0.096547 0
M  V30 11 N 7.271141 -0.933836 -0.293024 0
M  V30 12 N 7.303316 0.402068 -0.176805 0
M  V30 13 C 6.114656 0.832358 0.279425 0
M  V30 14 C 5.303745 -0.255527 0.458359 0
M  V30 15 C 3.983534 -0.338516 0.910604 0
M  V30 16 C -0.345431 -2.267555 2.822395 0
M  V30 17 C -0.689108 -0.986006 2.146538 0
M  V30 18 C 0.015689 0.222802 2.219239 0
M  V30 19 C -0.464177 1.284277 1.485531 0
M  V30 20 C -1.593397 1.144914 0.715187 0
M  V30 21 F -2.008281 2.214310 0.027831 0
M  V30 22 C -2.310130 -0.029981 0.620710 0
M  V30 23 C -3.493426 -0.242347 -0.210908 0
M  V30 24 O -4.107548 -1.366246 -0.160934 0
M  V30 25 N -4.139324 0.591020 -1.120127 0
M  V30 26 C -5.268586 -0.184422 -1.658005 0
M  V30 27 C -5.952599 0.720763 -2.665537 0
M  V30 28 C -4.928241 1.065547 -3.695421 0
M  V30 29 C -4.787799 0.243357 -4.815673 0
M  V30 30 C -3.852262 0.536150 -5.780132 0
M  V30 31 C -3.023174 1.622857 -5.704520 0
M  V30 32 C -3.237643 2.387388 -4.548224 0
M  V30 33 N -4.133695 2.137996 -3.588842 0
M  V30 34 C -1.822317 -1.077886 1.357353 0
M  V30 35 N -1.432173 -2.719657 3.662797 0
M  V30 36 C -1.420600 -2.902734 5.068515 0
M  V30 37 O -2.360655 -3.172010 5.818619 0
M  V30 38 N -0.134952 -2.747622 5.666968 0
M  V30 39 H 2.198959 -2.604152 6.674946 0
M  V30 40 H 2.855505 -1.394020 5.467523 0
M  V30 41 H 3.003233 -3.167868 5.208992 0
M  V30 42 H 1.306010 -1.861018 0.829806 0
M  V30 43 H 3.730277 -3.758451 0.669851 0
M  V30 44 H 6.044695 -3.487166 -0.112012 0
M  V30 45 H 8.005114 -1.625287 -0.615125 0
M  V30 46 H 5.855969 1.863705 0.467367 0
M  V30 47 H 3.368137 0.500228 1.205609 0
M  V30 48 H -0.225297 -3.065416 2.021440 0
M  V30 49 H 0.882301 0.206299 2.855044 0
M  V30 50 H 0.083625 2.218879 1.543302 0
M  V30 51 H -3.720242 1.535188 -1.233061 0
M  V30 52 H -4.927383 -1.085855 -2.202737 0
M  V30 53 H -5.974893 -0.454867 -0.830081 0
M  V30 54 H -6.797870 0.179440 -3.166398 0
M  V30 55 H -6.280501 1.621900 -2.140775 0
M  V30 56 H -5.421668 -0.619330 -4.903851 0
M  V30 57 H -3.723013 -0.091201 -6.664387 0
M  V30 58 H -2.257258 1.937513 -6.408041 0
M  V30 59 H -2.610860 3.269695 -4.424257 0
M  V30 60 H -2.386627 -2.018836 1.291878 0
M  V30 61 H -2.360882 -2.951658 3.187351 0
M  V30 62 H -0.016967 -2.867209 6.718903 0
M  V30 END ATOM
M  V30 BEGIN BOND
M  V30 1 1 1 2
M  V30 2 2 2 3
M  V30 3 1 3 4
M  V30 4 2 4 5
M  V30 5 1 4 6
M  V30 6 1 6 7
M  V30 7 2 7 8
M  V30 8 1 8 9
M  V30 9 2 9 10
M  V30 10 1 10 11
M  V30 11 1 11 12
M  V30 12 2 12 13
M  V30 13 1 13 14
M  V30 14 2 14 15
M  V30 15 1 3 16
M  V30 16 1 16 17
M  V30 17 2 17 18
M  V30 18 1 18 19
M  V30 19 2 19 20
M  V30 20 1 20 21
M  V30 21 1 20 22
M  V30 22 1 22 23
M  V30 23 2 23 24
M  V30 24 1 23 25
M  V30 25 1 25 26
M  V30 26 1 26 27
M  V30 27 1 27 28
M  V30 28 2 28 29
M  V30 29 1 29 30
M  V30 30 2 30 31
M  V30 31 1 31 32
M  V30 32 2 32 33
M  V30 33 2 22 34
M  V30 34 1 16 35
M  V30 35 1 35 36
M  V30 36 2 36 37
M  V30 37 1 36 38
M  V30 38 1 38 2
M  V30 39 1 15 7
M  V30 40 1 34 17
M  V30 41 1 14 10
M  V30 42 1 33 28
M  V30 43 1 1 39
M  V30 44 1 1 40
M  V30 45 1 1 41
M  V30 46 1 6 42
M  V30 47 1 8 43
M  V30 48 1 9 44
M  V30 49 1 11 45
M  V30 50 1 13 46
M  V30 51 1 15 47
M  V30 52 1 16 48
M  V30 53 1 18 49
M  V30 54 1 19 50
M  V30 55 1 25 51
M  V30 56 1 26 52
M  V30 57 1 26 53
M  V30 58 1 27 54
M  V30 59 1 27 55
M  V30 60 1 29 56
M  V30 61 1 30 57
M  V30 62 1 31 58
M  V30 63 1 32 59
M  V30 64 1 34 60
M  V30 65 1 35 61
M  V30 66 1 38 62
M  V30 END BOND
M  V30 END CTAB
M  END
>  <Dataset>  (782) 
ChEMBL_Kinases

>  <Ligand_Instance>  (782) 
nan

>  <PDB_ID>  (782) 
nan

>  <Standardized_SMILES>  (782) 
CC1=C(C(=O)Nc2ccc3[nH]ncc3c2)C(c2ccc(F)c(C(=O)NCCc3ccccn3)c2)NC(=O)N1

>  <Name>  (782) 
nan

>  <Pocket>  (782) 
nan

>  <ATP_Site>  (782) 
nan

>  <Peripheral>  (782) 
nan

>  <Num_H_Atoms_ProtBoundConf>  (782) 
nan

>  <Num_Resolved_Atoms>  (782) 
nan

>  <Num_Not_Resolved_Atoms>  (782) 
nan

$$$$
CHEMBL3810073
     RDKit          3D

  0  0  0  0  0  0  0  0  0  0999 V3000
M  V30 BEGIN CTAB
M  V30 COUNTS 64 68 0 0 0
M  V30 BEGIN ATOM
M  V30 1 C 6.134282 -0.650796 5.438115 0
M  V30 2 O 5.902508 0.564274 4.780267 0
M  V30 3 C 4.702152 1.217043 4.728400 0
M  V30 4 C 3.583234 0.712424 5.342174 0
M  V30 5 C 2.395976 1.387674 5.273265 0
M  V30 6 C 2.303212 2.598966 4.578745 0
M  V30 7 C 0.968556 3.240386 4.572411 0
M  V30 8 N 0.132908 2.839500 3.470618 0
M  V30 9 C 0.465399 1.933332 2.446825 0
M  V30 10 O 1.638228 1.496586 2.621792 0
M  V30 11 C -0.359760 1.514353 1.327180 0
M  V30 12 C 0.203944 0.608684 0.447477 0
M  V30 13 C -0.454678 0.118960 -0.661905 0
M  V30 14 C 0.305480 -0.840357 -1.539156 0
M  V30 15 N 1.495709 -0.062896 -1.926718 0
M  V30 16 C 1.882640 0.394032 -3.216457 0
M  V30 17 O 2.897547 1.078884 -3.379003 0
M  V30 18 N 1.011905 -0.003632 -4.267788 0
M  V30 19 C -0.148486 -0.789980 -4.013559 0
M  V30 20 C -0.998104 -1.172163 -5.171606 0
M  V30 21 C -0.431900 -1.150984 -2.777699 0
M  V30 22 C -1.623375 -2.001597 -2.593385 0
M  V30 23 O -2.424025 -2.425980 -3.485540 0
M  V30 24 N -2.075937 -2.502339 -1.328604 0
M  V30 25 C -3.248982 -3.312208 -1.331342 0
M  V30 26 C -4.551612 -2.892181 -1.199575 0
M  V30 27 C -5.594047 -3.796815 -1.221119 0
M  V30 28 C -5.272509 -5.132534 -1.379734 0
M  V30 29 N -6.047564 -6.254400 -1.441814 0
M  V30 30 N -5.281097 -7.322605 -1.603414 0
M  V30 31 C -3.985108 -6.972437 -1.655839 0
M  V30 32 C -3.979276 -5.595086 -1.515191 0
M  V30 33 C -2.932410 -4.666780 -1.491529 0
M  V30 34 C -1.738522 0.568072 -0.886633 0
M  V30 35 C -2.354010 1.462662 -0.055712 0
M  V30 36 C -1.631405 1.898477 1.021426 0
M  V30 37 F -2.234248 2.779727 1.842364 0
M  V30 38 C 3.428786 3.120177 3.953239 0
M  V30 39 C 4.630356 2.414136 4.036470 0
M  V30 40 H 6.991621 -1.206047 4.964110 0
M  V30 41 H 5.268926 -1.342656 5.423373 0
M  V30 42 H 6.453947 -0.450130 6.485032 0
M  V30 43 H 3.613734 -0.230958 5.894858 0
M  V30 44 H 1.528388 0.961919 5.769687 0
M  V30 45 H 1.174305 4.347343 4.556627 0
M  V30 46 H 0.429069 3.038099 5.536352 0
M  V30 47 H -0.807330 3.283185 3.458184 0
M  V30 48 H 1.212167 0.260345 0.634546 0
M  V30 49 H 0.585690 -1.744111 -0.975057 0
M  V30 50 H 2.162686 0.195734 -1.146704 0
M  V30 51 H 1.220195 0.282214 -5.247444 0
M  V30 52 H -0.978354 -2.273473 -5.300955 0
M  V30 53 H -2.036347 -0.774526 -5.077253 0
M  V30 54 H -0.557434 -0.773342 -6.130587 0
M  V30 55 H -1.518800 -2.253832 -0.457417 0
M  V30 56 H -4.683592 -1.827266 -1.081518 0
M  V30 57 H -6.611164 -3.450857 -1.116308 0
M  V30 58 H -7.096861 -6.291835 -1.374127 0
M  V30 59 H -3.113359 -7.606171 -1.780147 0
M  V30 60 H -1.934477 -5.071438 -1.600923 0
M  V30 61 H -2.264200 0.208525 -1.746503 0
M  V30 62 H -3.355555 1.804557 -0.242143 0
M  V30 63 H 3.319021 4.060069 3.424959 0
M  V30 64 H 5.492421 2.866690 3.525626 0
M  V30 END ATOM
M  V30 BEGIN BOND
M  V30 1 1 1 2
M  V30 2 1 2 3
M  V30 3 2 3 4
M  V30 4 1 4 5
M  V30 5 2 5 6
M  V30 6 1 6 7
M  V30 7 1 7 8
M  V30 8 1 8 9
M  V30 9 2 9 10
M  V30 10 1 9 11
M  V30 11 2 11 12
M  V30 12 1 12 13
M  V30 13 1 13 14
M  V30 14 1 14 15
M  V30 15 1 15 16
M  V30 16 2 16 17
M  V30 17 1 16 18
M  V30 18 1 18 19
M  V30 19 1 19 20
M  V30 20 2 19 21
M  V30 21 1 21 22
M  V30 22 2 22 23
M  V30 23 1 22 24
M  V30 24 1 24 25
M  V30 25 2 25 26
M  V30 26 1 26 27
M  V30 27 2 27 28
M  V30 28 1 28 29
M  V30 29 1 29 30
M  V30 30 2 30 31
M  V30 31 1 31 32
M  V30 32 2 32 33
M  V30 33 2 13 34
M  V30 34 1 34 35
M  V30 35 2 35 36
M  V30 36 1 36 37
M  V30 37 1 6 38
M  V30 38 2 38 39
M  V30 39 1 39 3
M  V30 40 1 36 11
M  V30 41 1 21 14
M  V30 42 1 33 25
M  V30 43 1 32 28
M  V30 44 1 1 40
M  V30 45 1 1 41
M  V30 46 1 1 42
M  V30 47 1 4 43
M  V30 48 1 5 44
M  V30 49 1 7 45
M  V30 50 1 7 46
M  V30 51 1 8 47
M  V30 52 1 12 48
M  V30 53 1 14 49
M  V30 54 1 15 50
M  V30 55 1 18 51
M  V30 56 1 20 52
M  V30 57 1 20 53
M  V30 58 1 20 54
M  V30 59 1 24 55
M  V30 60 1 26 56
M  V30 61 1 27 57
M  V30 62 1 29 58
M  V30 63 1 31 59
M  V30 64 1 33 60
M  V30 65 1 34 61
M  V30 66 1 35 62
M  V30 67 1 38 63
M  V30 68 1 39 64
M  V30 END BOND
M  V30 END CTAB
M  END
>  <Dataset>  (783) 
ChEMBL_Kinases

>  <Ligand_Instance>  (783) 
nan

>  <PDB_ID>  (783) 
nan

>  <Standardized_SMILES>  (783) 
COc1ccc(CNC(=O)c2cc(C3NC(=O)NC(C)=C3C(=O)Nc3ccc4[nH]ncc4c3)ccc2F)cc1

>  <Name>  (783) 
nan

>  <Pocket>  (783) 
nan

>  <ATP_Site>  (783) 
nan

>  <Peripheral>  (783) 
nan

>  <Num_H_Atoms_ProtBoundConf>  (783) 
nan

>  <Num_Resolved_Atoms>  (783) 
nan

>  <Num_Not_Resolved_Atoms>  (783) 
nan

$$$$
CHEMBL3809965
     RDKit          3D

  0  0  0  0  0  0  0  0  0  0999 V3000
M  V30 BEGIN CTAB
M  V30 COUNTS 64 68 0 0 0
M  V30 BEGIN ATOM
M  V30 1 C 4.504784 -0.558428 4.741644 0
M  V30 2 O 4.445749 -1.431066 3.656473 0
M  V30 3 C 3.646523 -2.559478 3.554389 0
M  V30 4 C 2.846734 -2.788366 4.680262 0
M  V30 5 C 2.008205 -3.878198 4.701332 0
M  V30 6 C 1.957429 -4.736033 3.622496 0
M  V30 7 C 2.737610 -4.522201 2.511535 0
M  V30 8 C 3.586896 -3.434222 2.468286 0
M  V30 9 C 4.520662 -2.996585 1.399440 0
M  V30 10 N 4.044700 -1.850864 0.655765 0
M  V30 11 C 2.842792 -1.817685 -0.097502 0
M  V30 12 O 2.319687 -2.957961 0.026265 0
M  V30 13 C 2.314136 -0.696532 -0.862285 0
M  V30 14 C 1.171075 -1.047636 -1.520763 0
M  V30 15 C 0.468560 -0.178653 -2.322309 0
M  V30 16 C -0.754004 -0.268934 -3.134914 0
M  V30 17 N -0.459340 0.183232 -4.517446 0
M  V30 18 C -1.043125 1.171016 -5.351405 0
M  V30 19 O -0.569063 1.379076 -6.488698 0
M  V30 20 N -2.140293 1.791166 -4.698037 0
M  V30 21 C -2.596258 1.474185 -3.382172 0
M  V30 22 C -3.771155 2.230828 -2.881443 0
M  V30 23 C -1.915600 0.510008 -2.711678 0
M  V30 24 C -2.547173 0.295758 -1.387704 0
M  V30 25 O -3.558614 0.874591 -0.857036 0
M  V30 26 N -2.213016 -0.604253 -0.350338 0
M  V30 27 C -3.138907 -0.392470 0.699179 0
M  V30 28 C -4.239648 -1.204644 0.552830 0
M  V30 29 C -5.296364 -1.175518 1.470708 0
M  V30 30 C -5.222238 -0.304566 2.548577 0
M  V30 31 N -6.000985 0.002779 3.598466 0
M  V30 32 N -5.443020 0.935039 4.353313 0
M  V30 33 C -4.254370 1.271863 3.804807 0
M  V30 34 C -4.105890 0.499016 2.670588 0
M  V30 35 C -3.077203 0.469711 1.775889 0
M  V30 36 C 0.974577 1.129900 -2.452742 0
M  V30 37 C 2.129079 1.515005 -1.798840 0
M  V30 38 C 2.776879 0.589491 -1.014231 0
M  V30 39 F 3.899639 0.872625 -0.342698 0
M  V30 40 H 3.606584 0.088851 4.856942 0
M  V30 41 H 4.639514 -1.120590 5.699920 0
M  V30 42 H 5.455874 0.041528 4.658393 0
M  V30 43 H 2.864402 -2.123854 5.555694 0
M  V30 44 H 1.360704 -4.127076 5.526030 0
M  V30 45 H 1.313153 -5.606880 3.593065 0
M  V30 46 H 2.780344 -5.127520 1.616875 0
M  V30 47 H 5.516278 -2.774696 1.797073 0
M  V30 48 H 4.668136 -3.885229 0.727177 0
M  V30 49 H 4.626420 -0.958823 0.661696 0
M  V30 50 H 0.650468 -1.996572 -1.531447 0
M  V30 51 H -1.015549 -1.331108 -3.246602 0
M  V30 52 H 0.347494 -0.382722 -4.873483 0
M  V30 53 H -2.617850 2.536893 -5.276647 0
M  V30 54 H -3.569982 2.843957 -1.987866 0
M  V30 55 H -4.130012 2.894054 -3.715281 0
M  V30 56 H -4.649740 1.536340 -2.728482 0
M  V30 57 H -1.398640 -1.227777 -0.544188 0
M  V30 58 H -4.436916 -1.927860 -0.229148 0
M  V30 59 H -6.184668 -1.787182 1.409935 0
M  V30 60 H -6.917749 -0.483753 3.725031 0
M  V30 61 H -3.550317 2.020890 4.198547 0
M  V30 62 H -2.169292 1.058585 1.790352 0
M  V30 63 H 0.577888 1.977464 -3.035907 0
M  V30 64 H 2.594475 2.486702 -1.833971 0
M  V30 END ATOM
M  V30 BEGIN BOND
M  V30 1 1 1 2
M  V30 2 1 2 3
M  V30 3 2 3 4
M  V30 4 1 4 5
M  V30 5 2 5 6
M  V30 6 1 6 7
M  V30 7 2 7 8
M  V30 8 1 8 9
M  V30 9 1 9 10
M  V30 10 1 10 11
M  V30 11 2 11 12
M  V30 12 1 11 13
M  V30 13 2 13 14
M  V30 14 1 14 15
M  V30 15 1 15 16
M  V30 16 1 16 17
M  V30 17 1 17 18
M  V30 18 2 18 19
M  V30 19 1 18 20
M  V30 20 1 20 21
M  V30 21 1 21 22
M  V30 22 2 21 23
M  V30 23 1 23 24
M  V30 24 2 24 25
M  V30 25 1 24 26
M  V30 26 1 26 27
M  V30 27 2 27 28
M  V30 28 1 28 29
M  V30 29 2 29 30
M  V30 30 1 30 31
M  V30 31 1 31 32
M  V30 32 2 32 33
M  V30 33 1 33 34
M  V30 34 2 34 35
M  V30 35 2 15 36
M  V30 36 1 36 37
M  V30 37 2 37 38
M  V30 38 1 38 39
M  V30 39 1 8 3
M  V30 40 1 38 13
M  V30 41 1 23 16
M  V30 42 1 35 27
M  V30 43 1 34 30
M  V30 44 1 1 40
M  V30 45 1 1 41
M  V30 46 1 1 42
M  V30 47 1 4 43
M  V30 48 1 5 44
M  V30 49 1 6 45
M  V30 50 1 7 46
M  V30 51 1 9 47
M  V30 52 1 9 48
M  V30 53 1 10 49
M  V30 54 1 14 50
M  V30 55 1 16 51
M  V30 56 1 17 52
M  V30 57 1 20 53
M  V30 58 1 22 54
M  V30 59 1 22 55
M  V30 60 1 22 56
M  V30 61 1 26 57
M  V30 62 1 28 58
M  V30 63 1 29 59
M  V30 64 1 31 60
M  V30 65 1 33 61
M  V30 66 1 35 62
M  V30 67 1 36 63
M  V30 68 1 37 64
M  V30 END BOND
M  V30 END CTAB
M  END
>  <Dataset>  (784) 
ChEMBL_Kinases

>  <Ligand_Instance>  (784) 
nan

>  <PDB_ID>  (784) 
nan

>  <Standardized_SMILES>  (784) 
COc1ccccc1CNC(=O)c1cc(C2NC(=O)NC(C)=C2C(=O)Nc2ccc3[nH]ncc3c2)ccc1F

>  <Name>  (784) 
nan

>  <Pocket>  (784) 
nan

>  <ATP_Site>  (784) 
nan

>  <Peripheral>  (784) 
nan

>  <Num_H_Atoms_ProtBoundConf>  (784) 
nan

>  <Num_Resolved_Atoms>  (784) 
nan

>  <Num_Not_Resolved_Atoms>  (784) 
nan

$$$$
CHEMBL3809829
     RDKit          3D

  0  0  0  0  0  0  0  0  0  0999 V3000
M  V30 BEGIN CTAB
M  V30 COUNTS 61 64 0 0 0
M  V30 BEGIN ATOM
M  V30 1 C 1.728309 2.049277 5.957435 0
M  V30 2 O 0.828794 1.764233 4.882739 0
M  V30 3 C 1.137161 0.966999 3.808399 0
M  V30 4 C 2.377707 0.374820 3.707552 0
M  V30 5 C 2.754436 -0.436991 2.657861 0
M  V30 6 C 4.098703 -1.004175 2.667122 0
M  V30 7 C 5.158547 -0.293810 3.247622 0
M  V30 8 N 6.260121 -1.088589 3.092897 0
M  V30 9 N 5.888320 -2.199967 2.463104 0
M  V30 10 C 6.807505 -3.273359 2.128106 0
M  V30 11 C 4.579764 -2.208401 2.176227 0
M  V30 12 C 1.830467 -0.662900 1.658118 0
M  V30 13 C 0.597135 -0.060982 1.780570 0
M  V30 14 C 0.183263 0.753237 2.807556 0
M  V30 15 N -1.084775 1.354917 2.890481 0
M  V30 16 C -2.198375 1.260554 2.006011 0
M  V30 17 N -3.302255 1.971801 2.285238 0
M  V30 18 C -4.418775 1.996093 1.571310 0
M  V30 19 C -4.424557 1.220586 0.456903 0
M  V30 20 C -5.591469 1.228598 -0.315973 0
M  V30 21 C -5.582843 0.426573 -1.460539 0
M  V30 22 N -4.490012 -0.293041 -1.757382 0
M  V30 23 C -3.360391 -0.323499 -1.041258 0
M  V30 24 N -2.245727 -1.123937 -1.426077 0
M  V30 25 C -2.388335 -1.903702 -2.642106 0 CFG=1
M  V30 26 C -2.572953 -0.976012 -3.809412 0
M  V30 27 C -1.260297 -2.836388 -2.916496 0
M  V30 28 C 0.022480 -2.088213 -3.047717 0
M  V30 29 C -1.542835 -3.454480 -4.292918 0
M  V30 30 C -1.207743 -3.998042 -1.948330 0
M  V30 31 C -3.332529 0.462708 0.103886 0
M  V30 32 N -2.256581 0.511761 0.894467 0
M  V30 33 H 2.537316 2.692562 5.536128 0
M  V30 34 H 1.128593 2.569541 6.728446 0
M  V30 35 H 2.187316 1.135953 6.354231 0
M  V30 36 H 3.101356 0.555343 4.500086 0
M  V30 37 H 5.168517 0.671199 3.727229 0
M  V30 38 H 7.857254 -3.001122 2.366047 0
M  V30 39 H 6.507728 -4.196320 2.666182 0
M  V30 40 H 6.682897 -3.451845 1.019762 0
M  V30 41 H 3.956642 -2.929470 1.686034 0
M  V30 42 H 2.109519 -1.294087 0.829842 0
M  V30 43 H -0.064369 -0.288121 0.957686 0
M  V30 44 H -1.223877 1.967926 3.742405 0
M  V30 45 H -5.236026 2.608411 1.901002 0
M  V30 46 H -6.469834 1.810203 -0.070815 0
M  V30 47 H -6.484992 0.415201 -2.086111 0
M  V30 48 H -1.374543 -1.143769 -0.854295 0
M  V30 49 H -3.318427 -2.528780 -2.596898 0
M  V30 50 H -1.609426 -0.837878 -4.380763 0
M  V30 51 H -2.845739 0.056440 -3.480888 0
M  V30 52 H -3.380369 -1.282173 -4.505866 0
M  V30 53 H 0.020842 -1.126216 -2.477125 0
M  V30 54 H 0.280404 -1.803782 -4.104519 0
M  V30 55 H 0.895445 -2.676505 -2.662698 0
M  V30 56 H -1.046345 -2.867988 -5.088335 0
M  V30 57 H -1.200358 -4.509316 -4.333259 0
M  V30 58 H -2.629789 -3.442552 -4.524317 0
M  V30 59 H -0.207172 -4.126382 -1.486797 0
M  V30 60 H -1.898877 -3.778560 -1.097156 0
M  V30 61 H -1.463761 -4.974198 -2.415201 0
M  V30 END ATOM
M  V30 BEGIN BOND
M  V30 1 1 1 2
M  V30 2 1 2 3
M  V30 3 2 3 4
M  V30 4 1 4 5
M  V30 5 1 5 6
M  V30 6 1 6 7
M  V30 7 2 7 8
M  V30 8 1 8 9
M  V30 9 1 9 10
M  V30 10 1 9 11
M  V30 11 2 5 12
M  V30 12 1 12 13
M  V30 13 2 13 14
M  V30 14 1 14 15
M  V30 15 1 15 16
M  V30 16 2 16 17
M  V30 17 1 17 18
M  V30 18 2 18 19
M  V30 19 1 19 20
M  V30 20 2 20 21
M  V30 21 1 21 22
M  V30 22 2 22 23
M  V30 23 1 23 24
M  V30 24 1 24 25
M  V30 25 1 25 26
M  V30 26 1 25 27
M  V30 27 1 27 28
M  V30 28 1 27 29
M  V30 29 1 27 30
M  V30 30 1 23 31
M  V30 31 2 31 32
M  V30 32 1 14 3
M  V30 33 1 32 16
M  V30 34 2 11 6
M  V30 35 1 31 19
M  V30 36 1 1 33
M  V30 37 1 1 34
M  V30 38 1 1 35
M  V30 39 1 4 36
M  V30 40 1 7 37
M  V30 41 1 10 38
M  V30 42 1 10 39
M  V30 43 1 10 40
M  V30 44 1 11 41
M  V30 45 1 12 42
M  V30 46 1 13 43
M  V30 47 1 15 44
M  V30 48 1 18 45
M  V30 49 1 20 46
M  V30 50 1 21 47
M  V30 51 1 24 48
M  V30 52 1 25 49 CFG=1
M  V30 53 1 26 50
M  V30 54 1 26 51
M  V30 55 1 26 52
M  V30 56 1 28 53
M  V30 57 1 28 54
M  V30 58 1 28 55
M  V30 59 1 29 56
M  V30 60 1 29 57
M  V30 61 1 29 58
M  V30 62 1 30 59
M  V30 63 1 30 60
M  V30 64 1 30 61
M  V30 END BOND
M  V30 END CTAB
M  END
>  <Dataset>  (785) 
ChEMBL_Kinases

>  <Ligand_Instance>  (785) 
nan

>  <PDB_ID>  (785) 
nan

>  <Standardized_SMILES>  (785) 
COc1cc(-c2cnn(C)c2)ccc1Nc1ncc2ccnc(N[C@@H](C)C(C)(C)C)c2n1

>  <Name>  (785) 
nan

>  <Pocket>  (785) 
nan

>  <ATP_Site>  (785) 
nan

>  <Peripheral>  (785) 
nan

>  <Num_H_Atoms_ProtBoundConf>  (785) 
nan

>  <Num_Resolved_Atoms>  (785) 
nan

>  <Num_Not_Resolved_Atoms>  (785) 
nan

$$$$
CHEMBL3809100
     RDKit          3D

  0  0  0  0  0  0  0  0  0  0999 V3000
M  V30 BEGIN CTAB
M  V30 COUNTS 60 64 0 0 0
M  V30 BEGIN ATOM
M  V30 1 C 2.184379 -1.076921 5.096310 0
M  V30 2 C 2.192412 -1.808685 3.806360 0
M  V30 3 C 2.050439 -1.022823 2.748482 0
M  V30 4 C 1.891385 0.412053 2.579998 0
M  V30 5 O 1.761713 1.029529 1.497240 0
M  V30 6 N 1.812705 1.642769 3.338710 0
M  V30 7 C 1.587220 2.542562 2.219039 0
M  V30 8 C 2.549249 3.213847 1.455395 0
M  V30 9 C 2.011265 3.933723 0.422632 0
M  V30 10 C 0.663723 3.994356 0.164076 0
M  V30 11 N 0.006475 4.637730 -0.821770 0
M  V30 12 N -1.297380 4.410140 -0.727583 0
M  V30 13 C -1.514858 3.604002 0.340517 0
M  V30 14 C -0.251382 3.347916 0.904999 0
M  V30 15 C 0.210019 2.611359 1.948198 0
M  V30 16 C 2.068501 -1.649614 1.396776 0
M  V30 17 C 0.725480 -1.321077 0.759545 0
M  V30 18 C 0.630679 -0.497964 -0.359132 0
M  V30 19 C -0.554838 -0.227568 -0.987262 0
M  V30 20 C -1.639150 -0.874399 -0.369546 0
M  V30 21 F -2.837399 -0.574098 -1.017477 0
M  V30 22 C -1.502771 -1.696483 0.759042 0
M  V30 23 C -2.865357 -2.318067 0.946094 0
M  V30 24 O -3.947051 -2.437521 1.540335 0
M  V30 25 N -3.044655 -3.347698 -0.121514 0
M  V30 26 C -3.233562 -4.376177 -1.182721 0
M  V30 27 C -3.023674 -3.674091 -2.507399 0
M  V30 28 C -1.598087 -3.706888 -2.645360 0
M  V30 29 C -0.815974 -3.164482 -3.676080 0
M  V30 30 C -1.548667 -2.530948 -4.663826 0
M  V30 31 C -2.898781 -2.474238 -4.583097 0
M  V30 32 F -3.736829 -1.890176 -5.472443 0
M  V30 33 C -3.641045 -3.026884 -3.537610 0
M  V30 34 C -0.302151 -1.938326 1.360954 0
M  V30 35 N 2.165886 -3.071730 1.500435 0
M  V30 36 C 2.316699 -3.945716 2.588462 0
M  V30 37 O 2.428903 -5.202898 2.495803 0
M  V30 38 N 2.324514 -3.209534 3.795263 0
M  V30 39 H 1.230443 -0.519591 5.110932 0
M  V30 40 H 3.105811 -0.500285 5.250936 0
M  V30 41 H 2.054850 -1.869183 5.890501 0
M  V30 42 H 1.952106 1.426186 4.329284 0
M  V30 43 H 3.558169 3.056425 1.805282 0
M  V30 44 H 2.790977 4.451254 -0.162392 0
M  V30 45 H 0.453872 5.236695 -1.564096 0
M  V30 46 H -2.450874 3.191997 0.755259 0
M  V30 47 H -0.534879 2.104693 2.519677 0
M  V30 48 H 2.892280 -1.219520 0.828755 0
M  V30 49 H 1.487826 -0.044836 -0.813118 0
M  V30 50 H -0.652657 0.401970 -1.845030 0
M  V30 51 H -2.055159 -3.321809 -0.579153 0
M  V30 52 H -2.633950 -5.225212 -1.031564 0
M  V30 53 H -4.326275 -4.628700 -1.081721 0
M  V30 54 H -0.849290 -4.169351 -1.973369 0
M  V30 55 H 0.242666 -3.178355 -3.811605 0
M  V30 56 H -1.072222 -2.047976 -5.529610 0
M  V30 57 H -4.679693 -3.090705 -3.255508 0
M  V30 58 H -0.417665 -2.584765 2.209455 0
M  V30 59 H 2.101646 -3.422383 0.511117 0
M  V30 60 H 2.430662 -3.706493 4.708991 0
M  V30 END ATOM
M  V30 BEGIN BOND
M  V30 1 1 1 2
M  V30 2 2 2 3
M  V30 3 1 3 4
M  V30 4 2 4 5
M  V30 5 1 4 6
M  V30 6 1 6 7
M  V30 7 2 7 8
M  V30 8 1 8 9
M  V30 9 2 9 10
M  V30 10 1 10 11
M  V30 11 1 11 12
M  V30 12 2 12 13
M  V30 13 1 13 14
M  V30 14 2 14 15
M  V30 15 1 3 16
M  V30 16 1 16 17
M  V30 17 2 17 18
M  V30 18 1 18 19
M  V30 19 2 19 20
M  V30 20 1 20 21
M  V30 21 1 20 22
M  V30 22 1 22 23
M  V30 23 2 23 24
M  V30 24 1 23 25
M  V30 25 1 25 26
M  V30 26 1 26 27
M  V30 27 2 27 28
M  V30 28 1 28 29
M  V30 29 2 29 30
M  V30 30 1 30 31
M  V30 31 1 31 32
M  V30 32 2 31 33
M  V30 33 2 22 34
M  V30 34 1 16 35
M  V30 35 1 35 36
M  V30 36 2 36 37
M  V30 37 1 36 38
M  V30 38 1 38 2
M  V30 39 1 15 7
M  V30 40 1 34 17
M  V30 41 1 14 10
M  V30 42 1 33 27
M  V30 43 1 1 39
M  V30 44 1 1 40
M  V30 45 1 1 41
M  V30 46 1 6 42
M  V30 47 1 8 43
M  V30 48 1 9 44
M  V30 49 1 11 45
M  V30 50 1 13 46
M  V30 51 1 15 47
M  V30 52 1 16 48
M  V30 53 1 18 49
M  V30 54 1 19 50
M  V30 55 1 25 51
M  V30 56 1 26 52
M  V30 57 1 26 53
M  V30 58 1 28 54
M  V30 59 1 29 55
M  V30 60 1 30 56
M  V30 61 1 33 57
M  V30 62 1 34 58
M  V30 63 1 35 59
M  V30 64 1 38 60
M  V30 END BOND
M  V30 END CTAB
M  END
>  <Dataset>  (786) 
ChEMBL_Kinases

>  <Ligand_Instance>  (786) 
nan

>  <PDB_ID>  (786) 
nan

>  <Standardized_SMILES>  (786) 
CC1=C(C(=O)Nc2ccc3[nH]ncc3c2)C(c2ccc(F)c(C(=O)NCc3cccc(F)c3)c2)NC(=O)N1

>  <Name>  (786) 
nan

>  <Pocket>  (786) 
nan

>  <ATP_Site>  (786) 
nan

>  <Peripheral>  (786) 
nan

>  <Num_H_Atoms_ProtBoundConf>  (786) 
nan

>  <Num_Resolved_Atoms>  (786) 
nan

>  <Num_Not_Resolved_Atoms>  (786) 
nan

$$$$
CHEMBL109981
     RDKit          3D

  0  0  0  0  0  0  0  0  0  0999 V3000
M  V30 BEGIN CTAB
M  V30 COUNTS 63 66 0 0 0
M  V30 BEGIN ATOM
M  V30 1 C 1.555318 2.351238 3.604427 0
M  V30 2 O 1.768557 2.091104 2.234316 0
M  V30 3 C 2.617377 1.081596 1.865692 0
M  V30 4 C 3.270919 0.316166 2.794587 0
M  V30 5 C 4.116265 -0.683147 2.374002 0
M  V30 6 C 4.287231 -0.892259 1.027348 0
M  V30 7 C 3.606905 -0.095063 0.143424 0
M  V30 8 C 2.728043 0.942178 0.506219 0
M  V30 9 C 2.087197 1.599572 -0.618863 0
M  V30 10 C 0.813004 1.851973 -0.976371 0
M  V30 11 C -0.495688 1.585674 -0.406522 0
M  V30 12 C -1.169974 1.795874 0.767895 0
M  V30 13 N -2.392710 1.256639 0.792820 0
M  V30 14 C -3.376845 1.241098 1.828846 0
M  V30 15 C -3.273979 0.199707 2.872126 0
M  V30 16 C -3.269877 -1.223355 2.464056 0
M  V30 17 N -2.155291 -1.647376 1.675336 0
M  V30 18 C -1.926189 -2.944608 1.121989 0
M  V30 19 O -2.786850 -3.839080 1.335946 0
M  V30 20 O -0.804018 -3.233009 0.373182 0
M  V30 21 C -0.494553 -4.463995 -0.203361 0
M  V30 22 C -0.384679 -5.532394 0.870874 0
M  V30 23 C -1.457254 -4.902820 -1.278862 0
M  V30 24 C 0.874874 -4.336755 -0.847524 0
M  V30 25 C -2.584776 0.643876 -0.416258 0
M  V30 26 N -3.633737 -0.043761 -0.906506 0
M  V30 27 C -3.665198 -0.594274 -2.129909 0
M  V30 28 C -2.531379 -0.416629 -2.889838 0
M  V30 29 C -1.447835 0.283131 -2.407576 0
M  V30 30 C -1.432297 0.843930 -1.145590 0
M  V30 31 C 0.858897 2.597556 -2.258610 0
M  V30 32 O -0.091309 3.044137 -2.966274 0
M  V30 33 N 2.203869 2.796458 -2.681158 0
M  V30 34 C 2.974324 2.173133 -1.657299 0
M  V30 35 O 4.233496 2.170191 -1.728736 0
M  V30 36 H 2.536251 2.550190 4.085419 0
M  V30 37 H 1.140631 1.440365 4.128114 0
M  V30 38 H 0.912570 3.243024 3.763172 0
M  V30 39 H 3.065501 0.563820 3.841251 0
M  V30 40 H 4.581801 -1.227296 3.182111 0
M  V30 41 H 4.956634 -1.683391 0.726490 0
M  V30 42 H 3.812802 -0.343319 -0.909640 0
M  V30 43 H -0.762078 2.352040 1.589772 0
M  V30 44 H -3.343324 2.241456 2.368849 0
M  V30 45 H -4.415164 1.278653 1.363761 0
M  V30 46 H -4.067670 0.368875 3.638383 0
M  V30 47 H -2.305242 0.390986 3.431760 0
M  V30 48 H -4.208696 -1.557987 1.975743 0
M  V30 49 H -3.232892 -1.841517 3.410062 0
M  V30 50 H -1.383268 -0.983783 1.471436 0
M  V30 51 H 0.514250 -6.147682 0.708709 0
M  V30 52 H -1.263347 -6.210261 0.814193 0
M  V30 53 H -0.266504 -5.056994 1.881865 0
M  V30 54 H -2.516837 -4.763884 -1.018256 0
M  V30 55 H -1.167082 -4.422893 -2.255617 0
M  V30 56 H -1.266273 -5.989823 -1.445159 0
M  V30 57 H 0.957090 -5.083505 -1.645200 0
M  V30 58 H 0.974727 -3.320356 -1.290175 0
M  V30 59 H 1.653446 -4.418620 -0.054466 0
M  V30 60 H -4.574422 -1.116306 -2.386529 0
M  V30 61 H -2.559230 -0.867011 -3.884950 0
M  V30 62 H -0.598376 0.372273 -3.066816 0
M  V30 63 H 2.547402 3.283671 -3.537819 0
M  V30 END ATOM
M  V30 BEGIN BOND
M  V30 1 1 1 2
M  V30 2 1 2 3
M  V30 3 2 3 4
M  V30 4 1 4 5
M  V30 5 2 5 6
M  V30 6 1 6 7
M  V30 7 2 7 8
M  V30 8 1 8 9
M  V30 9 2 9 10
M  V30 10 1 10 11
M  V30 11 2 11 12
M  V30 12 1 12 13
M  V30 13 1 13 14
M  V30 14 1 14 15
M  V30 15 1 15 16
M  V30 16 1 16 17
M  V30 17 1 17 18
M  V30 18 2 18 19
M  V30 19 1 18 20
M  V30 20 1 20 21
M  V30 21 1 21 22
M  V30 22 1 21 23
M  V30 23 1 21 24
M  V30 24 1 13 25
M  V30 25 2 25 26
M  V30 26 1 26 27
M  V30 27 2 27 28
M  V30 28 1 28 29
M  V30 29 2 29 30
M  V30 30 1 10 31
M  V30 31 2 31 32
M  V30 32 1 31 33
M  V30 33 1 33 34
M  V30 34 2 34 35
M  V30 35 1 8 3
M  V30 36 1 34 9
M  V30 37 1 30 11
M  V30 38 1 30 25
M  V30 39 1 1 36
M  V30 40 1 1 37
M  V30 41 1 1 38
M  V30 42 1 4 39
M  V30 43 1 5 40
M  V30 44 1 6 41
M  V30 45 1 7 42
M  V30 46 1 12 43
M  V30 47 1 14 44
M  V30 48 1 14 45
M  V30 49 1 15 46
M  V30 50 1 15 47
M  V30 51 1 16 48
M  V30 52 1 16 49
M  V30 53 1 17 50
M  V30 54 1 22 51
M  V30 55 1 22 52
M  V30 56 1 22 53
M  V30 57 1 23 54
M  V30 58 1 23 55
M  V30 59 1 23 56
M  V30 60 1 24 57
M  V30 61 1 24 58
M  V30 62 1 24 59
M  V30 63 1 27 60
M  V30 64 1 28 61
M  V30 65 1 29 62
M  V30 66 1 33 63
M  V30 END BOND
M  V30 END CTAB
M  END
>  <Dataset>  (787) 
ChEMBL_Kinases

>  <Ligand_Instance>  (787) 
nan

>  <PDB_ID>  (787) 
nan

>  <Standardized_SMILES>  (787) 
COc1ccccc1C1=C(c2cn(CCCNC(=O)OC(C)(C)C)c3ncccc23)C(=O)NC1=O

>  <Name>  (787) 
nan

>  <Pocket>  (787) 
nan

>  <ATP_Site>  (787) 
nan

>  <Peripheral>  (787) 
nan

>  <Num_H_Atoms_ProtBoundConf>  (787) 
nan

>  <Num_Resolved_Atoms>  (787) 
nan

>  <Num_Not_Resolved_Atoms>  (787) 
nan

$$$$
CHEMBL3808844
     RDKit          3D

  0  0  0  0  0  0  0  0  0  0999 V3000
M  V30 BEGIN CTAB
M  V30 COUNTS 67 71 0 0 0
M  V30 BEGIN ATOM
M  V30 1 C 0.193907 4.702560 1.355270 0
M  V30 2 C 1.362173 3.763554 1.521068 0
M  V30 3 O 1.222357 2.600990 0.744130 0
M  V30 4 C 1.107349 2.564617 -0.632465 0
M  V30 5 C 1.110120 3.674355 -1.484993 0
M  V30 6 N 0.976754 3.248836 -2.773634 0
M  V30 7 C 0.938537 4.102583 -3.920527 0
M  V30 8 C -0.189037 3.999541 -4.710730 0
M  V30 9 C -0.247292 4.814181 -5.823235 0
M  V30 10 C 0.738534 5.709342 -6.184554 0
M  V30 11 F 0.598964 6.472286 -7.296094 0
M  V30 12 C 1.842738 5.766870 -5.353947 0
M  V30 13 C 1.973235 4.980158 -4.218717 0
M  V30 14 C 3.162597 5.053733 -3.339505 0
M  V30 15 N 0.891557 1.910251 -2.745307 0
M  V30 16 C 0.967596 1.481794 -1.474942 0
M  V30 17 C 0.920875 0.117964 -0.957584 0
M  V30 18 O 1.005999 -0.081718 0.267338 0
M  V30 19 N 0.781274 -1.049078 -1.759383 0
M  V30 20 C 0.772641 -2.205514 -0.934050 0
M  V30 21 C -0.453376 -2.637783 -0.473468 0
M  V30 22 C -0.593990 -3.744140 0.333780 0
M  V30 23 C 0.513382 -4.476105 0.719359 0
M  V30 24 O 0.718785 -5.599279 1.497101 0
M  V30 25 C -0.284658 -6.257960 2.130069 0
M  V30 26 C -0.453394 -7.572898 1.682208 0
M  V30 27 C -1.449124 -8.384215 2.237603 0
M  V30 28 N -2.275949 -7.922238 3.221744 0
M  V30 29 C -2.124481 -6.654697 3.665096 0
M  V30 30 C -2.907832 -6.110170 4.660835 0
M  V30 31 C -2.758059 -4.824686 5.128408 0
M  V30 32 O -3.529514 -4.257161 6.123487 0
M  V30 33 C -4.554764 -5.020517 6.727173 0
M  V30 34 C -1.749173 -4.049372 4.545371 0
M  V30 35 O -1.574906 -2.756827 4.993832 0
M  V30 36 C -0.549260 -1.967347 4.401678 0
M  V30 37 C -0.948447 -4.552116 3.552580 0
M  V30 38 C -1.146443 -5.847707 3.124411 0
M  V30 39 C 1.767829 -4.048722 0.258649 0
M  V30 40 F 2.994376 -4.597666 0.498420 0
M  V30 41 C 1.892137 -2.920491 -0.562413 0
M  V30 42 H 0.584486 5.729167 1.200633 0
M  V30 43 H -0.417555 4.350438 0.497176 0
M  V30 44 H -0.438275 4.695733 2.254331 0
M  V30 45 H 2.314217 4.287610 1.296243 0
M  V30 46 H 1.398059 3.441408 2.584036 0
M  V30 47 H 1.199504 4.725241 -1.234024 0
M  V30 48 H -0.991713 3.314450 -4.474010 0
M  V30 49 H -1.150486 4.724117 -6.446640 0
M  V30 50 H 2.647035 6.453980 -5.592089 0
M  V30 51 H 3.380782 4.030198 -2.994575 0
M  V30 52 H 2.996164 5.754980 -2.489555 0
M  V30 53 H 3.981254 5.516719 -3.930917 0
M  V30 54 H 0.705971 -0.924684 -2.797913 0
M  V30 55 H -1.427382 -2.173359 -0.684322 0
M  V30 56 H -1.475855 -4.180807 0.750705 0
M  V30 57 H 0.107380 -8.117508 0.908779 0
M  V30 58 H -1.634638 -9.406095 1.940285 0
M  V30 59 H -3.676101 -6.726497 5.092735 0
M  V30 60 H -4.252082 -6.069484 6.935978 0
M  V30 61 H -4.835735 -4.559124 7.699096 0
M  V30 62 H -5.466529 -5.076346 6.099265 0
M  V30 63 H -0.694886 -1.945235 3.283400 0
M  V30 64 H 0.454294 -2.400146 4.547275 0
M  V30 65 H -0.583005 -0.924191 4.723779 0
M  V30 66 H -0.189894 -3.919784 3.149142 0
M  V30 67 H 2.811739 -2.526207 -0.958103 0
M  V30 END ATOM
M  V30 BEGIN BOND
M  V30 1 1 1 2
M  V30 2 1 2 3
M  V30 3 1 3 4
M  V30 4 2 4 5
M  V30 5 1 5 6
M  V30 6 1 6 7
M  V30 7 2 7 8
M  V30 8 1 8 9
M  V30 9 2 9 10
M  V30 10 1 10 11
M  V30 11 1 10 12
M  V30 12 2 12 13
M  V30 13 1 13 14
M  V30 14 1 6 15
M  V30 15 2 15 16
M  V30 16 1 16 17
M  V30 17 2 17 18
M  V30 18 1 17 19
M  V30 19 1 19 20
M  V30 20 2 20 21
M  V30 21 1 21 22
M  V30 22 2 22 23
M  V30 23 1 23 24
M  V30 24 1 24 25
M  V30 25 2 25 26
M  V30 26 1 26 27
M  V30 27 2 27 28
M  V30 28 1 28 29
M  V30 29 2 29 30
M  V30 30 1 30 31
M  V30 31 1 31 32
M  V30 32 1 32 33
M  V30 33 2 31 34
M  V30 34 1 34 35
M  V30 35 1 35 36
M  V30 36 1 34 37
M  V30 37 2 37 38
M  V30 38 1 23 39
M  V30 39 1 39 40
M  V30 40 2 39 41
M  V30 41 1 16 4
M  V30 42 1 41 20
M  V30 43 1 13 7
M  V30 44 1 38 25
M  V30 45 1 38 29
M  V30 46 1 1 42
M  V30 47 1 1 43
M  V30 48 1 1 44
M  V30 49 1 2 45
M  V30 50 1 2 46
M  V30 51 1 5 47
M  V30 52 1 8 48
M  V30 53 1 9 49
M  V30 54 1 12 50
M  V30 55 1 14 51
M  V30 56 1 14 52
M  V30 57 1 14 53
M  V30 58 1 19 54
M  V30 59 1 21 55
M  V30 60 1 22 56
M  V30 61 1 26 57
M  V30 62 1 27 58
M  V30 63 1 30 59
M  V30 64 1 33 60
M  V30 65 1 33 61
M  V30 66 1 33 62
M  V30 67 1 36 63
M  V30 68 1 36 64
M  V30 69 1 36 65
M  V30 70 1 37 66
M  V30 71 1 41 67
M  V30 END BOND
M  V30 END CTAB
M  END
>  <Dataset>  (788) 
ChEMBL_Kinases

>  <Ligand_Instance>  (788) 
nan

>  <PDB_ID>  (788) 
nan

>  <Standardized_SMILES>  (788) 
CCOc1cn(-c2ccc(F)cc2C)nc1C(=O)Nc1ccc(Oc2ccnc3cc(OC)c(OC)cc23)c(F)c1

>  <Name>  (788) 
nan

>  <Pocket>  (788) 
nan

>  <ATP_Site>  (788) 
nan

>  <Peripheral>  (788) 
nan

>  <Num_H_Atoms_ProtBoundConf>  (788) 
nan

>  <Num_Resolved_Atoms>  (788) 
nan

>  <Num_Not_Resolved_Atoms>  (788) 
nan

$$$$
CHEMBL3814423
     RDKit          3D

  0  0  0  0  0  0  0  0  0  0999 V3000
M  V30 BEGIN CTAB
M  V30 COUNTS 35 40 0 0 0
M  V30 BEGIN ATOM
M  V30 1 C 2.412471 -4.757601 2.564825 0
M  V30 2 C 1.492877 -4.365839 3.522548 0
M  V30 3 C 0.730488 -3.247384 3.277423 0
M  V30 4 C 0.817076 -2.487134 2.143569 0
M  V30 5 C 1.736957 -2.888344 1.197755 0
M  V30 6 C 2.541161 -4.015199 1.387008 0
M  V30 7 N 1.755282 -2.091507 0.125162 0
M  V30 8 C 0.815118 -1.150400 0.396530 0
M  V30 9 C 0.400767 -0.075858 -0.347734 0
M  V30 10 N 0.818209 0.350748 -1.573847 0
M  V30 11 C 0.067269 1.443543 -1.803702 0
M  V30 12 C 0.133645 2.240167 -2.952824 0
M  V30 13 C -0.705553 3.333756 -3.042562 0
M  V30 14 C -1.600084 3.648630 -2.024288 0
M  V30 15 C -1.612875 2.821374 -0.920752 0
M  V30 16 C -0.806095 1.722951 -0.772839 0
M  V30 17 C -0.584365 0.739597 0.160038 0
M  V30 18 C -1.169379 0.520203 1.382869 0
M  V30 19 N -2.119849 1.150025 2.078272 0
M  V30 20 N -2.293911 0.496011 3.212957 0
M  V30 21 C -1.479748 -0.550378 3.280962 0
M  V30 22 C -0.749822 -0.560850 2.127333 0
M  V30 23 C 0.223573 -1.362034 1.619643 0
M  V30 24 H 3.044156 -5.640296 2.710300 0
M  V30 25 H 1.379626 -4.926710 4.438003 0
M  V30 26 H 0.038875 -2.976390 4.028672 0
M  V30 27 H 3.266535 -4.342496 0.655486 0
M  V30 28 H 2.345257 -2.156176 -0.733682 0
M  V30 29 H 1.543397 -0.082878 -2.165835 0
M  V30 30 H 0.812033 2.033890 -3.767644 0
M  V30 31 H -0.658840 3.960420 -3.937722 0
M  V30 32 H -2.255929 4.499213 -2.089105 0
M  V30 33 H -2.293873 3.064053 -0.149435 0
M  V30 34 H -2.679037 1.989316 1.873660 0
M  V30 35 H -1.471249 -1.207877 4.128248 0
M  V30 END ATOM
M  V30 BEGIN BOND
M  V30 1 2 1 2
M  V30 2 1 2 3
M  V30 3 2 3 4
M  V30 4 1 4 5
M  V30 5 2 5 6
M  V30 6 1 5 7
M  V30 7 1 7 8
M  V30 8 2 8 9
M  V30 9 1 9 10
M  V30 10 1 10 11
M  V30 11 2 11 12
M  V30 12 1 12 13
M  V30 13 2 13 14
M  V30 14 1 14 15
M  V30 15 2 15 16
M  V30 16 1 16 17
M  V30 17 2 17 18
M  V30 18 1 18 19
M  V30 19 1 19 20
M  V30 20 2 20 21
M  V30 21 1 21 22
M  V30 22 2 22 23
M  V30 23 1 6 1
M  V30 24 1 23 8
M  V30 25 1 23 4
M  V30 26 1 17 9
M  V30 27 1 22 18
M  V30 28 1 16 11
M  V30 29 1 1 24
M  V30 30 1 2 25
M  V30 31 1 3 26
M  V30 32 1 6 27
M  V30 33 1 7 28
M  V30 34 1 10 29
M  V30 35 1 12 30
M  V30 36 1 13 31
M  V30 37 1 14 32
M  V30 38 1 15 33
M  V30 39 1 19 34
M  V30 40 1 21 35
M  V30 END BOND
M  V30 END CTAB
M  END
>  <Dataset>  (789) 
ChEMBL_Kinases

>  <Ligand_Instance>  (789) 
nan

>  <PDB_ID>  (789) 
nan

>  <Standardized_SMILES>  (789) 
c1ccc2c(c1)[nH]c1c3[nH]c4ccccc4c3c3[nH]ncc3c21

>  <Name>  (789) 
nan

>  <Pocket>  (789) 
nan

>  <ATP_Site>  (789) 
nan

>  <Peripheral>  (789) 
nan

>  <Num_H_Atoms_ProtBoundConf>  (789) 
nan

>  <Num_Resolved_Atoms>  (789) 
nan

>  <Num_Not_Resolved_Atoms>  (789) 
nan

$$$$
CHEMBL4876387
     RDKit          3D

  0  0  0  0  0  0  0  0  0  0999 V3000
M  V30 BEGIN CTAB
M  V30 COUNTS 48 51 0 0 0
M  V30 BEGIN ATOM
M  V30 1 C 3.755020 -3.349597 -4.452922 0
M  V30 2 O 3.767307 -4.280314 -3.497333 0
M  V30 3 C 3.365401 -4.156668 -2.256913 0
M  V30 4 C 3.963243 -3.062035 -1.423859 0
M  V30 5 N 3.686683 -1.777449 -1.892002 0
M  V30 6 C 3.407566 -0.480112 -2.365203 0
M  V30 7 O 3.865908 -0.317360 -3.496471 0
M  V30 8 C 2.708162 0.685219 -1.815372 0
M  V30 9 C 2.083233 0.951018 -0.680918 0
M  V30 10 C 1.505136 2.168367 -0.439348 0
M  V30 11 N 0.819002 2.512035 0.761222 0
M  V30 12 N 1.157426 3.462503 1.616562 0
M  V30 13 C 0.297788 3.533259 2.653073 0
M  V30 14 C -0.631773 2.528076 2.377115 0
M  V30 15 C -1.738545 2.155448 3.112075 0
M  V30 16 C -2.574064 1.128217 2.703527 0
M  V30 17 N -3.728029 0.693435 3.404018 0
M  V30 18 C -3.975707 -0.580981 3.929877 0
M  V30 19 C -3.089012 -1.629046 3.837690 0
M  V30 20 C -3.387175 -2.871889 4.375548 0
M  V30 21 C -4.593907 -3.113731 5.031127 0
M  V30 22 C -5.487909 -2.041645 5.119176 0
M  V30 23 C -5.164490 -0.819682 4.575870 0
M  V30 24 Cl -6.408386 0.414241 4.780066 0
M  V30 25 C -2.220800 0.500885 1.505066 0
M  V30 26 F -2.937615 -0.519970 0.970475 0
M  V30 27 C -1.114033 0.871350 0.767367 0
M  V30 28 C -0.299103 1.897384 1.196931 0
M  V30 29 C 1.635018 3.099426 -1.495170 0
M  V30 30 S 2.621820 2.107879 -2.811171 0
M  V30 31 H 4.070085 -3.789599 -5.452911 0
M  V30 32 H 4.607471 -2.611340 -4.199219 0
M  V30 33 H 2.835363 -2.766828 -4.547425 0
M  V30 34 H 2.217635 -4.092088 -2.152234 0
M  V30 35 H 3.535017 -5.159006 -1.721070 0
M  V30 36 H 5.096879 -3.238764 -1.336157 0
M  V30 37 H 3.594542 -3.235151 -0.392808 0
M  V30 38 H 3.160517 -1.501920 -0.977228 0
M  V30 39 H 2.066207 0.137919 0.032026 0
M  V30 40 H 0.366833 4.234457 3.482482 0
M  V30 41 H -2.025215 2.639926 4.053030 0
M  V30 42 H -4.410302 1.468547 3.489966 0
M  V30 43 H -2.143490 -1.507110 3.346749 0
M  V30 44 H -2.663297 -3.674929 4.283677 0
M  V30 45 H -4.795986 -4.094277 5.439599 0
M  V30 46 H -6.414203 -2.259367 5.632617 0
M  V30 47 H -0.828843 0.397364 -0.158138 0
M  V30 48 H 1.186646 4.176692 -1.418332 0
M  V30 END ATOM
M  V30 BEGIN BOND
M  V30 1 1 1 2
M  V30 2 1 2 3
M  V30 3 1 3 4
M  V30 4 1 4 5
M  V30 5 1 5 6
M  V30 6 2 6 7
M  V30 7 1 6 8
M  V30 8 2 8 9
M  V30 9 1 9 10
M  V30 10 1 10 11
M  V30 11 1 11 12
M  V30 12 2 12 13
M  V30 13 1 13 14
M  V30 14 2 14 15
M  V30 15 1 15 16
M  V30 16 1 16 17
M  V30 17 1 17 18
M  V30 18 2 18 19
M  V30 19 1 19 20
M  V30 20 2 20 21
M  V30 21 1 21 22
M  V30 22 2 22 23
M  V30 23 1 23 24
M  V30 24 2 16 25
M  V30 25 1 25 26
M  V30 26 1 25 27
M  V30 27 2 27 28
M  V30 28 2 10 29
M  V30 29 1 29 30
M  V30 30 1 30 8
M  V30 31 1 28 11
M  V30 32 1 28 14
M  V30 33 1 23 18
M  V30 34 1 1 31
M  V30 35 1 1 32
M  V30 36 1 1 33
M  V30 37 1 3 34
M  V30 38 1 3 35
M  V30 39 1 4 36
M  V30 40 1 4 37
M  V30 41 1 5 38
M  V30 42 1 9 39
M  V30 43 1 13 40
M  V30 44 1 15 41
M  V30 45 1 17 42
M  V30 46 1 19 43
M  V30 47 1 20 44
M  V30 48 1 21 45
M  V30 49 1 22 46
M  V30 50 1 27 47
M  V30 51 1 29 48
M  V30 END BOND
M  V30 END CTAB
M  END
>  <Dataset>  (790) 
ChEMBL_Kinases

>  <Ligand_Instance>  (790) 
nan

>  <PDB_ID>  (790) 
nan

>  <Standardized_SMILES>  (790) 
COCCNC(=O)c1cc(-n2ncc3cc(Nc4ccccc4Cl)c(F)cc32)cs1

>  <Name>  (790) 
nan

>  <Pocket>  (790) 
nan

>  <ATP_Site>  (790) 
nan

>  <Peripheral>  (790) 
nan

>  <Num_H_Atoms_ProtBoundConf>  (790) 
nan

>  <Num_Resolved_Atoms>  (790) 
nan

>  <Num_Not_Resolved_Atoms>  (790) 
nan

$$$$
CHEMBL3923604
     RDKit          3D

  0  0  0  0  0  0  0  0  0  0999 V3000
M  V30 BEGIN CTAB
M  V30 COUNTS 37 40 0 0 0
M  V30 BEGIN ATOM
M  V30 1 F -1.969920 -3.729498 0.954796 0
M  V30 2 C -0.724164 -3.377564 1.392638 0
M  V30 3 C -0.148432 -3.863774 2.540032 0
M  V30 4 C 1.116110 -3.420287 2.858830 0
M  V30 5 C 1.745424 -2.518798 2.026184 0
M  V30 6 C 1.165514 -2.015691 0.851269 0
M  V30 7 C 2.039468 -1.095668 0.142552 0
M  V30 8 C 3.348182 -1.454805 -0.205297 0
M  V30 9 N 3.918272 -0.437388 -0.876786 0
M  V30 10 C 3.058928 0.589913 -0.998433 0
M  V30 11 N 3.051530 1.820329 -1.542170 0
M  V30 12 C 1.939899 2.570659 -1.443857 0
M  V30 13 N 0.798529 2.174786 -0.824217 0
M  V30 14 C 0.771376 0.930525 -0.260512 0
M  V30 15 N -0.477067 0.698811 0.372154 0
M  V30 16 C -0.777038 0.586662 1.800956 0
M  V30 17 C -2.182340 0.139305 2.052133 0
M  V30 18 O -2.692040 -0.624598 1.029404 0
M  V30 19 C -2.855205 0.188582 -0.087005 0
M  V30 20 C -1.522873 0.587747 -0.664093 0
M  V30 21 C 1.913296 0.173848 -0.369426 0
M  V30 22 C -0.089332 -2.478979 0.568198 0
M  V30 23 H -0.737467 -4.562763 3.108734 0
M  V30 24 H 1.574676 -3.799250 3.760426 0
M  V30 25 H 2.750247 -2.233225 2.376847 0
M  V30 26 H 3.840902 -2.387318 0.016906 0
M  V30 27 H 4.884455 -0.406785 -1.264947 0
M  V30 28 H 2.036122 3.545345 -1.914744 0
M  V30 29 H -0.023137 0.061961 2.380412 0
M  V30 30 H -0.747095 1.670182 2.152131 0
M  V30 31 H -2.886562 1.016680 2.156795 0
M  V30 32 H -2.286408 -0.437982 2.999042 0
M  V30 33 H -3.408022 -0.396541 -0.878623 0
M  V30 34 H -3.503765 1.061141 0.136377 0
M  V30 35 H -1.638085 1.615364 -1.069311 0
M  V30 36 H -1.203222 -0.082258 -1.489254 0
M  V30 37 H -0.483109 -2.065094 -0.345171 0
M  V30 END ATOM
M  V30 BEGIN BOND
M  V30 1 1 1 2
M  V30 2 2 2 3
M  V30 3 1 3 4
M  V30 4 2 4 5
M  V30 5 1 5 6
M  V30 6 1 6 7
M  V30 7 2 7 8
M  V30 8 1 8 9
M  V30 9 1 9 10
M  V30 10 2 10 11
M  V30 11 1 11 12
M  V30 12 2 12 13
M  V30 13 1 13 14
M  V30 14 1 14 15
M  V30 15 1 15 16
M  V30 16 1 16 17
M  V30 17 1 17 18
M  V30 18 1 18 19
M  V30 19 1 19 20
M  V30 20 2 14 21
M  V30 21 2 6 22
M  V30 22 1 22 2
M  V30 23 1 21 7
M  V30 24 1 21 10
M  V30 25 1 20 15
M  V30 26 1 3 23
M  V30 27 1 4 24
M  V30 28 1 5 25
M  V30 29 1 8 26
M  V30 30 1 9 27
M  V30 31 1 12 28
M  V30 32 1 16 29
M  V30 33 1 16 30
M  V30 34 1 17 31
M  V30 35 1 17 32
M  V30 36 1 19 33
M  V30 37 1 19 34
M  V30 38 1 20 35
M  V30 39 1 20 36
M  V30 40 1 22 37
M  V30 END BOND
M  V30 END CTAB
M  END
>  <Dataset>  (791) 
ChEMBL_Kinases

>  <Ligand_Instance>  (791) 
nan

>  <PDB_ID>  (791) 
nan

>  <Standardized_SMILES>  (791) 
Fc1cccc(-c2c[nH]c3ncnc(N4CCOCC4)c23)c1

>  <Name>  (791) 
nan

>  <Pocket>  (791) 
nan

>  <ATP_Site>  (791) 
nan

>  <Peripheral>  (791) 
nan

>  <Num_H_Atoms_ProtBoundConf>  (791) 
nan

>  <Num_Resolved_Atoms>  (791) 
nan

>  <Num_Not_Resolved_Atoms>  (791) 
nan

$$$$
CHEMBL3923175
     RDKit          3D

  0  0  0  0  0  0  0  0  0  0999 V3000
M  V30 BEGIN CTAB
M  V30 COUNTS 81 85 0 0 0
M  V30 BEGIN ATOM
M  V30 1 C 2.209256 -3.214058 3.788875 0
M  V30 2 C 3.343459 -3.769153 2.972268 0
M  V30 3 S 4.545392 -2.486815 2.588614 0
M  V30 4 O 5.609785 -3.180238 1.777971 0
M  V30 5 O 5.063885 -1.968174 3.874514 0
M  V30 6 C 3.726910 -1.265861 1.654219 0
M  V30 7 C 2.439162 -1.416352 1.213194 0
M  V30 8 C 1.703806 -0.527434 0.459647 0
M  V30 9 N 0.382708 -0.862382 0.080253 0
M  V30 10 C -0.554490 -0.047675 -0.603850 0
M  V30 11 N -0.386755 1.236145 -0.947711 0
M  V30 12 C -1.349689 1.892580 -1.605587 0
M  V30 13 C -2.536384 1.304806 -1.959348 0
M  V30 14 F -3.573543 1.881238 -2.631660 0
M  V30 15 C -2.729077 -0.016286 -1.615274 0
M  V30 16 N -3.880739 -0.840797 -1.853941 0
M  V30 17 C -4.274904 -2.214199 -1.910122 0
M  V30 18 C -3.976652 -3.042157 -0.739732 0
M  V30 19 C -4.958898 -3.163035 0.250851 0
M  V30 20 C -4.754713 -3.890855 1.421019 0
M  V30 21 C -3.552762 -4.531260 1.649225 0
M  V30 22 C -2.559508 -4.439380 0.701231 0
M  V30 23 C -2.809152 -3.708656 -0.439827 0
M  V30 24 C -1.765271 -3.686885 -1.421248 0
M  V30 25 N -0.940508 -3.653967 -2.213892 0
M  V30 26 C -4.985343 0.074584 -2.103413 0
M  V30 27 C -5.404932 0.800476 -0.982233 0
M  V30 28 C -6.456391 1.674996 -1.082764 0
M  V30 29 C -6.919354 2.453675 0.096987 0
M  V30 30 O -7.893010 1.720706 0.778253 0
M  V30 31 C -7.121434 1.862862 -2.272454 0
M  V30 32 C -6.695586 1.139420 -3.370597 0
M  V30 33 C -5.642942 0.254029 -3.300438 0
M  V30 34 C -5.179128 -0.509134 -4.461595 0
M  V30 35 N -1.718482 -0.581099 -0.964762 0
M  V30 36 C 2.385178 0.622630 0.141532 0
M  V30 37 C 3.679075 0.868993 0.535531 0
M  V30 38 C 4.371471 -0.070692 1.297743 0
M  V30 39 N 5.716672 0.198023 1.705770 0
M  V30 40 C 6.976788 -0.482335 1.475984 0
M  V30 41 C 8.099371 0.497524 1.223521 0
M  V30 42 N 7.650336 1.809364 0.900144 0
M  V30 43 C 7.324119 2.008513 -0.476577 0
M  V30 44 C 6.765158 2.412183 1.843019 0
M  V30 45 C 5.889611 1.399623 2.523667 0
M  V30 46 H 2.282725 -3.637520 4.834000 0
M  V30 47 H 2.191353 -2.097954 3.837369 0
M  V30 48 H 1.258631 -3.595302 3.402864 0
M  V30 49 H 3.865014 -4.538547 3.566061 0
M  V30 50 H 2.975683 -4.235291 2.030246 0
M  V30 51 H 1.983801 -2.353739 1.500723 0
M  V30 52 H 0.056406 -1.840123 0.341745 0
M  V30 53 H -1.283448 2.930606 -1.917424 0
M  V30 54 H -5.368451 -2.276626 -2.074607 0
M  V30 55 H -3.846454 -2.729197 -2.819997 0
M  V30 56 H -5.936116 -2.706681 0.182149 0
M  V30 57 H -5.516221 -3.981322 2.179084 0
M  V30 58 H -3.342557 -5.107480 2.535659 0
M  V30 59 H -1.610526 -4.928957 0.855935 0
M  V30 60 H -4.920619 0.692859 -0.022541 0
M  V30 61 H -6.042995 2.497452 0.805558 0
M  V30 62 H -7.220384 3.466408 -0.172226 0
M  V30 63 H -7.682340 0.762378 0.625219 0
M  V30 64 H -7.968952 2.558989 -2.379849 0
M  V30 65 H -7.203163 1.272137 -4.311650 0
M  V30 66 H -5.204210 0.196149 -5.346159 0
M  V30 67 H -5.900224 -1.312555 -4.760565 0
M  V30 68 H -4.192121 -0.955731 -4.354108 0
M  V30 69 H 1.892248 1.364923 -0.439694 0
M  V30 70 H 4.146980 1.810564 0.238999 0
M  V30 71 H 7.266059 -1.104221 2.360739 0
M  V30 72 H 6.844743 -1.078367 0.548619 0
M  V30 73 H 8.715665 0.140469 0.368626 0
M  V30 74 H 8.764583 0.595618 2.121905 0
M  V30 75 H 6.688159 2.891991 -0.659635 0
M  V30 76 H 6.909755 1.102305 -0.975500 0
M  V30 77 H 8.291078 2.208147 -1.010558 0
M  V30 78 H 7.404117 2.914626 2.628550 0
M  V30 79 H 6.214931 3.252355 1.370286 0
M  V30 80 H 4.937818 1.802205 2.903644 0
M  V30 81 H 6.447022 1.049006 3.440697 0
M  V30 END ATOM
M  V30 BEGIN BOND
M  V30 1 1 1 2
M  V30 2 1 2 3
M  V30 3 2 3 4
M  V30 4 2 3 5
M  V30 5 1 3 6
M  V30 6 2 6 7
M  V30 7 1 7 8
M  V30 8 1 8 9
M  V30 9 1 9 10
M  V30 10 2 10 11
M  V30 11 1 11 12
M  V30 12 2 12 13
M  V30 13 1 13 14
M  V30 14 1 13 15
M  V30 15 1 15 16
M  V30 16 1 16 17
M  V30 17 1 17 18
M  V30 18 2 18 19
M  V30 19 1 19 20
M  V30 20 2 20 21
M  V30 21 1 21 22
M  V30 22 2 22 23
M  V30 23 1 23 24
M  V30 24 3 24 25
M  V30 25 1 16 26
M  V30 26 2 26 27
M  V30 27 1 27 28
M  V30 28 1 28 29
M  V30 29 1 29 30
M  V30 30 2 28 31
M  V30 31 1 31 32
M  V30 32 2 32 33
M  V30 33 1 33 34
M  V30 34 2 15 35
M  V30 35 2 8 36
M  V30 36 1 36 37
M  V30 37 2 37 38
M  V30 38 1 38 39
M  V30 39 1 39 40
M  V30 40 1 40 41
M  V30 41 1 41 42
M  V30 42 1 42 43
M  V30 43 1 42 44
M  V30 44 1 44 45
M  V30 45 1 38 6
M  V30 46 1 45 39
M  V30 47 1 35 10
M  V30 48 1 23 18
M  V30 49 1 33 26
M  V30 50 1 1 46
M  V30 51 1 1 47
M  V30 52 1 1 48
M  V30 53 1 2 49
M  V30 54 1 2 50
M  V30 55 1 7 51
M  V30 56 1 9 52
M  V30 57 1 12 53
M  V30 58 1 17 54
M  V30 59 1 17 55
M  V30 60 1 19 56
M  V30 61 1 20 57
M  V30 62 1 21 58
M  V30 63 1 22 59
M  V30 64 1 27 60
M  V30 65 1 29 61
M  V30 66 1 29 62
M  V30 67 1 30 63
M  V30 68 1 31 64
M  V30 69 1 32 65
M  V30 70 1 34 66
M  V30 71 1 34 67
M  V30 72 1 34 68
M  V30 73 1 36 69
M  V30 74 1 37 70
M  V30 75 1 40 71
M  V30 76 1 40 72
M  V30 77 1 41 73
M  V30 78 1 41 74
M  V30 79 1 43 75
M  V30 80 1 43 76
M  V30 81 1 43 77
M  V30 82 1 44 78
M  V30 83 1 44 79
M  V30 84 1 45 80
M  V30 85 1 45 81
M  V30 END BOND
M  V30 END CTAB
M  END
>  <Dataset>  (792) 
ChEMBL_Kinases

>  <Ligand_Instance>  (792) 
nan

>  <PDB_ID>  (792) 
nan

>  <Standardized_SMILES>  (792) 
CCS(=O)(=O)c1cc(Nc2ncc(F)c(N(Cc3ccccc3C#N)c3cc(CO)ccc3C)n2)ccc1N1CCN(C)CC1

>  <Name>  (792) 
nan

>  <Pocket>  (792) 
nan

>  <ATP_Site>  (792) 
nan

>  <Peripheral>  (792) 
nan

>  <Num_H_Atoms_ProtBoundConf>  (792) 
nan

>  <Num_Resolved_Atoms>  (792) 
nan

>  <Num_Not_Resolved_Atoms>  (792) 
nan

$$$$
CHEMBL606467
     RDKit          3D

  0  0  0  0  0  0  0  0  0  0999 V3000
M  V30 BEGIN CTAB
M  V30 COUNTS 59 64 0 0 0
M  V30 BEGIN ATOM
M  V30 1 C 3.357059 1.730421 5.604510 0
M  V30 2 C 4.206524 0.529847 5.277965 0
M  V30 3 N 5.153517 -0.018425 6.091648 0
M  V30 4 N 5.700211 -1.067912 5.457368 0
M  V30 5 C 5.099230 -1.172054 4.259391 0
M  V30 6 N 5.268731 -2.042292 3.236069 0
M  V30 7 C 4.545049 -1.960922 2.101050 0
M  V30 8 C 3.590299 -0.980790 1.925846 0
M  V30 9 C 2.744485 -0.766145 0.760314 0
M  V30 10 C 1.446367 -1.198266 0.904040 0
M  V30 11 C 0.547177 -1.060710 -0.129403 0
M  V30 12 O -0.777610 -1.396207 -0.259374 0
M  V30 13 C -1.514368 -2.013565 0.776721 0
M  V30 14 C -2.958971 -2.250058 0.293408 0 CFG=1
M  V30 15 N -3.744565 -2.890767 1.335794 0
M  V30 16 C -3.492238 -0.870474 -0.017316 0
M  V30 17 C -4.869196 -0.843367 -0.510094 0
M  V30 18 C -6.072100 -0.519380 0.071813 0
M  V30 19 N -7.046797 -0.665454 -0.843617 0
M  V30 20 C -6.536255 -1.078459 -2.026429 0
M  V30 21 C -7.113483 -1.360421 -3.240626 0
M  V30 22 C -6.289554 -1.770912 -4.286088 0
M  V30 23 C -4.927378 -1.904021 -4.150201 0
M  V30 24 C -4.419854 -1.602170 -2.898867 0
M  V30 25 C -5.165837 -1.191375 -1.819070 0
M  V30 26 C 1.024816 -0.468406 -1.303794 0
M  V30 27 C 0.227998 -0.240295 -2.485820 0
M  V30 28 N -0.417763 -0.066014 -3.420684 0
M  V30 29 N 2.311046 -0.056460 -1.404521 0
M  V30 30 C 3.182783 -0.195318 -0.390303 0
M  V30 31 C 4.535679 0.257638 -0.542071 0
M  V30 32 C 4.748184 1.607596 -0.785106 0
M  V30 33 C 6.098183 1.856504 -0.902239 0
M  V30 34 O 6.718074 0.686051 -0.735990 0
M  V30 35 C 5.797883 -0.243532 -0.525793 0
M  V30 36 N 3.414865 -0.101520 2.952348 0
M  V30 37 C 4.147946 -0.186687 4.097041 0
M  V30 38 H 2.327113 1.573366 5.226052 0
M  V30 39 H 3.432435 1.944045 6.676369 0
M  V30 40 H 3.755763 2.571093 4.962161 0
M  V30 41 H 6.451986 -1.651367 5.881547 0
M  V30 42 H 4.642968 -2.629746 1.259733 0
M  V30 43 H 0.970263 -1.671597 1.771623 0
M  V30 44 H -1.108528 -3.024719 1.027631 0
M  V30 45 H -1.581392 -1.395755 1.674131 0
M  V30 46 H -2.924090 -2.927455 -0.565796 0
M  V30 47 H -4.620316 -2.398488 1.570164 0
M  V30 48 H -3.170779 -3.166215 2.163115 0
M  V30 49 H -2.794882 -0.422352 -0.785724 0
M  V30 50 H -3.405862 -0.265570 0.903557 0
M  V30 51 H -6.060843 -0.215082 1.107226 0
M  V30 52 H -8.044450 -0.465348 -0.594808 0
M  V30 53 H -8.187544 -1.263055 -3.372736 0
M  V30 54 H -6.712909 -2.001675 -5.262513 0
M  V30 55 H -4.282944 -2.226510 -4.972129 0
M  V30 56 H -3.330934 -1.712056 -2.798999 0
M  V30 57 H 4.085302 2.480155 -0.897710 0
M  V30 58 H 6.773504 2.680839 -1.081033 0
M  V30 59 H 5.934868 -1.313126 -0.350230 0
M  V30 END ATOM
M  V30 BEGIN BOND
M  V30 1 1 1 2
M  V30 2 2 2 3
M  V30 3 1 3 4
M  V30 4 1 4 5
M  V30 5 2 5 6
M  V30 6 1 6 7
M  V30 7 2 7 8
M  V30 8 1 8 9
M  V30 9 2 9 10
M  V30 10 1 10 11
M  V30 11 1 11 12
M  V30 12 1 12 13
M  V30 13 1 13 14
M  V30 14 1 14 15
M  V30 15 1 14 16
M  V30 16 1 16 17
M  V30 17 2 17 18
M  V30 18 1 18 19
M  V30 19 1 19 20
M  V30 20 2 20 21
M  V30 21 1 21 22
M  V30 22 2 22 23
M  V30 23 1 23 24
M  V30 24 2 24 25
M  V30 25 2 11 26
M  V30 26 1 26 27
M  V30 27 3 27 28
M  V30 28 1 26 29
M  V30 29 2 29 30
M  V30 30 1 30 31
M  V30 31 1 31 32
M  V30 32 2 32 33
M  V30 33 1 33 34
M  V30 34 1 34 35
M  V30 35 1 8 36
M  V30 36 2 36 37
M  V30 37 1 37 2
M  V30 38 1 37 5
M  V30 39 1 30 9
M  V30 40 2 35 31
M  V30 41 1 25 17
M  V30 42 1 25 20
M  V30 43 1 1 38
M  V30 44 1 1 39
M  V30 45 1 1 40
M  V30 46 1 4 41
M  V30 47 1 7 42
M  V30 48 1 10 43
M  V30 49 1 13 44
M  V30 50 1 13 45
M  V30 51 1 14 46 CFG=3
M  V30 52 1 15 47
M  V30 53 1 15 48
M  V30 54 1 16 49
M  V30 55 1 16 50
M  V30 56 1 18 51
M  V30 57 1 19 52
M  V30 58 1 21 53
M  V30 59 1 22 54
M  V30 60 1 23 55
M  V30 61 1 24 56
M  V30 62 1 32 57
M  V30 63 1 33 58
M  V30 64 1 35 59
M  V30 END BOND
M  V30 END CTAB
M  END
>  <Dataset>  (793) 
ChEMBL_Kinases

>  <Ligand_Instance>  (793) 
nan

>  <PDB_ID>  (793) 
nan

>  <Standardized_SMILES>  (793) 
Cc1n[nH]c2ncc(-c3cc(OC[C@@H](N)Cc4c[nH]c5ccccc45)c(C#N)nc3-c3ccoc3)nc12

>  <Name>  (793) 
nan

>  <Pocket>  (793) 
nan

>  <ATP_Site>  (793) 
nan

>  <Peripheral>  (793) 
nan

>  <Num_H_Atoms_ProtBoundConf>  (793) 
nan

>  <Num_Resolved_Atoms>  (793) 
nan

>  <Num_Not_Resolved_Atoms>  (793) 
nan

$$$$
CHEMBL1086579
     RDKit          3D

  0  0  0  0  0  0  0  0  0  0999 V3000
M  V30 BEGIN CTAB
M  V30 COUNTS 57 61 0 0 0
M  V30 BEGIN ATOM
M  V30 1 C 0.049535 -0.547904 5.395870 0
M  V30 2 C 0.644730 -1.333376 4.280034 0
M  V30 3 C 1.976576 -1.461159 3.942414 0
M  V30 4 C 2.102849 -2.282989 2.838135 0
M  V30 5 C 3.268540 -2.748673 2.083687 0
M  V30 6 N 3.711089 -1.950853 1.006362 0
M  V30 7 C 4.109335 -0.601580 1.335109 0
M  V30 8 C 3.824757 0.244771 0.103786 0
M  V30 9 N 2.428453 0.409291 -0.133098 0
M  V30 10 C 1.407102 1.400032 -0.126278 0
M  V30 11 C 1.626014 2.701231 0.267955 0
M  V30 12 Br 3.274073 3.352489 0.906635 0
M  V30 13 C 0.669417 3.694303 0.260099 0
M  V30 14 N -0.575975 3.338709 -0.173622 0
M  V30 15 C -0.807063 2.093950 -0.557035 0
M  V30 16 N -1.961398 1.585995 -1.012554 0
M  V30 17 C -1.763044 0.289270 -1.296683 0
M  V30 18 N -2.711794 -0.640956 -1.803344 0
M  V30 19 C -4.077344 -0.304609 -2.077782 0
M  V30 20 C -5.077551 -1.311957 -1.575511 0
M  V30 21 N -4.593933 -2.668632 -1.599606 0
M  V30 22 C -4.163294 -3.183952 -0.336141 0
M  V30 23 C -3.559903 -2.728169 -2.614044 0
M  V30 24 C -2.346045 -2.007475 -2.080762 0
M  V30 25 N -0.487106 0.009048 -1.012999 0
M  V30 26 C 0.137044 1.095861 -0.553742 0
M  V30 27 C 1.978718 -0.919024 -0.435234 0
M  V30 28 C 2.974420 -2.022417 -0.219244 0
M  V30 29 N 0.832287 -2.621758 2.551019 0
M  V30 30 O 0.017395 -2.063924 3.392564 0
M  V30 31 H -0.069457 0.521273 5.142075 0
M  V30 32 H -0.939630 -1.002055 5.668973 0
M  V30 33 H 0.697696 -0.643383 6.307263 0
M  V30 34 H 2.820892 -1.002652 4.443264 0
M  V30 35 H 4.164841 -2.944908 2.743831 0
M  V30 36 H 3.059047 -3.777330 1.659470 0
M  V30 37 H 5.173996 -0.596078 1.595894 0
M  V30 38 H 3.504980 -0.227001 2.156359 0
M  V30 39 H 4.365328 -0.170625 -0.784340 0
M  V30 40 H 4.297245 1.218618 0.310177 0
M  V30 41 H 0.789413 4.724696 0.557955 0
M  V30 42 H -2.862577 2.051147 -1.141581 0
M  V30 43 H -4.172127 -0.070123 -3.153852 0
M  V30 44 H -4.294986 0.664867 -1.559026 0
M  V30 45 H -5.456184 -1.006119 -0.570624 0
M  V30 46 H -5.969509 -1.257077 -2.254420 0
M  V30 47 H -3.376273 -3.970575 -0.530536 0
M  V30 48 H -4.995190 -3.725496 0.175134 0
M  V30 49 H -3.678607 -2.422097 0.308332 0
M  V30 50 H -3.356005 -3.749002 -2.937866 0
M  V30 51 H -3.948503 -2.111576 -3.474125 0
M  V30 52 H -1.552138 -2.091810 -2.866904 0
M  V30 53 H -1.974079 -2.560199 -1.181822 0
M  V30 54 H 1.070253 -1.193505 0.164929 0
M  V30 55 H 1.676808 -0.940113 -1.510600 0
M  V30 56 H 2.488844 -3.027153 -0.270612 0
M  V30 57 H 3.690051 -2.021019 -1.062250 0
M  V30 END ATOM
M  V30 BEGIN BOND
M  V30 1 1 1 2
M  V30 2 2 2 3
M  V30 3 1 3 4
M  V30 4 1 4 5
M  V30 5 1 5 6
M  V30 6 1 6 7
M  V30 7 1 7 8
M  V30 8 1 8 9
M  V30 9 1 9 10
M  V30 10 2 10 11
M  V30 11 1 11 12
M  V30 12 1 11 13
M  V30 13 2 13 14
M  V30 14 1 14 15
M  V30 15 1 15 16
M  V30 16 1 16 17
M  V30 17 1 17 18
M  V30 18 1 18 19
M  V30 19 1 19 20
M  V30 20 1 20 21
M  V30 21 1 21 22
M  V30 22 1 21 23
M  V30 23 1 23 24
M  V30 24 2 17 25
M  V30 25 1 25 26
M  V30 26 1 9 27
M  V30 27 1 27 28
M  V30 28 2 4 29
M  V30 29 1 29 30
M  V30 30 1 30 2
M  V30 31 1 28 6
M  V30 32 1 26 10
M  V30 33 2 26 15
M  V30 34 1 24 18
M  V30 35 1 1 31
M  V30 36 1 1 32
M  V30 37 1 1 33
M  V30 38 1 3 34
M  V30 39 1 5 35
M  V30 40 1 5 36
M  V30 41 1 7 37
M  V30 42 1 7 38
M  V30 43 1 8 39
M  V30 44 1 8 40
M  V30 45 1 13 41
M  V30 46 1 16 42
M  V30 47 1 19 43
M  V30 48 1 19 44
M  V30 49 1 20 45
M  V30 50 1 20 46
M  V30 51 1 22 47
M  V30 52 1 22 48
M  V30 53 1 22 49
M  V30 54 1 23 50
M  V30 55 1 23 51
M  V30 56 1 24 52
M  V30 57 1 24 53
M  V30 58 1 27 54
M  V30 59 1 27 55
M  V30 60 1 28 56
M  V30 61 1 28 57
M  V30 END BOND
M  V30 END CTAB
M  END
>  <Dataset>  (794) 
ChEMBL_Kinases

>  <Ligand_Instance>  (794) 
nan

>  <PDB_ID>  (794) 
nan

>  <Standardized_SMILES>  (794) 
Cc1cc(CN2CCN(c3c(Br)cnc4[nH]c(N5CCN(C)CC5)nc34)CC2)no1

>  <Name>  (794) 
nan

>  <Pocket>  (794) 
nan

>  <ATP_Site>  (794) 
nan

>  <Peripheral>  (794) 
nan

>  <Num_H_Atoms_ProtBoundConf>  (794) 
nan

>  <Num_Resolved_Atoms>  (794) 
nan

>  <Num_Not_Resolved_Atoms>  (794) 
nan

$$$$
CHEMBL3915064
     RDKit          3D

  0  0  0  0  0  0  0  0  0  0999 V3000
M  V30 BEGIN CTAB
M  V30 COUNTS 49 53 0 0 0
M  V30 BEGIN ATOM
M  V30 1 C -0.490033 -5.325637 2.820489 0
M  V30 2 C 0.581468 -4.489905 3.472939 0
M  V30 3 N 1.546719 -4.096581 2.436753 0
M  V30 4 C 1.477892 -2.982048 1.683695 0
M  V30 5 C 2.541884 -2.912547 0.804905 0
M  V30 6 C 2.853732 -1.883018 -0.182525 0
M  V30 7 C 2.029083 -0.798601 -0.324653 0
M  V30 8 C 2.291983 0.174325 -1.233451 0
M  V30 9 C 1.650877 1.344121 -1.580743 0
M  V30 10 C 0.425248 1.915081 -1.039170 0
M  V30 11 C -0.033058 3.111466 -1.551389 0
M  V30 12 C -1.173003 3.768596 -1.139773 0
M  V30 13 C -1.870481 3.134165 -0.134353 0
M  V30 14 C -1.448273 1.950915 0.396533 0
M  V30 15 N -2.133889 1.259502 1.436074 0
M  V30 16 C -1.733248 -0.008120 2.024355 0
M  V30 17 C -2.841153 -0.985995 1.805782 0
M  V30 18 O -4.053582 -0.536226 1.479315 0
M  V30 19 C -4.408249 0.746086 1.649817 0
M  V30 20 C -3.351742 1.725603 2.071393 0
M  V30 21 N -0.320711 1.384033 -0.071094 0
M  V30 22 N 2.412676 1.893924 -2.572458 0
M  V30 23 N 3.445184 1.104002 -2.805105 0
M  V30 24 C 3.435672 0.016506 -2.010348 0
M  V30 25 C 4.284217 -1.073021 -1.883102 0
M  V30 26 N 3.954601 -1.991894 -0.961425 0
M  V30 27 C 3.264591 -4.057410 1.070770 0
M  V30 28 N 2.634300 -4.730897 2.048997 0
M  V30 29 H -0.703716 -6.232382 3.446526 0
M  V30 30 H -1.459843 -4.785014 2.778637 0
M  V30 31 H -0.173515 -5.645694 1.797788 0
M  V30 32 H 0.095256 -3.580047 3.889959 0
M  V30 33 H 1.052528 -5.078028 4.261219 0
M  V30 34 H 0.688132 -2.256364 1.773422 0
M  V30 35 H 1.165400 -0.718770 0.290419 0
M  V30 36 H 0.544799 3.593972 -2.353059 0
M  V30 37 H -1.501194 4.706054 -1.565329 0
M  V30 38 H -2.771699 3.611144 0.221339 0
M  V30 39 H -1.635240 0.168526 3.136345 0
M  V30 40 H -0.783950 -0.347836 1.603607 0
M  V30 41 H -2.904586 -1.640609 2.700586 0
M  V30 42 H -2.492311 -1.690670 0.993417 0
M  V30 43 H -4.826290 1.121443 0.674266 0
M  V30 44 H -5.246185 0.815131 2.373968 0
M  V30 45 H -3.665989 2.729164 1.796198 0
M  V30 46 H -3.274798 1.629261 3.195021 0
M  V30 47 H 4.160679 1.347342 -3.538726 0
M  V30 48 H 5.166199 -1.167060 -2.502174 0
M  V30 49 H 4.186516 -4.343438 0.559943 0
M  V30 END ATOM
M  V30 BEGIN BOND
M  V30 1 1 1 2
M  V30 2 1 2 3
M  V30 3 1 3 4
M  V30 4 2 4 5
M  V30 5 1 5 6
M  V30 6 2 6 7
M  V30 7 1 7 8
M  V30 8 1 8 9
M  V30 9 1 9 10
M  V30 10 2 10 11
M  V30 11 1 11 12
M  V30 12 2 12 13
M  V30 13 1 13 14
M  V30 14 1 14 15
M  V30 15 1 15 16
M  V30 16 1 16 17
M  V30 17 1 17 18
M  V30 18 1 18 19
M  V30 19 1 19 20
M  V30 20 2 14 21
M  V30 21 2 9 22
M  V30 22 1 22 23
M  V30 23 1 23 24
M  V30 24 1 24 25
M  V30 25 2 25 26
M  V30 26 1 5 27
M  V30 27 2 27 28
M  V30 28 1 28 3
M  V30 29 1 26 6
M  V30 30 2 24 8
M  V30 31 1 21 10
M  V30 32 1 20 15
M  V30 33 1 1 29
M  V30 34 1 1 30
M  V30 35 1 1 31
M  V30 36 1 2 32
M  V30 37 1 2 33
M  V30 38 1 4 34
M  V30 39 1 7 35
M  V30 40 1 11 36
M  V30 41 1 12 37
M  V30 42 1 13 38
M  V30 43 1 16 39
M  V30 44 1 16 40
M  V30 45 1 17 41
M  V30 46 1 17 42
M  V30 47 1 19 43
M  V30 48 1 19 44
M  V30 49 1 20 45
M  V30 50 1 20 46
M  V30 51 1 23 47
M  V30 52 1 25 48
M  V30 53 1 27 49
M  V30 END BOND
M  V30 END CTAB
M  END
>  <Dataset>  (795) 
ChEMBL_Kinases

>  <Ligand_Instance>  (795) 
nan

>  <PDB_ID>  (795) 
nan

>  <Standardized_SMILES>  (795) 
CCn1cc(-c2cc3c(-c4cccc(N5CCOCC5)n4)n[nH]c3cn2)cn1

>  <Name>  (795) 
nan

>  <Pocket>  (795) 
nan

>  <ATP_Site>  (795) 
nan

>  <Peripheral>  (795) 
nan

>  <Num_H_Atoms_ProtBoundConf>  (795) 
nan

>  <Num_Resolved_Atoms>  (795) 
nan

>  <Num_Not_Resolved_Atoms>  (795) 
nan

$$$$
CHEMBL605410
     RDKit          3D

  0  0  0  0  0  0  0  0  0  0999 V3000
M  V30 BEGIN CTAB
M  V30 COUNTS 64 69 0 0 0
M  V30 BEGIN ATOM
M  V30 1 C 2.349195 -3.184358 2.443753 0
M  V30 2 C 3.293475 -2.078036 2.243983 0
M  V30 3 O 4.398440 -1.938525 2.934079 0
M  V30 4 C 5.030807 -0.851272 2.522189 0
M  V30 5 C 4.305350 -0.252665 1.516315 0
M  V30 6 C 3.177740 -1.046659 1.334183 0
M  V30 7 C 2.118420 -0.791434 0.364185 0
M  V30 8 N 2.104810 -1.288079 -0.892909 0
M  V30 9 C 1.058633 -0.987654 -1.723668 0
M  V30 10 N 1.322554 -1.650895 -2.979909 0
M  V30 11 C -0.032115 -0.176280 -1.349350 0
M  V30 12 O -0.842829 -0.124826 -2.446034 0
M  V30 13 C -2.038847 0.569582 -2.478382 0
M  V30 14 C -3.118634 0.153288 -1.555799 0 CFG=1
M  V30 15 N -4.218172 1.154955 -1.812951 0
M  V30 16 C -3.803082 -1.146022 -1.863024 0
M  V30 17 C -2.895685 -2.272045 -1.890160 0
M  V30 18 C -2.062957 -2.839871 -2.857368 0
M  V30 19 C -2.021628 -2.368087 -4.226712 0
M  V30 20 N -1.984262 -1.976235 -5.304455 0
M  V30 21 N -1.349335 -3.872975 -2.414449 0
M  V30 22 C -1.686373 -4.033197 -1.121613 0
M  V30 23 C -1.195204 -4.987935 -0.257717 0
M  V30 24 C -1.651782 -5.013171 1.045035 0
M  V30 25 C -2.586684 -4.070207 1.418376 0
M  V30 26 C -3.063462 -3.124552 0.536281 0
M  V30 27 C -2.620296 -3.073474 -0.789844 0
M  V30 28 C 0.029315 0.304798 -0.061178 0
M  V30 29 C 1.075346 0.010278 0.784594 0
M  V30 30 C 0.925370 0.632114 2.103051 0
M  V30 31 C 0.719771 0.069759 3.347404 0
M  V30 32 N 0.622796 0.877860 4.418321 0
M  V30 33 C 0.723352 2.211599 4.284864 0
M  V30 34 N 0.657758 3.195368 5.208439 0
M  V30 35 N 0.814938 4.355241 4.585140 0
M  V30 36 C 0.984578 4.173531 3.265474 0
M  V30 37 C 1.195150 5.195133 2.200218 0
M  V30 38 C 0.928950 2.805986 3.053144 0
M  V30 39 N 1.026202 1.990340 1.978152 0
M  V30 40 H 1.549713 -3.132269 1.674707 0
M  V30 41 H 1.840206 -3.103961 3.447538 0
M  V30 42 H 2.826012 -4.186886 2.363131 0
M  V30 43 H 5.974133 -0.609691 3.012348 0
M  V30 44 H 4.612465 0.637425 1.026053 0
M  V30 45 H 1.170722 -2.678889 -3.055344 0
M  V30 46 H 1.644851 -0.908818 -3.637677 0
M  V30 47 H -1.886512 1.677619 -2.347888 0
M  V30 48 H -2.469251 0.484440 -3.523917 0
M  V30 49 H -2.949659 0.249830 -0.487691 0
M  V30 50 H -3.890076 2.095693 -1.515644 0
M  V30 51 H -5.023614 0.910065 -1.191620 0
M  V30 52 H -4.346834 -1.060810 -2.841499 0
M  V30 53 H -4.608961 -1.344987 -1.122551 0
M  V30 54 H -0.672841 -4.426514 -2.979984 0
M  V30 55 H -0.454907 -5.727281 -0.573695 0
M  V30 56 H -1.249846 -5.768040 1.691839 0
M  V30 57 H -2.907775 -4.136194 2.447029 0
M  V30 58 H -3.799625 -2.395141 0.862088 0
M  V30 59 H -0.821679 0.908991 0.126297 0
M  V30 60 H 0.658714 -1.007653 3.292221 0
M  V30 61 H 0.507220 3.030650 6.231925 0
M  V30 62 H 0.867377 6.194335 2.519249 0
M  V30 63 H 0.665704 4.951941 1.256250 0
M  V30 64 H 2.283328 5.209387 1.898891 0
M  V30 END ATOM
M  V30 BEGIN BOND
M  V30 1 1 1 2
M  V30 2 1 2 3
M  V30 3 1 3 4
M  V30 4 2 4 5
M  V30 5 1 5 6
M  V30 6 1 6 7
M  V30 7 2 7 8
M  V30 8 1 8 9
M  V30 9 1 9 10
M  V30 10 2 9 11
M  V30 11 1 11 12
M  V30 12 1 12 13
M  V30 13 1 13 14
M  V30 14 1 14 15
M  V30 15 1 14 16
M  V30 16 1 16 17
M  V30 17 2 17 18
M  V30 18 1 18 19
M  V30 19 3 19 20
M  V30 20 1 18 21
M  V30 21 1 21 22
M  V30 22 2 22 23
M  V30 23 1 23 24
M  V30 24 2 24 25
M  V30 25 1 25 26
M  V30 26 2 26 27
M  V30 27 1 11 28
M  V30 28 2 28 29
M  V30 29 1 29 30
M  V30 30 2 30 31
M  V30 31 1 31 32
M  V30 32 2 32 33
M  V30 33 1 33 34
M  V30 34 1 34 35
M  V30 35 2 35 36
M  V30 36 1 36 37
M  V30 37 1 36 38
M  V30 38 2 38 39
M  V30 39 2 6 2
M  V30 40 1 29 7
M  V30 41 1 39 30
M  V30 42 1 27 17
M  V30 43 1 38 33
M  V30 44 1 27 22
M  V30 45 1 1 40
M  V30 46 1 1 41
M  V30 47 1 1 42
M  V30 48 1 4 43
M  V30 49 1 5 44
M  V30 50 1 10 45
M  V30 51 1 10 46
M  V30 52 1 13 47
M  V30 53 1 13 48
M  V30 54 1 14 49 CFG=1
M  V30 55 1 15 50
M  V30 56 1 15 51
M  V30 57 1 16 52
M  V30 58 1 16 53
M  V30 59 1 21 54
M  V30 60 1 23 55
M  V30 61 1 24 56
M  V30 62 1 25 57
M  V30 63 1 26 58
M  V30 64 1 28 59
M  V30 65 1 31 60
M  V30 66 1 34 61
M  V30 67 1 37 62
M  V30 68 1 37 63
M  V30 69 1 37 64
M  V30 END BOND
M  V30 END CTAB
M  END
>  <Dataset>  (796) 
ChEMBL_Kinases

>  <Ligand_Instance>  (796) 
nan

>  <PDB_ID>  (796) 
nan

>  <Standardized_SMILES>  (796) 
Cc1occc1-c1nc(N)c(OC[C@@H](N)Cc2c(C#N)[nH]c3ccccc23)cc1-c1cnc2[nH]nc(C)c2n1

>  <Name>  (796) 
nan

>  <Pocket>  (796) 
nan

>  <ATP_Site>  (796) 
nan

>  <Peripheral>  (796) 
nan

>  <Num_H_Atoms_ProtBoundConf>  (796) 
nan

>  <Num_Resolved_Atoms>  (796) 
nan

>  <Num_Not_Resolved_Atoms>  (796) 
nan

$$$$
CHEMBL4877347
     RDKit          3D

  0  0  0  0  0  0  0  0  0  0999 V3000
M  V30 BEGIN CTAB
M  V30 COUNTS 80 84 0 0 0
M  V30 BEGIN ATOM
M  V30 1 C 2.480703 -3.200790 5.117230 0
M  V30 2 C 3.279658 -4.159072 4.292509 0
M  V30 3 C 3.521880 -3.727697 2.901582 0
M  V30 4 C 4.328011 -2.490496 2.704816 0 CFG=2
M  V30 5 C 3.790412 -1.210476 3.262698 0
M  V30 6 N 4.456743 -2.252070 1.252350 0
M  V30 7 C 3.325867 -1.910152 0.465508 0
M  V30 8 N 2.085250 -1.821967 0.969467 0
M  V30 9 C 1.041911 -1.483773 0.233507 0
M  V30 10 C 1.169522 -1.198189 -1.107040 0
M  V30 11 C 0.203940 -0.831787 -2.018970 0
M  V30 12 C -1.231662 -0.611349 -1.914184 0
M  V30 13 C -1.596745 0.864281 -1.763017 0
M  V30 14 C -3.104189 0.958522 -1.589801 0
M  V30 15 N -3.461943 0.307950 -0.317471 0
M  V30 16 C -4.731368 0.685842 0.127262 0
M  V30 17 O -4.991239 1.448011 -0.839620 0
M  V30 18 C -5.650043 0.457490 1.226069 0
M  V30 19 C -5.385781 -0.217727 2.393913 0
M  V30 20 C -6.298400 -0.410548 3.412892 0
M  V30 21 C -5.882588 -1.167089 4.630126 0
M  V30 22 N -7.514552 0.112122 3.213967 0
M  V30 23 C -7.798230 0.768973 2.097363 0
M  V30 24 C -9.198399 1.274931 2.063256 0
M  V30 25 C -6.916994 0.980939 1.059286 0
M  V30 26 C -2.426591 -0.566094 0.185324 0
M  V30 27 C -2.001308 -1.466925 -0.976741 0
M  V30 28 C 0.970752 -0.691854 -3.185158 0
M  V30 29 N 2.267060 -0.961413 -2.933025 0
M  V30 30 C 3.298419 -0.896909 -3.915377 0 CFG=1
M  V30 31 C 2.921698 0.195183 -4.916982 0
M  V30 32 C 2.759181 1.512493 -4.192482 0
M  V30 33 C 3.979490 1.845280 -3.374423 0 CFG=2
M  V30 34 O 4.485025 3.108460 -3.744555 0
M  V30 35 C 5.081790 0.868400 -3.632388 0
M  V30 36 C 4.661014 -0.583464 -3.448472 0
M  V30 37 C 2.434557 -1.284580 -1.637730 0
M  V30 38 N 3.438054 -1.631525 -0.839412 0
M  V30 39 H 1.596639 -2.883966 4.529720 0
M  V30 40 H 3.085821 -2.355010 5.417980 0
M  V30 41 H 2.043652 -3.725661 6.024629 0
M  V30 42 H 4.283302 -4.254975 4.802245 0
M  V30 43 H 2.784470 -5.173495 4.269100 0
M  V30 44 H 2.513827 -3.578969 2.427028 0
M  V30 45 H 4.009273 -4.577044 2.331126 0
M  V30 46 H 5.396312 -2.655851 3.089338 0
M  V30 47 H 2.709361 -1.226048 3.390832 0
M  V30 48 H 4.361956 -0.902166 4.172130 0
M  V30 49 H 3.979144 -0.353393 2.542164 0
M  V30 50 H 5.383299 -2.328264 0.770392 0
M  V30 51 H 0.137036 -1.467581 0.776449 0
M  V30 52 H -1.647768 -0.850610 -2.946221 0
M  V30 53 H -1.359886 1.346202 -2.732128 0
M  V30 54 H -1.038166 1.388352 -0.996254 0
M  V30 55 H -3.644296 0.563086 -2.445193 0
M  V30 56 H -3.311724 2.038135 -1.462519 0
M  V30 57 H -4.409095 -0.624289 2.540307 0
M  V30 58 H -4.869006 -0.891746 4.966165 0
M  V30 59 H -5.994148 -2.260125 4.461106 0
M  V30 60 H -6.579496 -0.919673 5.464315 0
M  V30 61 H -9.845715 0.385542 2.239918 0
M  V30 62 H -9.308656 1.964110 2.948741 0
M  V30 63 H -9.397481 1.826245 1.146592 0
M  V30 64 H -7.240060 1.529146 0.186565 0
M  V30 65 H -1.594366 0.125519 0.473522 0
M  V30 66 H -2.678699 -1.144132 1.071093 0
M  V30 67 H -1.543217 -2.401718 -0.669691 0
M  V30 68 H -2.996157 -1.778336 -1.418155 0
M  V30 69 H 0.506377 -0.396835 -4.139029 0
M  V30 70 H 3.260534 -1.843506 -4.516513 0
M  V30 71 H 2.009895 -0.082662 -5.441651 0
M  V30 72 H 3.779721 0.337161 -5.631961 0
M  V30 73 H 1.903618 1.547644 -3.516272 0
M  V30 74 H 2.609742 2.318981 -4.955952 0
M  V30 75 H 3.781941 1.879370 -2.283852 0
M  V30 76 H 4.599633 3.716825 -2.969706 0
M  V30 77 H 5.936359 1.063568 -2.942639 0
M  V30 78 H 5.440109 1.036476 -4.679527 0
M  V30 79 H 4.961739 -0.887642 -2.454865 0
M  V30 80 H 5.364689 -1.144139 -4.137795 0
M  V30 END ATOM
M  V30 BEGIN BOND
M  V30 1 1 1 2
M  V30 2 1 2 3
M  V30 3 1 3 4
M  V30 4 1 4 5
M  V30 5 1 4 6
M  V30 6 1 6 7
M  V30 7 2 7 8
M  V30 8 1 8 9
M  V30 9 2 9 10
M  V30 10 1 10 11
M  V30 11 1 11 12
M  V30 12 1 12 13
M  V30 13 1 13 14
M  V30 14 1 14 15
M  V30 15 1 15 16
M  V30 16 2 16 17
M  V30 17 1 16 18
M  V30 18 2 18 19
M  V30 19 1 19 20
M  V30 20 1 20 21
M  V30 21 2 20 22
M  V30 22 1 22 23
M  V30 23 1 23 24
M  V30 24 2 23 25
M  V30 25 1 15 26
M  V30 26 1 26 27
M  V30 27 2 11 28
M  V30 28 1 28 29
M  V30 29 1 29 30
M  V30 30 1 30 31
M  V30 31 1 31 32
M  V30 32 1 32 33
M  V30 33 1 33 34
M  V30 34 1 33 35
M  V30 35 1 35 36
M  V30 36 1 29 37
M  V30 37 2 37 38
M  V30 38 1 38 7
M  V30 39 1 37 10
M  V30 40 1 27 12
M  V30 41 1 36 30
M  V30 42 1 25 18
M  V30 43 1 1 39
M  V30 44 1 1 40
M  V30 45 1 1 41
M  V30 46 1 2 42
M  V30 47 1 2 43
M  V30 48 1 3 44
M  V30 49 1 3 45
M  V30 50 1 4 46 CFG=1
M  V30 51 1 5 47
M  V30 52 1 5 48
M  V30 53 1 5 49
M  V30 54 1 6 50
M  V30 55 1 9 51
M  V30 56 1 12 52
M  V30 57 1 13 53
M  V30 58 1 13 54
M  V30 59 1 14 55
M  V30 60 1 14 56
M  V30 61 1 19 57
M  V30 62 1 21 58
M  V30 63 1 21 59
M  V30 64 1 21 60
M  V30 65 1 24 61
M  V30 66 1 24 62
M  V30 67 1 24 63
M  V30 68 1 25 64
M  V30 69 1 26 65
M  V30 70 1 26 66
M  V30 71 1 27 67
M  V30 72 1 27 68
M  V30 73 1 28 69
M  V30 74 1 30 70 CFG=3
M  V30 75 1 31 71
M  V30 76 1 31 72
M  V30 77 1 32 73
M  V30 78 1 32 74
M  V30 79 1 33 75 CFG=1
M  V30 80 1 34 76
M  V30 81 1 35 77
M  V30 82 1 35 78
M  V30 83 1 36 79
M  V30 84 1 36 80
M  V30 END BOND
M  V30 END CTAB
M  END
>  <Dataset>  (797) 
ChEMBL_Kinases

>  <Ligand_Instance>  (797) 
nan

>  <PDB_ID>  (797) 
nan

>  <Standardized_SMILES>  (797) 
CCC[C@H](C)Nc1ncc2c(C3CCN(C(=O)c4cc(C)nc(C)c4)CC3)cn([C@H]3CC[C@H](O)CC3)c2n1

>  <Name>  (797) 
nan

>  <Pocket>  (797) 
nan

>  <ATP_Site>  (797) 
nan

>  <Peripheral>  (797) 
nan

>  <Num_H_Atoms_ProtBoundConf>  (797) 
nan

>  <Num_Resolved_Atoms>  (797) 
nan

>  <Num_Not_Resolved_Atoms>  (797) 
nan

$$$$
CHEMBL365656
     RDKit          3D

  0  0  0  0  0  0  0  0  0  0999 V3000
M  V30 BEGIN CTAB
M  V30 COUNTS 53 56 0 0 0
M  V30 BEGIN ATOM
M  V30 1 C -0.288206 -1.518543 4.614852 0
M  V30 2 N 0.826526 -0.731766 4.137313 0
M  V30 3 C 0.319457 0.578529 3.790135 0
M  V30 4 C 1.362352 -1.416280 2.974831 0
M  V30 5 C 2.497142 -0.712213 2.336995 0
M  V30 6 C 2.989228 -1.488014 1.142864 0
M  V30 7 N 1.927873 -1.679328 0.158217 0
M  V30 8 C 1.535652 -0.809832 -0.812773 0
M  V30 9 C 0.471839 -1.360660 -1.515441 0
M  V30 10 C -0.237442 -0.720114 -2.614720 0
M  V30 11 C -0.538492 0.575556 -2.416071 0
M  V30 12 N -0.366528 1.571889 -1.404765 0
M  V30 13 C -1.197617 1.780360 -0.270301 0
M  V30 14 C -0.929233 2.789807 0.621505 0
M  V30 15 C -1.748316 2.977011 1.719693 0
M  V30 16 C -2.862685 2.170892 1.973546 0
M  V30 17 C -3.124354 1.156666 1.070145 0
M  V30 18 C -2.294950 0.992594 -0.013946 0
M  V30 19 C -1.242221 1.113727 -3.591791 0
M  V30 20 O -1.742344 2.200882 -3.962813 0
M  V30 21 N -1.361666 0.045184 -4.551270 0
M  V30 22 C -0.730999 -1.096589 -3.931537 0
M  V30 23 O -0.558776 -2.267219 -4.325005 0
M  V30 24 C 0.193314 -2.607328 -0.969779 0
M  V30 25 C -0.717315 -3.608659 -1.223299 0
M  V30 26 C -0.738500 -4.775291 -0.473650 0
M  V30 27 C 0.173349 -4.919519 0.538777 0
M  V30 28 C 1.110129 -3.924412 0.822433 0
M  V30 29 C 1.106193 -2.761507 0.050229 0
M  V30 30 H -0.705141 -1.174969 5.583927 0
M  V30 31 H -1.130128 -1.462834 3.861576 0
M  V30 32 H -0.043255 -2.607199 4.694086 0
M  V30 33 H -0.468989 0.472183 3.004042 0
M  V30 34 H -0.091131 1.114454 4.660128 0
M  V30 35 H 1.080050 1.254823 3.353837 0
M  V30 36 H 0.514660 -1.486815 2.261252 0
M  V30 37 H 1.675427 -2.418549 3.298155 0
M  V30 38 H 2.284540 0.327563 2.007732 0
M  V30 39 H 3.389029 -0.625342 3.017804 0
M  V30 40 H 3.916618 -1.073066 0.714515 0
M  V30 41 H 3.290538 -2.508104 1.517493 0
M  V30 42 H 2.008596 0.140498 -0.969786 0
M  V30 43 H 0.465550 2.196634 -1.543596 0
M  V30 44 H -0.077644 3.409622 0.431655 0
M  V30 45 H -1.487624 3.788592 2.391362 0
M  V30 46 H -3.421108 2.426352 2.863030 0
M  V30 47 H -3.997455 0.557938 1.309887 0
M  V30 48 H -2.580292 0.173587 -0.670790 0
M  V30 49 H -1.771663 -0.065808 -5.513150 0
M  V30 50 H -1.429651 -3.476039 -2.028221 0
M  V30 51 H -1.498510 -5.515748 -0.747583 0
M  V30 52 H 0.059041 -5.874545 1.059038 0
M  V30 53 H 1.771199 -4.143034 1.636837 0
M  V30 END ATOM
M  V30 BEGIN BOND
M  V30 1 1 1 2
M  V30 2 1 2 3
M  V30 3 1 2 4
M  V30 4 1 4 5
M  V30 5 1 5 6
M  V30 6 1 6 7
M  V30 7 1 7 8
M  V30 8 2 8 9
M  V30 9 1 9 10
M  V30 10 2 10 11
M  V30 11 1 11 12
M  V30 12 1 12 13
M  V30 13 2 13 14
M  V30 14 1 14 15
M  V30 15 2 15 16
M  V30 16 1 16 17
M  V30 17 2 17 18
M  V30 18 1 11 19
M  V30 19 2 19 20
M  V30 20 1 19 21
M  V30 21 1 21 22
M  V30 22 2 22 23
M  V30 23 1 9 24
M  V30 24 2 24 25
M  V30 25 1 25 26
M  V30 26 2 26 27
M  V30 27 1 27 28
M  V30 28 2 28 29
M  V30 29 1 29 7
M  V30 30 1 22 10
M  V30 31 1 29 24
M  V30 32 1 18 13
M  V30 33 1 1 30
M  V30 34 1 1 31
M  V30 35 1 1 32
M  V30 36 1 3 33
M  V30 37 1 3 34
M  V30 38 1 3 35
M  V30 39 1 4 36
M  V30 40 1 4 37
M  V30 41 1 5 38
M  V30 42 1 5 39
M  V30 43 1 6 40
M  V30 44 1 6 41
M  V30 45 1 8 42
M  V30 46 1 12 43
M  V30 47 1 14 44
M  V30 48 1 15 45
M  V30 49 1 16 46
M  V30 50 1 17 47
M  V30 51 1 18 48
M  V30 52 1 21 49
M  V30 53 1 25 50
M  V30 54 1 26 51
M  V30 55 1 27 52
M  V30 56 1 28 53
M  V30 END BOND
M  V30 END CTAB
M  END
>  <Dataset>  (798) 
ChEMBL_Kinases

>  <Ligand_Instance>  (798) 
nan

>  <PDB_ID>  (798) 
nan

>  <Standardized_SMILES>  (798) 
CN(C)CCCn1cc(C2=C(Nc3ccccc3)C(=O)NC2=O)c2ccccc21

>  <Name>  (798) 
nan

>  <Pocket>  (798) 
nan

>  <ATP_Site>  (798) 
nan

>  <Peripheral>  (798) 
nan

>  <Num_H_Atoms_ProtBoundConf>  (798) 
nan

>  <Num_Resolved_Atoms>  (798) 
nan

>  <Num_Not_Resolved_Atoms>  (798) 
nan

$$$$
CHEMBL4877608
     RDKit          3D

  0  0  0  0  0  0  0  0  0  0999 V3000
M  V30 BEGIN CTAB
M  V30 COUNTS 38 41 0 0 0
M  V30 BEGIN ATOM
M  V30 1 C 2.907512 -5.074216 1.967660 0
M  V30 2 S 3.327152 -3.859559 0.688142 0
M  V30 3 C 2.741003 -2.262289 1.235141 0
M  V30 4 N 3.608040 -1.542527 1.961593 0
M  V30 5 C 3.246507 -0.334803 2.409918 0
M  V30 6 C 2.000312 0.188229 2.141794 0
M  V30 7 C 1.113392 -0.556619 1.394214 0
M  V30 8 C -0.248548 -0.279734 0.949528 0
M  V30 9 C -0.786245 0.655045 0.093022 0
M  V30 10 C 0.014840 1.651063 -0.599654 0
M  V30 11 C -0.008862 1.440558 -1.977356 0
M  V30 12 C 0.679716 2.261897 -2.859432 0
M  V30 13 C 1.414615 3.327878 -2.336232 0
M  V30 14 F 2.150782 4.237781 -3.027490 0
M  V30 15 C 1.428451 3.521874 -0.982627 0
M  V30 16 C 0.751307 2.713081 -0.124963 0
M  V30 17 N -2.118685 0.447470 0.051792 0
M  V30 18 C -2.448677 -0.584771 0.850443 0
M  V30 19 C -3.654266 -1.199241 1.164752 0
M  V30 20 N -4.886490 -0.739560 0.587873 0
M  V30 21 N -3.660888 -2.242274 2.023585 0
M  V30 22 C -2.533599 -2.716534 2.594494 0
M  V30 23 C -1.370726 -2.087581 2.261448 0
M  V30 24 N -1.286851 -1.035554 1.407427 0
M  V30 25 N 1.517171 -1.785129 0.953569 0
M  V30 26 H 3.698816 -5.846667 2.076528 0
M  V30 27 H 1.933907 -5.576574 1.707829 0
M  V30 28 H 2.723565 -4.552422 2.928959 0
M  V30 29 H 3.852415 0.353119 3.009653 0
M  V30 30 H 1.569820 1.132720 2.431532 0
M  V30 31 H -0.533276 0.654903 -2.539921 0
M  V30 32 H 0.717328 2.175970 -3.919355 0
M  V30 33 H 1.959747 4.311288 -0.460472 0
M  V30 34 H 0.702266 2.789272 0.950263 0
M  V30 35 H -4.990033 -1.460981 -0.172951 0
M  V30 36 H -5.051236 0.088012 1.228628 0
M  V30 37 H -2.540478 -3.553752 3.283954 0
M  V30 38 H -0.465087 -2.480503 2.728893 0
M  V30 END ATOM
M  V30 BEGIN BOND
M  V30 1 1 1 2
M  V30 2 1 2 3
M  V30 3 2 3 4
M  V30 4 1 4 5
M  V30 5 2 5 6
M  V30 6 1 6 7
M  V30 7 1 7 8
M  V30 8 2 8 9
M  V30 9 1 9 10
M  V30 10 2 10 11
M  V30 11 1 11 12
M  V30 12 2 12 13
M  V30 13 1 13 14
M  V30 14 1 13 15
M  V30 15 2 15 16
M  V30 16 1 9 17
M  V30 17 2 17 18
M  V30 18 1 18 19
M  V30 19 1 19 20
M  V30 20 2 19 21
M  V30 21 1 21 22
M  V30 22 2 22 23
M  V30 23 1 23 24
M  V30 24 2 7 25
M  V30 25 1 25 3
M  V30 26 1 24 8
M  V30 27 1 16 10
M  V30 28 1 24 18
M  V30 29 1 1 26
M  V30 30 1 1 27
M  V30 31 1 1 28
M  V30 32 1 5 29
M  V30 33 1 6 30
M  V30 34 1 11 31
M  V30 35 1 12 32
M  V30 36 1 15 33
M  V30 37 1 16 34
M  V30 38 1 20 35
M  V30 39 1 20 36
M  V30 40 1 22 37
M  V30 41 1 23 38
M  V30 END BOND
M  V30 END CTAB
M  END
>  <Dataset>  (799) 
ChEMBL_Kinases

>  <Ligand_Instance>  (799) 
nan

>  <PDB_ID>  (799) 
nan

>  <Standardized_SMILES>  (799) 
CSc1nccc(-c2c(-c3ccc(F)cc3)nc3c(N)nccn23)n1

>  <Name>  (799) 
nan

>  <Pocket>  (799) 
nan

>  <ATP_Site>  (799) 
nan

>  <Peripheral>  (799) 
nan

>  <Num_H_Atoms_ProtBoundConf>  (799) 
nan

>  <Num_Resolved_Atoms>  (799) 
nan

>  <Num_Not_Resolved_Atoms>  (799) 
nan

$$$$
CHEMBL594072
     RDKit          3D

  0  0  0  0  0  0  0  0  0  0999 V3000
M  V30 BEGIN CTAB
M  V30 COUNTS 67 72 0 0 0
M  V30 BEGIN ATOM
M  V30 1 C -0.574420 5.695452 2.680122 0
M  V30 2 C -0.238908 4.562095 3.583393 0
M  V30 3 O 0.130917 4.682557 4.844963 0
M  V30 4 C 0.358153 3.527946 5.380988 0
M  V30 5 C 0.141312 2.522516 4.459758 0
M  V30 6 C -0.239289 3.223363 3.321833 0
M  V30 7 C -0.579986 2.582413 2.054077 0
M  V30 8 N -1.796301 2.680198 1.438171 0
M  V30 9 C -1.976900 2.025219 0.248789 0
M  V30 10 N -3.314094 2.284246 -0.177871 0
M  V30 11 C -0.985101 1.252588 -0.385759 0
M  V30 12 O -1.512965 0.769986 -1.516153 0
M  V30 13 C -1.106285 -0.028820 -2.539351 0
M  V30 14 C -0.747349 -1.443724 -2.283382 0 CFG=1
M  V30 15 N 0.266907 -1.785325 -1.403426 0
M  V30 16 C -1.989129 -2.303369 -2.053165 0
M  V30 17 C -1.700015 -3.708614 -1.782506 0
M  V30 18 C -1.349014 -4.365862 -0.627729 0
M  V30 19 C -1.266854 -3.826573 0.705322 0
M  V30 20 N -1.550740 -2.620182 1.350178 0
M  V30 21 O -0.865988 -4.413792 1.721350 0
M  V30 22 N -1.119648 -5.670629 -0.852048 0
M  V30 23 C -1.326238 -5.846844 -2.149900 0
M  V30 24 C -1.220431 -7.027944 -2.891603 0
M  V30 25 C -1.473043 -7.035916 -4.247381 0
M  V30 26 C -1.834560 -5.860826 -4.876052 0
M  V30 27 C -1.942111 -4.678928 -4.142759 0
M  V30 28 C -1.691183 -4.663396 -2.788041 0
M  V30 29 C 0.205111 1.210018 0.302086 0
M  V30 30 C 0.442251 1.846375 1.498247 0
M  V30 31 C 1.776364 1.663278 2.057262 0
M  V30 32 C 2.744852 2.614665 2.327809 0
M  V30 33 N 3.924558 2.235227 2.847981 0
M  V30 34 C 4.160446 0.942761 3.102763 0
M  V30 35 N 5.255948 0.335925 3.616948 0
M  V30 36 N 4.995596 -0.971923 3.674088 0
M  V30 37 C 3.760112 -1.226990 3.210256 0
M  V30 38 C 3.108729 -2.553588 3.110922 0
M  V30 39 C 3.204916 -0.016113 2.838173 0
M  V30 40 N 2.003671 0.344070 2.311804 0
M  V30 41 H -1.090658 6.465216 3.313604 0
M  V30 42 H -1.247314 5.372180 1.864513 0
M  V30 43 H 0.345271 6.188927 2.306755 0
M  V30 44 H 0.671096 3.440497 6.411641 0
M  V30 45 H 0.254623 1.441532 4.628673 0
M  V30 46 H -3.680756 3.057139 -0.748290 0
M  V30 47 H -4.124373 1.672041 0.060547 0
M  V30 48 H -0.318266 0.512530 -3.144309 0
M  V30 49 H -1.969693 -0.066757 -3.282753 0
M  V30 50 H -0.386700 -1.823426 -3.320816 0
M  V30 51 H 1.155267 -2.139350 -1.793822 0
M  V30 52 H 0.234536 -1.601960 -0.418175 0
M  V30 53 H -2.502900 -1.851093 -1.158941 0
M  V30 54 H -2.702134 -2.200096 -2.899682 0
M  V30 55 H -1.018805 -1.796607 1.684976 0
M  V30 56 H -2.561406 -2.484503 1.564026 0
M  V30 57 H -0.833719 -6.423260 -0.161641 0
M  V30 58 H -0.942591 -7.982951 -2.464548 0
M  V30 59 H -1.392732 -7.946145 -4.824294 0
M  V30 60 H -2.037857 -5.833182 -5.927774 0
M  V30 61 H -2.221891 -3.752029 -4.609409 0
M  V30 62 H 0.931310 0.621895 -0.233806 0
M  V30 63 H 2.436073 3.617070 2.079806 0
M  V30 64 H 6.158399 0.743154 3.928653 0
M  V30 65 H 2.491496 -2.797477 3.998438 0
M  V30 66 H 3.883275 -3.342728 3.027875 0
M  V30 67 H 2.401920 -2.542370 2.253371 0
M  V30 END ATOM
M  V30 BEGIN BOND
M  V30 1 1 1 2
M  V30 2 1 2 3
M  V30 3 1 3 4
M  V30 4 2 4 5
M  V30 5 1 5 6
M  V30 6 1 6 7
M  V30 7 2 7 8
M  V30 8 1 8 9
M  V30 9 1 9 10
M  V30 10 2 9 11
M  V30 11 1 11 12
M  V30 12 1 12 13
M  V30 13 1 13 14
M  V30 14 1 14 15
M  V30 15 1 14 16
M  V30 16 1 16 17
M  V30 17 2 17 18
M  V30 18 1 18 19
M  V30 19 1 19 20
M  V30 20 2 19 21
M  V30 21 1 18 22
M  V30 22 1 22 23
M  V30 23 2 23 24
M  V30 24 1 24 25
M  V30 25 2 25 26
M  V30 26 1 26 27
M  V30 27 2 27 28
M  V30 28 1 11 29
M  V30 29 2 29 30
M  V30 30 1 30 31
M  V30 31 2 31 32
M  V30 32 1 32 33
M  V30 33 2 33 34
M  V30 34 1 34 35
M  V30 35 1 35 36
M  V30 36 2 36 37
M  V30 37 1 37 38
M  V30 38 1 37 39
M  V30 39 2 39 40
M  V30 40 2 6 2
M  V30 41 1 30 7
M  V30 42 1 40 31
M  V30 43 1 28 17
M  V30 44 1 39 34
M  V30 45 1 28 23
M  V30 46 1 1 41
M  V30 47 1 1 42
M  V30 48 1 1 43
M  V30 49 1 4 44
M  V30 50 1 5 45
M  V30 51 1 10 46
M  V30 52 1 10 47
M  V30 53 1 13 48
M  V30 54 1 13 49
M  V30 55 1 14 50 CFG=3
M  V30 56 1 15 51
M  V30 57 1 15 52
M  V30 58 1 16 53
M  V30 59 1 16 54
M  V30 60 1 20 55
M  V30 61 1 20 56
M  V30 62 1 22 57
M  V30 63 1 24 58
M  V30 64 1 25 59
M  V30 65 1 26 60
M  V30 66 1 27 61
M  V30 67 1 29 62
M  V30 68 1 32 63
M  V30 69 1 35 64
M  V30 70 1 38 65
M  V30 71 1 38 66
M  V30 72 1 38 67
M  V30 END BOND
M  V30 END CTAB
M  END
>  <Dataset>  (800) 
ChEMBL_Kinases

>  <Ligand_Instance>  (800) 
nan

>  <PDB_ID>  (800) 
nan

>  <Standardized_SMILES>  (800) 
Cc1occc1-c1nc(N)c(OC[C@@H](N)Cc2c(C(N)=O)[nH]c3ccccc23)cc1-c1cnc2[nH]nc(C)c2n1

>  <Name>  (800) 
nan

>  <Pocket>  (800) 
nan

>  <ATP_Site>  (800) 
nan

>  <Peripheral>  (800) 
nan

>  <Num_H_Atoms_ProtBoundConf>  (800) 
nan

>  <Num_Resolved_Atoms>  (800) 
nan

>  <Num_Not_Resolved_Atoms>  (800) 
nan

$$$$
CHEMBL603189
     RDKit          3D

  0  0  0  0  0  0  0  0  0  0999 V3000
M  V30 BEGIN CTAB
M  V30 COUNTS 28 29 0 0 0
M  V30 BEGIN ATOM
M  V30 1 C 0.462174 -3.773649 1.686065 0
M  V30 2 O 0.811394 -2.957608 2.775908 0
M  V30 3 C 0.603644 -1.604483 2.699678 0
M  V30 4 C 0.082109 -0.875749 1.678160 0
M  V30 5 C -0.090916 0.482803 1.688182 0
M  V30 6 C -0.655809 1.214901 0.564388 0
M  V30 7 C -0.351942 0.812384 -0.657541 0
M  V30 8 N 0.444133 -0.229900 -1.159591 0
M  V30 9 C 0.438113 -0.227460 -2.448394 0
M  V30 10 N 1.242700 -1.282184 -2.991157 0
M  V30 11 N -0.376307 0.834280 -2.972865 0
M  V30 12 C -0.891224 1.512162 -1.821898 0
M  V30 13 O -1.649218 2.501681 -1.993394 0
M  V30 14 C 0.312260 1.134961 2.857050 0
M  V30 15 C 0.853040 0.480647 3.947400 0
M  V30 16 C 0.988070 -0.896090 3.841061 0
M  V30 17 O 1.536434 -1.513295 4.961091 0
M  V30 18 H 1.340954 -3.921865 1.025956 0
M  V30 19 H 0.154945 -4.796096 2.053452 0
M  V30 20 H -0.379110 -3.417987 1.084441 0
M  V30 21 H -0.209535 -1.413214 0.811340 0
M  V30 22 H -1.311796 2.073479 0.754828 0
M  V30 23 H 0.660092 -1.926705 -3.591306 0
M  V30 24 H 2.272939 -1.368774 -2.794402 0
M  V30 25 H -0.440219 0.912290 -4.023984 0
M  V30 26 H 0.193323 2.224689 2.911883 0
M  V30 27 H 1.149139 1.033594 4.829203 0
M  V30 28 H 1.016217 -2.265799 5.387054 0
M  V30 END ATOM
M  V30 BEGIN BOND
M  V30 1 1 1 2
M  V30 2 1 2 3
M  V30 3 2 3 4
M  V30 4 1 4 5
M  V30 5 1 5 6
M  V30 6 2 6 7
M  V30 7 1 7 8
M  V30 8 2 8 9
M  V30 9 1 9 10
M  V30 10 1 9 11
M  V30 11 1 11 12
M  V30 12 2 12 13
M  V30 13 2 5 14
M  V30 14 1 14 15
M  V30 15 2 15 16
M  V30 16 1 16 17
M  V30 17 1 16 3
M  V30 18 1 12 7
M  V30 19 1 1 18
M  V30 20 1 1 19
M  V30 21 1 1 20
M  V30 22 1 4 21
M  V30 23 1 6 22
M  V30 24 1 10 23
M  V30 25 1 10 24
M  V30 26 1 11 25
M  V30 27 1 14 26
M  V30 28 1 15 27
M  V30 29 1 17 28
M  V30 END BOND
M  V30 END CTAB
M  END
>  <Dataset>  (801) 
ChEMBL_Kinases

>  <Ligand_Instance>  (801) 
nan

>  <PDB_ID>  (801) 
nan

>  <Standardized_SMILES>  (801) 
COc1cc(/C=C2\N=C(N)NC2=O)ccc1O

>  <Name>  (801) 
POLYANDROCARPAMINE A

>  <Pocket>  (801) 
nan

>  <ATP_Site>  (801) 
nan

>  <Peripheral>  (801) 
nan

>  <Num_H_Atoms_ProtBoundConf>  (801) 
nan

>  <Num_Resolved_Atoms>  (801) 
nan

>  <Num_Not_Resolved_Atoms>  (801) 
nan

$$$$
CHEMBL4878046
     RDKit          3D

  0  0  0  0  0  0  0  0  0  0999 V3000
M  V30 BEGIN CTAB
M  V30 COUNTS 45 47 0 0 0
M  V30 BEGIN ATOM
M  V30 1 N 0.604046 -5.910852 1.859218 0
M  V30 2 C 0.083096 -4.818543 1.173268 0
M  V30 3 O -0.946317 -4.876429 0.481508 0
M  V30 4 C 0.836456 -3.588489 1.323536 0
M  V30 5 C 1.990273 -3.449465 2.059955 0
M  V30 6 N 2.628188 -2.265730 2.134864 0
M  V30 7 C 2.159100 -1.156004 1.487841 0
M  V30 8 N 2.857310 0.078331 1.570216 0
M  V30 9 C 2.475504 1.320220 0.993071 0 CFG=1
M  V30 10 C 2.228870 1.317801 -0.486899 0
M  V30 11 C 1.535053 2.614200 -0.859970 0
M  V30 12 C 1.700419 3.694856 0.186110 0 CFG=2
M  V30 13 O 2.982368 4.195279 0.264132 0
M  V30 14 C 1.167041 3.287352 1.535964 0
M  V30 15 C 1.194648 1.779013 1.672052 0
M  V30 16 N 1.021069 -1.292537 0.761776 0
M  V30 17 C 0.375727 -2.471605 0.679032 0
M  V30 18 N -0.802847 -2.472514 -0.106864 0
M  V30 19 C -2.077842 -1.940353 0.199536 0
M  V30 20 C -2.281848 -1.364138 1.432548 0
M  V30 21 C -3.537198 -0.854449 1.627877 0
M  V30 22 C -4.535341 -0.907921 0.666794 0
M  V30 23 C -4.271465 -1.505164 -0.566071 0
M  V30 24 C -3.035211 -2.025132 -0.801884 0
M  V30 25 H 1.209921 -6.601358 2.296307 0
M  V30 26 H 0.046517 -6.671628 2.336726 0
M  V30 27 H 2.380235 -4.319515 2.581553 0
M  V30 28 H 3.763054 0.043949 2.129693 0
M  V30 29 H 3.281714 2.092216 1.213723 0
M  V30 30 H 1.507248 0.498261 -0.711919 0
M  V30 31 H 3.116206 1.181184 -1.104400 0
M  V30 32 H 1.932218 3.021623 -1.811381 0
M  V30 33 H 0.432111 2.479616 -1.006000 0
M  V30 34 H 1.052955 4.545103 -0.150162 0
M  V30 35 H 3.474052 4.041325 -0.579564 0
M  V30 36 H 0.154233 3.655336 1.745022 0
M  V30 37 H 1.868086 3.697088 2.290555 0
M  V30 38 H 0.351182 1.361204 1.062987 0
M  V30 39 H 1.136580 1.456649 2.711161 0
M  V30 40 H -0.572164 -2.959256 -1.004342 0
M  V30 41 H -1.499740 -1.321124 2.186945 0
M  V30 42 H -3.785764 -0.381653 2.569641 0
M  V30 43 H -5.533901 -0.519357 0.780197 0
M  V30 44 H -5.035018 -1.565633 -1.350422 0
M  V30 45 H -2.801994 -2.494761 -1.753785 0
M  V30 END ATOM
M  V30 BEGIN BOND
M  V30 1 1 1 2
M  V30 2 2 2 3
M  V30 3 1 2 4
M  V30 4 2 4 5
M  V30 5 1 5 6
M  V30 6 2 6 7
M  V30 7 1 7 8
M  V30 8 1 8 9
M  V30 9 1 9 10
M  V30 10 1 10 11
M  V30 11 1 11 12
M  V30 12 1 12 13
M  V30 13 1 12 14
M  V30 14 1 14 15
M  V30 15 1 7 16
M  V30 16 2 16 17
M  V30 17 1 17 18
M  V30 18 1 18 19
M  V30 19 2 19 20
M  V30 20 1 20 21
M  V30 21 2 21 22
M  V30 22 1 22 23
M  V30 23 2 23 24
M  V30 24 1 17 4
M  V30 25 1 24 19
M  V30 26 1 15 9
M  V30 27 1 1 25
M  V30 28 1 1 26
M  V30 29 1 5 27
M  V30 30 1 8 28
M  V30 31 1 9 29 CFG=3
M  V30 32 1 10 30
M  V30 33 1 10 31
M  V30 34 1 11 32
M  V30 35 1 11 33
M  V30 36 1 12 34 CFG=3
M  V30 37 1 13 35
M  V30 38 1 14 36
M  V30 39 1 14 37
M  V30 40 1 15 38
M  V30 41 1 15 39
M  V30 42 1 18 40
M  V30 43 1 20 41
M  V30 44 1 21 42
M  V30 45 1 22 43
M  V30 46 1 23 44
M  V30 47 1 24 45
M  V30 END BOND
M  V30 END CTAB
M  END
>  <Dataset>  (802) 
ChEMBL_Kinases

>  <Ligand_Instance>  (802) 
nan

>  <PDB_ID>  (802) 
nan

>  <Standardized_SMILES>  (802) 
NC(=O)c1cnc(N[C@H]2CC[C@H](O)CC2)nc1Nc1ccccc1

>  <Name>  (802) 
nan

>  <Pocket>  (802) 
nan

>  <ATP_Site>  (802) 
nan

>  <Peripheral>  (802) 
nan

>  <Num_H_Atoms_ProtBoundConf>  (802) 
nan

>  <Num_Resolved_Atoms>  (802) 
nan

>  <Num_Not_Resolved_Atoms>  (802) 
nan

$$$$
CHEMBL4878072
     RDKit          3D

  0  0  0  0  0  0  0  0  0  0999 V3000
M  V30 BEGIN CTAB
M  V30 COUNTS 61 65 0 0 0
M  V30 BEGIN ATOM
M  V30 1 C 4.899913 -3.972793 3.773417 0
M  V30 2 N 4.653831 -2.592234 3.496394 0
M  V30 3 C 5.780009 -1.910066 2.955603 0
M  V30 4 C 5.648730 -1.491321 1.514811 0
M  V30 5 N 4.399839 -0.764089 1.381453 0
M  V30 6 C 4.374698 0.064112 0.197088 0
M  V30 7 O 5.483969 -0.073203 -0.423109 0
M  V30 8 C 3.127723 0.809862 0.035562 0
M  V30 9 C 2.857450 2.105538 0.426907 0
M  V30 10 C 1.607258 2.640584 0.186027 0
M  V30 11 C 0.646164 1.872214 -0.442530 0
M  V30 12 C -0.578105 2.471114 -0.649083 0
M  V30 13 C -1.596736 1.779357 -1.268166 0
M  V30 14 C -2.986928 2.290422 -1.556599 0
M  V30 15 C -3.885788 1.957162 -0.381081 0
M  V30 16 N -3.993857 0.557857 -0.104032 0
M  V30 17 C -4.627565 -0.435930 -0.878350 0
M  V30 18 C -5.294398 -0.184513 -2.054237 0
M  V30 19 C -5.938972 -1.112433 -2.835954 0
M  V30 20 N -5.924557 -2.399824 -2.421307 0
M  V30 21 C -5.285381 -2.726051 -1.267218 0
M  V30 22 C -5.291700 -4.045896 -0.876979 0
M  V30 23 C -4.663774 -4.478572 0.289693 0
M  V30 24 C -4.014966 -3.513977 1.067022 0
M  V30 25 C -3.357219 -3.931541 2.278379 0
M  V30 26 N -2.824568 -4.283720 3.247506 0
M  V30 27 C -4.040279 -2.210839 0.629653 0
M  V30 28 C -4.652510 -1.763909 -0.515465 0
M  V30 29 C -1.317978 0.468022 -1.662899 0
M  V30 30 C -0.101459 -0.149559 -1.466002 0
M  V30 31 C 0.899598 0.566315 -0.843804 0
M  V30 32 C 2.156466 0.055594 -0.591442 0
M  V30 33 C 3.345946 -0.912058 2.373840 0
M  V30 34 C 3.387508 -2.298038 2.918113 0
M  V30 35 H 4.858362 -4.548924 2.823825 0
M  V30 36 H 4.084416 -4.327972 4.443316 0
M  V30 37 H 5.884455 -4.055056 4.270541 0
M  V30 38 H 6.140726 -1.077397 3.602393 0
M  V30 39 H 6.631331 -2.648422 2.971364 0
M  V30 40 H 5.738015 -2.330147 0.811115 0
M  V30 41 H 6.479529 -0.742728 1.350717 0
M  V30 42 H 3.686046 2.603624 0.906725 0
M  V30 43 H 1.430801 3.658279 0.506207 0
M  V30 44 H -0.859240 3.477837 -0.370183 0
M  V30 45 H -3.291520 1.867257 -2.512017 0
M  V30 46 H -2.967969 3.388910 -1.649065 0
M  V30 47 H -4.900463 2.311083 -0.677579 0
M  V30 48 H -3.533763 2.572050 0.459108 0
M  V30 49 H -3.522055 0.332410 0.792708 0
M  V30 50 H -5.368755 0.807381 -2.456834 0
M  V30 51 H -6.454829 -0.890308 -3.753076 0
M  V30 52 H -5.782014 -4.814542 -1.452656 0
M  V30 53 H -4.663649 -5.515825 0.603939 0
M  V30 54 H -3.517036 -1.546609 1.289777 0
M  V30 55 H -2.042922 -0.178448 -2.162406 0
M  V30 56 H 0.111872 -1.157012 -1.768790 0
M  V30 57 H 2.264795 -0.972055 -0.939024 0
M  V30 58 H 3.537594 -0.173561 3.196365 0
M  V30 59 H 2.359046 -0.625567 1.959593 0
M  V30 60 H 2.532265 -2.470838 3.601357 0
M  V30 61 H 3.244781 -2.991626 2.054799 0
M  V30 END ATOM
M  V30 BEGIN BOND
M  V30 1 1 1 2
M  V30 2 1 2 3
M  V30 3 1 3 4
M  V30 4 1 4 5
M  V30 5 1 5 6
M  V30 6 2 6 7
M  V30 7 1 6 8
M  V30 8 2 8 9
M  V30 9 1 9 10
M  V30 10 2 10 11
M  V30 11 1 11 12
M  V30 12 2 12 13
M  V30 13 1 13 14
M  V30 14 1 14 15
M  V30 15 1 15 16
M  V30 16 1 16 17
M  V30 17 2 17 18
M  V30 18 1 18 19
M  V30 19 2 19 20
M  V30 20 1 20 21
M  V30 21 2 21 22
M  V30 22 1 22 23
M  V30 23 2 23 24
M  V30 24 1 24 25
M  V30 25 3 25 26
M  V30 26 1 24 27
M  V30 27 2 27 28
M  V30 28 1 13 29
M  V30 29 2 29 30
M  V30 30 1 30 31
M  V30 31 2 31 32
M  V30 32 1 5 33
M  V30 33 1 33 34
M  V30 34 1 34 2
M  V30 35 1 32 8
M  V30 36 1 31 11
M  V30 37 1 28 17
M  V30 38 1 28 21
M  V30 39 1 1 35
M  V30 40 1 1 36
M  V30 41 1 1 37
M  V30 42 1 3 38
M  V30 43 1 3 39
M  V30 44 1 4 40
M  V30 45 1 4 41
M  V30 46 1 9 42
M  V30 47 1 10 43
M  V30 48 1 12 44
M  V30 49 1 14 45
M  V30 50 1 14 46
M  V30 51 1 15 47
M  V30 52 1 15 48
M  V30 53 1 16 49
M  V30 54 1 18 50
M  V30 55 1 19 51
M  V30 56 1 22 52
M  V30 57 1 23 53
M  V30 58 1 27 54
M  V30 59 1 29 55
M  V30 60 1 30 56
M  V30 61 1 32 57
M  V30 62 1 33 58
M  V30 63 1 33 59
M  V30 64 1 34 60
M  V30 65 1 34 61
M  V30 END BOND
M  V30 END CTAB
M  END
>  <Dataset>  (803) 
ChEMBL_Kinases

>  <Ligand_Instance>  (803) 
nan

>  <PDB_ID>  (803) 
nan

>  <Standardized_SMILES>  (803) 
CN1CCN(C(=O)c2ccc3cc(CCNc4ccnc5ccc(C#N)cc45)ccc3c2)CC1

>  <Name>  (803) 
nan

>  <Pocket>  (803) 
nan

>  <ATP_Site>  (803) 
nan

>  <Peripheral>  (803) 
nan

>  <Num_H_Atoms_ProtBoundConf>  (803) 
nan

>  <Num_Resolved_Atoms>  (803) 
nan

>  <Num_Not_Resolved_Atoms>  (803) 
nan

$$$$
CHEMBL4878274
     RDKit          3D

  0  0  0  0  0  0  0  0  0  0999 V3000
M  V30 BEGIN CTAB
M  V30 COUNTS 61 64 0 0 0
M  V30 BEGIN ATOM
M  V30 1 C 4.851510 -3.653875 1.720727 0
M  V30 2 C 3.428731 -3.373073 2.082737 0
M  V30 3 N 3.236304 -2.559675 3.140749 0
M  V30 4 C 2.000428 -2.230588 3.571126 0
M  V30 5 N 1.634290 -1.354156 4.659201 0
M  V30 6 C 1.030520 -0.027853 4.357838 0
M  V30 7 N 0.650529 0.922954 4.905593 0
M  V30 8 C 0.116157 1.993449 4.365126 0
M  V30 9 C -0.033929 2.043229 2.978401 0
M  V30 10 C -0.602297 3.104136 2.128766 0
M  V30 11 O -1.054259 4.188303 2.530689 0
M  V30 12 N -0.561301 2.710497 0.776136 0
M  V30 13 C -0.917671 3.208631 -0.492013 0
M  V30 14 C -0.043447 3.945659 -1.267656 0
M  V30 15 C 1.319367 4.220286 -0.745387 0
M  V30 16 C -0.377975 4.446757 -2.528832 0
M  V30 17 C -1.661389 4.166715 -2.986071 0
M  V30 18 N -2.552218 3.442071 -2.248275 0
M  V30 19 C -2.180044 2.972589 -1.020569 0
M  V30 20 C -3.191437 2.193099 -0.276664 0
M  V30 21 S 0.697911 0.342158 2.554167 0
M  V30 22 C 0.959612 -2.798808 2.834477 0
M  V30 23 C 1.124465 -3.640983 1.737270 0
M  V30 24 N -0.001920 -4.176093 1.014900 0
M  V30 25 C 0.329665 -5.078988 -0.063286 0
M  V30 26 C -0.805035 -5.336173 -0.986540 0
M  V30 27 N -1.781935 -4.332051 -0.967543 0
M  V30 28 C -1.980651 -3.520217 -2.100909 0
M  V30 29 C -0.838373 -2.577206 -2.434791 0
M  V30 30 O -1.210016 -1.858122 -3.568376 0
M  V30 31 C -2.330879 -3.951225 0.265124 0
M  V30 32 C -1.342484 -3.791583 1.389046 0
M  V30 33 N 2.398612 -3.898556 1.400704 0
M  V30 34 H 5.209260 -2.925706 0.958799 0
M  V30 35 H 5.479501 -3.640904 2.641873 0
M  V30 36 H 4.857998 -4.660796 1.229525 0
M  V30 37 H 1.713246 -1.473824 5.666697 0
M  V30 38 H -0.234242 2.880671 4.916581 0
M  V30 39 H -0.184290 1.800124 0.377576 0
M  V30 40 H 2.013885 3.541250 -1.288370 0
M  V30 41 H 1.370146 3.977647 0.321744 0
M  V30 42 H 1.634767 5.268103 -0.966866 0
M  V30 43 H 0.299591 5.024775 -3.142028 0
M  V30 44 H -1.932455 4.548274 -3.958745 0
M  V30 45 H -3.255235 1.147294 -0.695345 0
M  V30 46 H -2.968128 2.082716 0.787107 0
M  V30 47 H -4.208859 2.620386 -0.448342 0
M  V30 48 H -0.036546 -2.554387 3.158451 0
M  V30 49 H 0.768335 -6.030337 0.327515 0
M  V30 50 H 1.147086 -4.570411 -0.644117 0
M  V30 51 H -1.295215 -6.301835 -0.656881 0
M  V30 52 H -0.436232 -5.477205 -2.026750 0
M  V30 53 H -2.841116 -2.827618 -1.857882 0
M  V30 54 H -2.302986 -4.059146 -2.990763 0
M  V30 55 H 0.082122 -3.133144 -2.703849 0
M  V30 56 H -0.652531 -1.847506 -1.624973 0
M  V30 57 H -0.582883 -1.997823 -4.324529 0
M  V30 58 H -3.084450 -4.698183 0.587223 0
M  V30 59 H -2.928579 -3.016024 0.102789 0
M  V30 60 H -1.355579 -2.717512 1.665083 0
M  V30 61 H -1.615264 -4.360806 2.298044 0
M  V30 END ATOM
M  V30 BEGIN BOND
M  V30 1 1 1 2
M  V30 2 2 2 3
M  V30 3 1 3 4
M  V30 4 1 4 5
M  V30 5 1 5 6
M  V30 6 2 6 7
M  V30 7 1 7 8
M  V30 8 2 8 9
M  V30 9 1 9 10
M  V30 10 2 10 11
M  V30 11 1 10 12
M  V30 12 1 12 13
M  V30 13 2 13 14
M  V30 14 1 14 15
M  V30 15 1 14 16
M  V30 16 2 16 17
M  V30 17 1 17 18
M  V30 18 2 18 19
M  V30 19 1 19 20
M  V30 20 1 9 21
M  V30 21 2 4 22
M  V30 22 1 22 23
M  V30 23 1 23 24
M  V30 24 1 24 25
M  V30 25 1 25 26
M  V30 26 1 26 27
M  V30 27 1 27 28
M  V30 28 1 28 29
M  V30 29 1 29 30
M  V30 30 1 27 31
M  V30 31 1 31 32
M  V30 32 2 23 33
M  V30 33 1 33 2
M  V30 34 1 21 6
M  V30 35 1 32 24
M  V30 36 1 19 13
M  V30 37 1 1 34
M  V30 38 1 1 35
M  V30 39 1 1 36
M  V30 40 1 5 37
M  V30 41 1 8 38
M  V30 42 1 12 39
M  V30 43 1 15 40
M  V30 44 1 15 41
M  V30 45 1 15 42
M  V30 46 1 16 43
M  V30 47 1 17 44
M  V30 48 1 20 45
M  V30 49 1 20 46
M  V30 50 1 20 47
M  V30 51 1 22 48
M  V30 52 1 25 49
M  V30 53 1 25 50
M  V30 54 1 26 51
M  V30 55 1 26 52
M  V30 56 1 28 53
M  V30 57 1 28 54
M  V30 58 1 29 55
M  V30 59 1 29 56
M  V30 60 1 30 57
M  V30 61 1 31 58
M  V30 62 1 31 59
M  V30 63 1 32 60
M  V30 64 1 32 61
M  V30 END BOND
M  V30 END CTAB
M  END
>  <Dataset>  (804) 
ChEMBL_Kinases

>  <Ligand_Instance>  (804) 
nan

>  <PDB_ID>  (804) 
nan

>  <Standardized_SMILES>  (804) 
Cc1nc(Nc2ncc(C(=O)Nc3c(C)ccnc3C)s2)cc(N2CCN(CCO)CC2)n1

>  <Name>  (804) 
nan

>  <Pocket>  (804) 
nan

>  <ATP_Site>  (804) 
nan

>  <Peripheral>  (804) 
nan

>  <Num_H_Atoms_ProtBoundConf>  (804) 
nan

>  <Num_Resolved_Atoms>  (804) 
nan

>  <Num_Not_Resolved_Atoms>  (804) 
nan

$$$$
CHEMBL3893023
     RDKit          3D

  0  0  0  0  0  0  0  0  0  0999 V3000
M  V30 BEGIN CTAB
M  V30 COUNTS 41 44 0 0 0
M  V30 BEGIN ATOM
M  V30 1 N 1.011597 -4.429495 3.745657 0
M  V30 2 C 1.226959 -3.101202 3.282182 0
M  V30 3 O 1.298781 -2.268188 4.208425 0
M  V30 4 C 1.333924 -2.877058 1.844764 0
M  V30 5 C 1.231195 -3.914738 0.942080 0
M  V30 6 C 1.342070 -3.630650 -0.403353 0
M  V30 7 C 1.550178 -2.331293 -0.804100 0
M  V30 8 C 1.658301 -1.258448 0.090440 0
M  V30 9 C 1.899129 0.001546 -0.563409 0
M  V30 10 C 2.967594 0.177581 -1.453618 0
M  V30 11 N 2.942973 1.472053 -1.861692 0
M  V30 12 C 1.931948 2.170702 -1.305657 0
M  V30 13 N 1.445395 3.406086 -1.333885 0
M  V30 14 C 0.348433 3.725632 -0.586848 0
M  V30 15 N -0.275051 2.805040 0.199297 0
M  V30 16 C 0.206302 1.527424 0.245104 0
M  V30 17 N -0.604853 0.720735 1.086029 0
M  V30 18 C -1.380970 -0.324716 0.396391 0
M  V30 19 C -2.827676 0.111218 0.533391 0
M  V30 20 O -2.989608 1.058533 1.534469 0
M  V30 21 C -2.341824 0.781604 2.710383 0
M  V30 22 C -0.838760 0.723163 2.519883 0
M  V30 23 C 1.312981 1.236409 -0.516537 0
M  V30 24 C 1.542411 -1.573406 1.450079 0
M  V30 25 H 0.109229 -4.983958 3.738015 0
M  V30 26 H 1.711331 -5.096255 4.178225 0
M  V30 27 H 1.066490 -4.920183 1.321509 0
M  V30 28 H 1.257796 -4.459736 -1.081200 0
M  V30 29 H 1.621228 -2.228672 -1.886257 0
M  V30 30 H 3.689693 -0.556712 -1.773613 0
M  V30 31 H 3.637907 1.898192 -2.543022 0
M  V30 32 H 0.002152 4.753342 -0.655030 0
M  V30 33 H -1.277972 -1.244388 0.981020 0
M  V30 34 H -1.107304 -0.445048 -0.650129 0
M  V30 35 H -3.475797 -0.785386 0.663228 0
M  V30 36 H -3.136468 0.587526 -0.420530 0
M  V30 37 H -2.610086 1.611644 3.419257 0
M  V30 38 H -2.725199 -0.131473 3.196856 0
M  V30 39 H -0.355884 1.587695 3.015594 0
M  V30 40 H -0.486217 -0.195902 3.028481 0
M  V30 41 H 1.640511 -0.695268 2.063203 0
M  V30 END ATOM
M  V30 BEGIN BOND
M  V30 1 1 1 2
M  V30 2 2 2 3
M  V30 3 1 2 4
M  V30 4 2 4 5
M  V30 5 1 5 6
M  V30 6 2 6 7
M  V30 7 1 7 8
M  V30 8 1 8 9
M  V30 9 2 9 10
M  V30 10 1 10 11
M  V30 11 1 11 12
M  V30 12 2 12 13
M  V30 13 1 13 14
M  V30 14 2 14 15
M  V30 15 1 15 16
M  V30 16 1 16 17
M  V30 17 1 17 18
M  V30 18 1 18 19
M  V30 19 1 19 20
M  V30 20 1 20 21
M  V30 21 1 21 22
M  V30 22 2 16 23
M  V30 23 2 8 24
M  V30 24 1 24 4
M  V30 25 1 23 9
M  V30 26 1 23 12
M  V30 27 1 22 17
M  V30 28 1 1 25
M  V30 29 1 1 26
M  V30 30 1 5 27
M  V30 31 1 6 28
M  V30 32 1 7 29
M  V30 33 1 10 30
M  V30 34 1 11 31
M  V30 35 1 14 32
M  V30 36 1 18 33
M  V30 37 1 18 34
M  V30 38 1 19 35
M  V30 39 1 19 36
M  V30 40 1 21 37
M  V30 41 1 21 38
M  V30 42 1 22 39
M  V30 43 1 22 40
M  V30 44 1 24 41
M  V30 END BOND
M  V30 END CTAB
M  END
>  <Dataset>  (805) 
ChEMBL_Kinases

>  <Ligand_Instance>  (805) 
nan

>  <PDB_ID>  (805) 
nan

>  <Standardized_SMILES>  (805) 
NC(=O)c1cccc(-c2c[nH]c3ncnc(N4CCOCC4)c23)c1

>  <Name>  (805) 
nan

>  <Pocket>  (805) 
nan

>  <ATP_Site>  (805) 
nan

>  <Peripheral>  (805) 
nan

>  <Num_H_Atoms_ProtBoundConf>  (805) 
nan

>  <Num_Resolved_Atoms>  (805) 
nan

>  <Num_Not_Resolved_Atoms>  (805) 
nan

$$$$
CHEMBL4879188
     RDKit          3D

  0  0  0  0  0  0  0  0  0  0999 V3000
M  V30 BEGIN CTAB
M  V30 COUNTS 44 47 0 0 0
M  V30 BEGIN ATOM
M  V30 1 O 2.776932 -0.981958 -2.490069 0
M  V30 2 C 2.464465 0.113815 -2.966432 0
M  V30 3 N 2.643499 0.371540 -4.345032 0
M  V30 4 C 3.171422 -0.500220 -5.346163 0
M  V30 5 C 4.594651 -0.933420 -5.100169 0
M  V30 6 F 4.766823 -1.617905 -3.923956 0
M  V30 7 F 5.050334 -1.691275 -6.167291 0
M  V30 8 C 1.901453 1.150974 -2.076831 0
M  V30 9 C 1.678698 1.045015 -0.761827 0
M  V30 10 C 1.147818 2.119734 -0.103305 0
M  V30 11 N 0.834457 2.213972 1.292812 0
M  V30 12 N 1.288015 3.045617 2.219664 0
M  V30 13 C 0.698011 2.751380 3.412115 0
M  V30 14 C -0.161325 1.672341 3.168261 0
M  V30 15 C -0.991526 0.993840 4.040871 0
M  V30 16 C -1.755743 -0.052372 3.560297 0
M  V30 17 N -2.665060 -0.870477 4.287846 0
M  V30 18 C -2.291867 -2.242738 4.248015 0
M  V30 19 C -3.125934 -3.204664 3.717222 0
M  V30 20 C -2.851746 -4.554752 3.635356 0
M  V30 21 C -1.627775 -4.963789 4.134178 0
M  V30 22 C -0.762269 -4.038925 4.673697 0
M  V30 23 C -1.066295 -2.701087 4.739986 0
M  V30 24 Cl 0.060068 -1.555098 5.433253 0
M  V30 25 C -1.668452 -0.395765 2.205739 0
M  V30 26 F -2.374620 -1.401274 1.643640 0
M  V30 27 C -0.829983 0.297674 1.349344 0
M  V30 28 C -0.060451 1.349682 1.828755 0
M  V30 29 C 0.868717 3.275231 -0.858418 0
M  V30 30 S 1.406292 2.762694 -2.599058 0
M  V30 31 H 2.335774 1.348051 -4.639426 0
M  V30 32 H 3.113153 0.014109 -6.331828 0
M  V30 33 H 2.554119 -1.436334 -5.455371 0
M  V30 34 H 5.206274 -0.000884 -5.001502 0
M  V30 35 H 1.904340 0.142368 -0.210148 0
M  V30 36 H 0.848350 3.239635 4.366642 0
M  V30 37 H -1.107225 1.199055 5.075265 0
M  V30 38 H -3.477522 -0.455120 4.764227 0
M  V30 39 H -4.087499 -2.885466 3.325010 0
M  V30 40 H -3.564049 -5.242655 3.202607 0
M  V30 41 H -1.355242 -6.024898 4.096010 0
M  V30 42 H 0.212979 -4.323110 5.077577 0
M  V30 43 H -0.751919 0.049114 0.316204 0
M  V30 44 H 0.447744 4.247526 -0.560180 0
M  V30 END ATOM
M  V30 BEGIN BOND
M  V30 1 2 1 2
M  V30 2 1 2 3
M  V30 3 1 3 4
M  V30 4 1 4 5
M  V30 5 1 5 6
M  V30 6 1 5 7
M  V30 7 1 2 8
M  V30 8 2 8 9
M  V30 9 1 9 10
M  V30 10 1 10 11
M  V30 11 1 11 12
M  V30 12 2 12 13
M  V30 13 1 13 14
M  V30 14 2 14 15
M  V30 15 1 15 16
M  V30 16 1 16 17
M  V30 17 1 17 18
M  V30 18 2 18 19
M  V30 19 1 19 20
M  V30 20 2 20 21
M  V30 21 1 21 22
M  V30 22 2 22 23
M  V30 23 1 23 24
M  V30 24 2 16 25
M  V30 25 1 25 26
M  V30 26 1 25 27
M  V30 27 2 27 28
M  V30 28 2 10 29
M  V30 29 1 29 30
M  V30 30 1 30 8
M  V30 31 1 28 11
M  V30 32 1 28 14
M  V30 33 1 23 18
M  V30 34 1 3 31
M  V30 35 1 4 32
M  V30 36 1 4 33
M  V30 37 1 5 34
M  V30 38 1 9 35
M  V30 39 1 13 36
M  V30 40 1 15 37
M  V30 41 1 17 38
M  V30 42 1 19 39
M  V30 43 1 20 40
M  V30 44 1 21 41
M  V30 45 1 22 42
M  V30 46 1 27 43
M  V30 47 1 29 44
M  V30 END BOND
M  V30 END CTAB
M  END
>  <Dataset>  (806) 
ChEMBL_Kinases

>  <Ligand_Instance>  (806) 
nan

>  <PDB_ID>  (806) 
nan

>  <Standardized_SMILES>  (806) 
O=C(NCC(F)F)c1cc(-n2ncc3cc(Nc4ccccc4Cl)c(F)cc32)cs1

>  <Name>  (806) 
nan

>  <Pocket>  (806) 
nan

>  <ATP_Site>  (806) 
nan

>  <Peripheral>  (806) 
nan

>  <Num_H_Atoms_ProtBoundConf>  (806) 
nan

>  <Num_Resolved_Atoms>  (806) 
nan

>  <Num_Not_Resolved_Atoms>  (806) 
nan

$$$$
CHEMBL598797
     RDKit          3D

  0  0  0  0  0  0  0  0  0  0999 V3000
M  V30 BEGIN CTAB
M  V30 COUNTS 58 60 0 0 0
M  V30 BEGIN ATOM
M  V30 1 C 5.400866 -2.110398 1.778897 0
M  V30 2 C 4.631749 -2.055961 0.857411 0
M  V30 3 C 3.720590 -1.973453 -0.246543 0
M  V30 4 C 3.310662 -3.102040 -0.932493 0
M  V30 5 C 2.434287 -3.001473 -1.991700 0
M  V30 6 C 1.929391 -1.789674 -2.414896 0
M  V30 7 C 2.323624 -0.626298 -1.742042 0
M  V30 8 N 1.851336 0.689310 -2.092589 0
M  V30 9 C 2.189931 1.869071 -1.379811 0
M  V30 10 N 3.172529 2.754644 -1.687811 0
M  V30 11 C 3.373731 3.831995 -0.899977 0
M  V30 12 N 2.638574 4.102833 0.216791 0
M  V30 13 C 1.647932 3.264321 0.579103 0
M  V30 14 C 0.859723 3.455288 1.697955 0
M  V30 15 C -0.139443 2.537876 2.011071 0
M  V30 16 O -0.853769 2.850624 3.157442 0
M  V30 17 C -0.589828 3.999956 3.931024 0
M  V30 18 C -0.392704 1.401469 1.228503 0
M  V30 19 O -1.404650 0.674971 1.733280 0
M  V30 20 C -1.979692 -0.516204 1.198600 0
M  V30 21 C -2.655184 -0.314109 -0.100556 0
M  V30 22 C -3.208535 -1.447462 -0.852252 0
M  V30 23 C -4.240493 -2.341159 -0.305268 0
M  V30 24 C -3.920151 -3.196520 0.867188 0
M  V30 25 C -2.744640 -4.115661 0.583924 0
M  V30 26 C -2.450666 -4.941633 1.756646 0
M  V30 27 O -2.743770 -5.239769 2.951868 0
M  V30 28 N -1.342076 -5.796786 1.413951 0
M  V30 29 O -0.682390 -6.739496 2.125069 0
M  V30 30 C 0.444008 1.304172 0.141782 0
M  V30 31 C 1.448325 2.166204 -0.230274 0
M  V30 32 C 3.205148 -0.745219 -0.679916 0
M  V30 33 H 6.099777 -2.148567 2.591252 0
M  V30 34 H 3.655228 -4.073688 -0.666787 0
M  V30 35 H 2.053533 -3.821744 -2.590494 0
M  V30 36 H 1.239146 -1.605352 -3.231520 0
M  V30 37 H 1.224988 0.841374 -2.907409 0
M  V30 38 H 4.169244 4.540170 -1.155884 0
M  V30 39 H 1.068616 4.327468 2.281846 0
M  V30 40 H -0.665000 4.874987 3.225710 0
M  V30 41 H -1.348209 4.156394 4.720318 0
M  V30 42 H 0.438521 4.017467 4.334289 0
M  V30 43 H -1.255615 -1.338253 1.241573 0
M  V30 44 H -2.794695 -0.738462 1.968806 0
M  V30 45 H -1.979012 0.266465 -0.799108 0
M  V30 46 H -3.489933 0.473933 0.063146 0
M  V30 47 H -2.340675 -2.135784 -1.185780 0
M  V30 48 H -3.556733 -1.004601 -1.861319 0
M  V30 49 H -5.217075 -1.781966 -0.143858 0
M  V30 50 H -4.535962 -3.060821 -1.145092 0
M  V30 51 H -3.752426 -2.646399 1.779101 0
M  V30 52 H -4.781363 -3.940618 1.047472 0
M  V30 53 H -3.023103 -4.787287 -0.264620 0
M  V30 54 H -1.838615 -3.543081 0.307227 0
M  V30 55 H -0.758125 -5.922200 0.546929 0
M  V30 56 H 0.088544 -6.378904 2.630654 0
M  V30 57 H 0.263702 0.421561 -0.449522 0
M  V30 58 H 3.545432 0.120638 -0.124042 0
M  V30 END ATOM
M  V30 BEGIN BOND
M  V30 1 3 1 2
M  V30 2 1 2 3
M  V30 3 2 3 4
M  V30 4 1 4 5
M  V30 5 2 5 6
M  V30 6 1 6 7
M  V30 7 1 7 8
M  V30 8 1 8 9
M  V30 9 2 9 10
M  V30 10 1 10 11
M  V30 11 2 11 12
M  V30 12 1 12 13
M  V30 13 2 13 14
M  V30 14 1 14 15
M  V30 15 1 15 16
M  V30 16 1 16 17
M  V30 17 2 15 18
M  V30 18 1 18 19
M  V30 19 1 19 20
M  V30 20 1 20 21
M  V30 21 1 21 22
M  V30 22 1 22 23
M  V30 23 1 23 24
M  V30 24 1 24 25
M  V30 25 1 25 26
M  V30 26 2 26 27
M  V30 27 1 26 28
M  V30 28 1 28 29
M  V30 29 1 18 30
M  V30 30 2 30 31
M  V30 31 2 7 32
M  V30 32 1 32 3
M  V30 33 1 31 9
M  V30 34 1 31 13
M  V30 35 1 1 33
M  V30 36 1 4 34
M  V30 37 1 5 35
M  V30 38 1 6 36
M  V30 39 1 8 37
M  V30 40 1 11 38
M  V30 41 1 14 39
M  V30 42 1 17 40
M  V30 43 1 17 41
M  V30 44 1 17 42
M  V30 45 1 20 43
M  V30 46 1 20 44
M  V30 47 1 21 45
M  V30 48 1 21 46
M  V30 49 1 22 47
M  V30 50 1 22 48
M  V30 51 1 23 49
M  V30 52 1 23 50
M  V30 53 1 24 51
M  V30 54 1 24 52
M  V30 55 1 25 53
M  V30 56 1 25 54
M  V30 57 1 28 55
M  V30 58 1 29 56
M  V30 59 1 30 57
M  V30 60 1 32 58
M  V30 END BOND
M  V30 END CTAB
M  END
>  <Dataset>  (807) 
ChEMBL_Kinases

>  <Ligand_Instance>  (807) 
nan

>  <PDB_ID>  (807) 
nan

>  <Standardized_SMILES>  (807) 
C#Cc1cccc(Nc2ncnc3cc(OC)c(OCCCCCCC(=O)NO)cc23)c1

>  <Name>  (807) 
CUDC-101

>  <Pocket>  (807) 
nan

>  <ATP_Site>  (807) 
nan

>  <Peripheral>  (807) 
nan

>  <Num_H_Atoms_ProtBoundConf>  (807) 
nan

>  <Num_Resolved_Atoms>  (807) 
nan

>  <Num_Not_Resolved_Atoms>  (807) 
nan

$$$$
CHEMBL596583
     RDKit          3D

  0  0  0  0  0  0  0  0  0  0999 V3000
M  V30 BEGIN CTAB
M  V30 COUNTS 61 66 0 0 0
M  V30 BEGIN ATOM
M  V30 1 C 0.780854 -3.758368 2.567487 0
M  V30 2 C 2.101026 -3.944550 1.904508 0
M  V30 3 O 3.048323 -4.780378 2.223536 0
M  V30 4 C 4.078245 -4.674250 1.420879 0
M  V30 5 C 3.802542 -3.688772 0.487314 0
M  V30 6 C 2.539577 -3.232817 0.807882 0
M  V30 7 C 1.887976 -2.179873 0.049602 0
M  V30 8 N 1.536956 -2.277034 -1.256406 0
M  V30 9 C 0.925705 -1.220117 -1.872490 0
M  V30 10 C 0.631811 -0.011332 -1.221612 0
M  V30 11 O 0.031950 0.811572 -2.116486 0
M  V30 12 C -0.455837 2.093932 -2.003377 0
M  V30 13 C -1.543109 2.346694 -1.026411 0 CFG=1
M  V30 14 N -1.853777 3.816449 -1.051056 0
M  V30 15 C -2.872662 1.726607 -1.365199 0
M  V30 16 C -2.906219 0.268706 -1.510207 0
M  V30 17 C -3.245246 -0.542134 -0.419159 0
M  V30 18 N -3.185586 -1.844209 -0.745116 0
M  V30 19 C -2.816350 -1.936856 -2.027039 0
M  V30 20 C -2.622076 -3.024132 -2.849145 0
M  V30 21 C -2.249401 -2.790476 -4.169533 0
M  V30 22 C -2.080032 -1.486777 -4.636810 0
M  V30 23 C -2.275597 -0.404597 -3.807618 0
M  V30 24 C -2.645164 -0.652937 -2.497658 0
M  V30 25 C 0.998258 0.065447 0.107097 0
M  V30 26 C 1.613934 -1.009071 0.714925 0
M  V30 27 C 1.927859 -0.746071 2.127628 0
M  V30 28 C 3.233389 -0.744420 2.606948 0
M  V30 29 N 3.470354 -0.498498 3.908098 0
M  V30 30 C 2.483990 -0.250553 4.777878 0
M  V30 31 N 2.407561 0.021664 6.095617 0
M  V30 32 N 1.152809 0.187073 6.459783 0
M  V30 33 C 0.350433 0.031639 5.401712 0
M  V30 34 C -1.120306 0.109136 5.253248 0
M  V30 35 C 1.165225 -0.246191 4.323266 0
M  V30 36 N 0.961371 -0.495526 3.017076 0
M  V30 37 H 0.419181 -4.798808 2.816633 0
M  V30 38 H 0.021205 -3.340774 1.870903 0
M  V30 39 H 0.839292 -3.242295 3.532557 0
M  V30 40 H 4.935948 -5.319191 1.583107 0
M  V30 41 H 4.493047 -3.414048 -0.281279 0
M  V30 42 H 0.736504 -1.522585 -2.913859 0
M  V30 43 H -0.885322 2.363323 -3.019159 0
M  V30 44 H 0.350804 2.870746 -1.874770 0
M  V30 45 H -1.282643 2.180794 0.039821 0
M  V30 46 H -2.701272 3.897140 -0.420826 0
M  V30 47 H -2.216128 4.034323 -2.023409 0
M  V30 48 H -3.612371 2.081506 -0.602366 0
M  V30 49 H -3.214383 2.201044 -2.322535 0
M  V30 50 H -3.533296 -0.244117 0.598915 0
M  V30 51 H -3.382826 -2.670629 -0.140730 0
M  V30 52 H -2.757905 -4.026250 -2.468199 0
M  V30 53 H -2.101551 -3.650906 -4.799316 0
M  V30 54 H -1.789686 -1.313157 -5.668508 0
M  V30 55 H -2.151333 0.638631 -4.140706 0
M  V30 56 H 0.732955 1.028327 0.508433 0
M  V30 57 H 4.053234 -0.946754 1.903247 0
M  V30 58 H 3.227852 0.096119 6.759871 0
M  V30 59 H -1.409816 1.168493 5.112694 0
M  V30 60 H -1.507483 -0.560414 4.482206 0
M  V30 61 H -1.550606 -0.210110 6.223543 0
M  V30 END ATOM
M  V30 BEGIN BOND
M  V30 1 1 1 2
M  V30 2 1 2 3
M  V30 3 1 3 4
M  V30 4 2 4 5
M  V30 5 1 5 6
M  V30 6 1 6 7
M  V30 7 2 7 8
M  V30 8 1 8 9
M  V30 9 2 9 10
M  V30 10 1 10 11
M  V30 11 1 11 12
M  V30 12 1 12 13
M  V30 13 1 13 14
M  V30 14 1 13 15
M  V30 15 1 15 16
M  V30 16 2 16 17
M  V30 17 1 17 18
M  V30 18 1 18 19
M  V30 19 2 19 20
M  V30 20 1 20 21
M  V30 21 2 21 22
M  V30 22 1 22 23
M  V30 23 2 23 24
M  V30 24 1 10 25
M  V30 25 2 25 26
M  V30 26 1 26 27
M  V30 27 2 27 28
M  V30 28 1 28 29
M  V30 29 2 29 30
M  V30 30 1 30 31
M  V30 31 1 31 32
M  V30 32 2 32 33
M  V30 33 1 33 34
M  V30 34 1 33 35
M  V30 35 2 35 36
M  V30 36 2 6 2
M  V30 37 1 26 7
M  V30 38 1 36 27
M  V30 39 1 24 16
M  V30 40 1 35 30
M  V30 41 1 24 19
M  V30 42 1 1 37
M  V30 43 1 1 38
M  V30 44 1 1 39
M  V30 45 1 4 40
M  V30 46 1 5 41
M  V30 47 1 9 42
M  V30 48 1 12 43
M  V30 49 1 12 44
M  V30 50 1 13 45 CFG=1
M  V30 51 1 14 46
M  V30 52 1 14 47
M  V30 53 1 15 48
M  V30 54 1 15 49
M  V30 55 1 17 50
M  V30 56 1 18 51
M  V30 57 1 20 52
M  V30 58 1 21 53
M  V30 59 1 22 54
M  V30 60 1 23 55
M  V30 61 1 25 56
M  V30 62 1 28 57
M  V30 63 1 31 58
M  V30 64 1 34 59
M  V30 65 1 34 60
M  V30 66 1 34 61
M  V30 END BOND
M  V30 END CTAB
M  END
>  <Dataset>  (808) 
ChEMBL_Kinases

>  <Ligand_Instance>  (808) 
nan

>  <PDB_ID>  (808) 
nan

>  <Standardized_SMILES>  (808) 
Cc1occc1-c1ncc(OC[C@@H](N)Cc2c[nH]c3ccccc23)cc1-c1cnc2[nH]nc(C)c2n1

>  <Name>  (808) 
nan

>  <Pocket>  (808) 
nan

>  <ATP_Site>  (808) 
nan

>  <Peripheral>  (808) 
nan

>  <Num_H_Atoms_ProtBoundConf>  (808) 
nan

>  <Num_Resolved_Atoms>  (808) 
nan

>  <Num_Not_Resolved_Atoms>  (808) 
nan

$$$$
CHEMBL1092509
     RDKit          3D

  0  0  0  0  0  0  0  0  0  0999 V3000
M  V30 BEGIN CTAB
M  V30 COUNTS 32 35 0 0 0
M  V30 BEGIN ATOM
M  V30 1 O 3.612969 -0.813866 1.002202 0
M  V30 2 C 2.722108 -1.552919 0.563798 0
M  V30 3 N 2.973816 -2.836907 0.008610 0
M  V30 4 C 1.684419 -3.353955 -0.374535 0
M  V30 5 C 1.514568 -4.599207 -0.960465 0
M  V30 6 Br 2.939954 -5.797900 -1.342187 0
M  V30 7 C 0.235839 -4.991950 -1.285839 0
M  V30 8 C -0.807645 -4.108307 -1.003614 0
M  V30 9 C -0.532432 -2.904248 -0.424328 0
M  V30 10 C 0.687495 -2.460453 -0.082481 0
M  V30 11 C 1.291135 -1.307962 0.511032 0
M  V30 12 C 0.653051 -0.260635 0.914224 0
M  V30 13 N 1.299105 0.859710 1.497973 0
M  V30 14 C 0.376378 1.882208 1.857186 0
M  V30 15 C 0.571912 3.125539 2.445182 0
M  V30 16 C -0.554877 3.884905 2.661290 0
M  V30 17 C -1.811233 3.469894 2.328338 0
M  V30 18 C -1.948532 2.231608 1.749321 0
M  V30 19 C -0.873161 1.377497 1.484216 0
M  V30 20 C -0.738145 0.061882 0.901279 0
M  V30 21 N -1.731954 -0.536817 0.514896 0
M  V30 22 O -3.001193 -0.119743 0.558961 0
M  V30 23 H 3.933483 -3.266758 -0.076808 0
M  V30 24 H 0.084517 -5.957141 -1.742255 0
M  V30 25 H -1.782694 -4.523951 -1.304563 0
M  V30 26 H -1.439841 -2.408493 -0.302926 0
M  V30 27 H 2.305002 0.961339 1.659636 0
M  V30 28 H 1.564221 3.458418 2.710470 0
M  V30 29 H -0.372064 4.843961 3.118519 0
M  V30 30 H -2.652295 4.119156 2.527149 0
M  V30 31 H -2.968241 1.967374 1.512111 0
M  V30 32 H -3.537780 0.213420 -0.219018 0
M  V30 END ATOM
M  V30 BEGIN BOND
M  V30 1 2 1 2
M  V30 2 1 2 3
M  V30 3 1 3 4
M  V30 4 2 4 5
M  V30 5 1 5 6
M  V30 6 1 5 7
M  V30 7 2 7 8
M  V30 8 1 8 9
M  V30 9 2 9 10
M  V30 10 1 10 11
M  V30 11 2 11 12
M  V30 12 1 12 13
M  V30 13 1 13 14
M  V30 14 2 14 15
M  V30 15 1 15 16
M  V30 16 2 16 17
M  V30 17 1 17 18
M  V30 18 2 18 19
M  V30 19 1 19 20
M  V30 20 2 20 21
M  V30 21 1 21 22
M  V30 22 1 11 2
M  V30 23 1 20 12
M  V30 24 1 10 4
M  V30 25 1 19 14
M  V30 26 1 3 23
M  V30 27 1 7 24
M  V30 28 1 8 25
M  V30 29 1 9 26
M  V30 30 1 13 27
M  V30 31 1 15 28
M  V30 32 1 16 29
M  V30 33 1 17 30
M  V30 34 1 18 31
M  V30 35 1 22 32
M  V30 END BOND
M  V30 END CTAB
M  END
>  <Dataset>  (809) 
ChEMBL_Kinases

>  <Ligand_Instance>  (809) 
nan

>  <PDB_ID>  (809) 
nan

>  <Standardized_SMILES>  (809) 
O=C1Nc2c(Br)cccc2/C1=C1/Nc2ccccc2/C1=N\O

>  <Name>  (809) 
nan

>  <Pocket>  (809) 
nan

>  <ATP_Site>  (809) 
nan

>  <Peripheral>  (809) 
nan

>  <Num_H_Atoms_ProtBoundConf>  (809) 
nan

>  <Num_Resolved_Atoms>  (809) 
nan

>  <Num_Not_Resolved_Atoms>  (809) 
nan

$$$$
CHEMBL489083
     RDKit          3D

  0  0  0  0  0  0  0  0  0  0999 V3000
M  V30 BEGIN CTAB
M  V30 COUNTS 51 56 0 0 0
M  V30 BEGIN ATOM
M  V30 1 N 1.245236 0.688345 4.528934 0
M  V30 2 C 1.043658 -0.469200 3.947768 0
M  V30 3 N -0.305496 -0.818871 4.235136 0
M  V30 4 S 2.397386 -1.201733 3.047929 0
M  V30 5 C 3.872385 -0.164617 3.100954 0
M  V30 6 C 3.743598 1.127797 2.398012 0
M  V30 7 C 3.498009 1.133194 0.942659 0
M  V30 8 N 2.319135 0.441069 0.477311 0
M  V30 9 C 2.455748 -0.862529 0.058452 0
M  V30 10 O 3.527399 -1.528546 0.018012 0
M  V30 11 C 1.150929 -1.231224 -0.295488 0
M  V30 12 C 0.263437 -0.202410 -0.110905 0
M  V30 13 C 1.011596 0.829963 0.378046 0
M  V30 14 O 0.865323 1.990386 0.761498 0
M  V30 15 N -1.040341 -0.117868 -0.309732 0
M  V30 16 C -1.668695 1.032460 -0.467609 0
M  V30 17 C -1.420360 2.352912 -0.628530 0
M  V30 18 C -2.332044 3.355400 -0.827579 0
M  V30 19 C -3.685970 3.019030 -0.880934 0
M  V30 20 C -4.006727 1.684691 -0.728495 0
M  V30 21 C -3.009841 0.715728 -0.526993 0
M  V30 22 C -3.185442 -0.674139 -0.413360 0
M  V30 23 C -1.909847 -1.130786 -0.285670 0
M  V30 24 C -1.649211 -2.508378 -0.319042 0
M  V30 25 C -2.767249 -3.268890 -0.287356 0
M  V30 26 C -2.623888 -4.618690 -0.497409 0
M  V30 27 C -1.375275 -5.163188 -0.730783 0
M  V30 28 C -0.214941 -4.416726 -0.766145 0
M  V30 29 C 1.113412 -4.722928 -0.966722 0
M  V30 30 C 1.765697 -3.511640 -0.859784 0
M  V30 31 N 0.886702 -2.531905 -0.608859 0
M  V30 32 C -0.376488 -3.053958 -0.548952 0
M  V30 33 H 0.477812 1.155928 5.068589 0
M  V30 34 H -0.658530 -0.953543 5.207931 0
M  V30 35 H -1.136129 -0.995204 3.606372 0
M  V30 36 H 4.764449 -0.758913 2.817753 0
M  V30 37 H 4.046447 0.072472 4.191825 0
M  V30 38 H 2.995681 1.751803 2.946743 0
M  V30 39 H 4.724158 1.673676 2.548908 0
M  V30 40 H 3.354834 2.217165 0.648655 0
M  V30 41 H 4.407580 0.807005 0.397297 0
M  V30 42 H -0.443657 2.757169 -0.703549 0
M  V30 43 H -2.126752 4.408683 -0.952036 0
M  V30 44 H -4.455331 3.758153 -1.033016 0
M  V30 45 H -5.072523 1.460887 -0.777335 0
M  V30 46 H -4.166880 -1.124221 -0.441700 0
M  V30 47 H -3.735274 -2.904056 -0.107985 0
M  V30 48 H -3.443315 -5.320597 -0.494939 0
M  V30 49 H -1.250061 -6.225451 -0.900159 0
M  V30 50 H 1.548151 -5.683284 -1.162189 0
M  V30 51 H 2.829210 -3.397128 -0.970868 0
M  V30 END ATOM
M  V30 BEGIN BOND
M  V30 1 2 1 2 CFG=2
M  V30 2 1 2 3
M  V30 3 1 2 4
M  V30 4 1 4 5
M  V30 5 1 5 6
M  V30 6 1 6 7
M  V30 7 1 7 8
M  V30 8 1 8 9
M  V30 9 2 9 10
M  V30 10 1 9 11
M  V30 11 2 11 12
M  V30 12 1 12 13
M  V30 13 2 13 14
M  V30 14 1 12 15
M  V30 15 1 15 16
M  V30 16 2 16 17
M  V30 17 1 17 18
M  V30 18 2 18 19
M  V30 19 1 19 20
M  V30 20 2 20 21
M  V30 21 1 21 22
M  V30 22 2 22 23
M  V30 23 1 23 24
M  V30 24 1 24 25
M  V30 25 2 25 26
M  V30 26 1 26 27
M  V30 27 2 27 28
M  V30 28 1 28 29
M  V30 29 2 29 30
M  V30 30 1 30 31
M  V30 31 1 31 32
M  V30 32 1 13 8
M  V30 33 1 23 15
M  V30 34 2 32 24
M  V30 35 1 31 11
M  V30 36 1 21 16
M  V30 37 1 32 28
M  V30 38 1 1 33
M  V30 39 1 3 34
M  V30 40 1 3 35
M  V30 41 1 5 36
M  V30 42 1 5 37
M  V30 43 1 6 38
M  V30 44 1 6 39
M  V30 45 1 7 40
M  V30 46 1 7 41
M  V30 47 1 17 42
M  V30 48 1 18 43
M  V30 49 1 19 44
M  V30 50 1 20 45
M  V30 51 1 22 46
M  V30 52 1 25 47
M  V30 53 1 26 48
M  V30 54 1 27 49
M  V30 55 1 29 50
M  V30 56 1 30 51
M  V30 END BOND
M  V30 END CTAB
M  END
>  <Dataset>  (810) 
ChEMBL_Kinases

>  <Ligand_Instance>  (810) 
nan

>  <PDB_ID>  (810) 
nan

>  <Standardized_SMILES>  (810) 
N=C(N)SCCCn1c(=O)c2c(c1=O)n1c3ccccc3cc1c1cccc3ccn2c31

>  <Name>  (810) 
nan

>  <Pocket>  (810) 
nan

>  <ATP_Site>  (810) 
nan

>  <Peripheral>  (810) 
nan

>  <Num_H_Atoms_ProtBoundConf>  (810) 
nan

>  <Num_Resolved_Atoms>  (810) 
nan

>  <Num_Not_Resolved_Atoms>  (810) 
nan

$$$$
CHEMBL4877655
     RDKit          3D

  0  0  0  0  0  0  0  0  0  0999 V3000
M  V30 BEGIN CTAB
M  V30 COUNTS 46 49 0 0 0
M  V30 BEGIN ATOM
M  V30 1 N 1.468666 -5.215116 3.865847 0
M  V30 2 C 0.649521 -4.392435 3.047758 0
M  V30 3 O -0.182550 -5.318692 2.976562 0
M  V30 4 C 0.962342 -3.030781 2.637445 0
M  V30 5 C 2.157655 -2.571218 3.116777 0
M  V30 6 N 2.477710 -1.319688 2.758120 0
M  V30 7 C 1.651147 -0.575041 1.968026 0
M  V30 8 N 2.064477 0.765282 1.632058 0
M  V30 9 C 1.282543 1.654968 0.793846 0 CFG=2
M  V30 10 C 1.178580 0.995043 -0.535106 0
M  V30 11 C 0.958512 1.890193 -1.692179 0
M  V30 12 C 0.636490 3.318932 -1.243725 0
M  V30 13 C 1.874353 3.748090 -0.471086 0 CFG=2
M  V30 14 O 3.024124 3.405073 -1.149611 0
M  V30 15 C 1.854184 3.005923 0.838338 0
M  V30 16 N 0.489170 -1.066448 1.521183 0
M  V30 17 C 0.083666 -2.332200 1.837798 0
M  V30 18 N -1.139636 -2.863382 1.380386 0
M  V30 19 C -2.115189 -2.392726 0.624251 0
M  V30 20 C -2.111950 -1.930053 -0.787316 0
M  V30 21 C -3.555394 -1.813373 -0.385435 0
M  V30 22 C -3.015824 -1.223787 0.892243 0
M  V30 23 C -3.371687 -3.122557 0.273793 0
M  V30 24 H 2.233635 -5.909403 3.625380 0
M  V30 25 H 1.526079 -5.343835 4.899492 0
M  V30 26 H 2.827768 -3.142791 3.743340 0
M  V30 27 H 2.990496 1.113103 2.021126 0
M  V30 28 H 0.269805 1.668504 1.278875 0
M  V30 29 H 2.085838 0.364183 -0.736250 0
M  V30 30 H 0.351462 0.258992 -0.488854 0
M  V30 31 H 0.232009 1.520111 -2.447651 0
M  V30 32 H 1.923484 2.010486 -2.266912 0
M  V30 33 H 0.527750 3.917630 -2.187343 0
M  V30 34 H -0.263412 3.300147 -0.629813 0
M  V30 35 H 1.807481 4.853729 -0.287636 0
M  V30 36 H 3.785393 3.882018 -0.693143 0
M  V30 37 H 2.906748 3.018895 1.218995 0
M  V30 38 H 1.303145 3.661438 1.558839 0
M  V30 39 H -1.365750 -3.838186 1.679387 0
M  V30 40 H -1.625667 -0.974884 -0.963976 0
M  V30 41 H -1.953086 -2.731665 -1.532619 0
M  V30 42 H -4.334909 -1.471723 -0.923378 0
M  V30 43 H -3.743375 -1.326001 1.710224 0
M  V30 44 H -2.601148 -0.226200 0.704651 0
M  V30 45 H -4.079360 -3.276823 1.107766 0
M  V30 46 H -3.237000 -3.990202 -0.402572 0
M  V30 END ATOM
M  V30 BEGIN BOND
M  V30 1 1 1 2
M  V30 2 2 2 3
M  V30 3 1 2 4
M  V30 4 2 4 5
M  V30 5 1 5 6
M  V30 6 2 6 7
M  V30 7 1 7 8
M  V30 8 1 8 9
M  V30 9 1 9 10
M  V30 10 1 10 11
M  V30 11 1 11 12
M  V30 12 1 12 13
M  V30 13 1 13 14
M  V30 14 1 13 15
M  V30 15 1 7 16
M  V30 16 2 16 17
M  V30 17 1 17 18
M  V30 18 1 18 19
M  V30 19 1 19 20
M  V30 20 1 20 21
M  V30 21 1 21 22
M  V30 22 1 21 23
M  V30 23 1 17 4
M  V30 24 1 22 19
M  V30 25 1 15 9
M  V30 26 1 23 19
M  V30 27 1 1 24
M  V30 28 1 1 25
M  V30 29 1 5 26
M  V30 30 1 8 27
M  V30 31 1 9 28 CFG=1
M  V30 32 1 10 29
M  V30 33 1 10 30
M  V30 34 1 11 31
M  V30 35 1 11 32
M  V30 36 1 12 33
M  V30 37 1 12 34
M  V30 38 1 13 35 CFG=1
M  V30 39 1 14 36
M  V30 40 1 15 37
M  V30 41 1 15 38
M  V30 42 1 18 39
M  V30 43 1 20 40
M  V30 44 1 20 41
M  V30 45 1 21 42
M  V30 46 1 22 43
M  V30 47 1 22 44
M  V30 48 1 23 45
M  V30 49 1 23 46
M  V30 END BOND
M  V30 END CTAB
M  END
>  <Dataset>  (811) 
ChEMBL_Kinases

>  <Ligand_Instance>  (811) 
nan

>  <PDB_ID>  (811) 
nan

>  <Standardized_SMILES>  (811) 
NC(=O)c1cnc(N[C@@H]2CCC[C@H](O)C2)nc1NC12CC(C1)C2

>  <Name>  (811) 
nan

>  <Pocket>  (811) 
nan

>  <ATP_Site>  (811) 
nan

>  <Peripheral>  (811) 
nan

>  <Num_H_Atoms_ProtBoundConf>  (811) 
nan

>  <Num_Resolved_Atoms>  (811) 
nan

>  <Num_Not_Resolved_Atoms>  (811) 
nan

$$$$
CHEMBL3792905
     RDKit          3D

  0  0  0  0  0  0  0  0  0  0999 V3000
M  V30 BEGIN CTAB
M  V30 COUNTS 48 51 0 0 0
M  V30 BEGIN ATOM
M  V30 1 N -1.880650 -2.866182 2.592984 0
M  V30 2 C -0.935888 -2.234370 3.422846 0
M  V30 3 C 0.050389 -1.405175 2.956770 0
M  V30 4 C 0.999905 -0.754199 3.662093 0
M  V30 5 C 2.054592 0.108388 3.222720 0
M  V30 6 C 2.955457 0.622183 4.139109 0
M  V30 7 C 4.014006 1.432633 3.815239 0
M  V30 8 N 4.243714 1.786468 2.538822 0
M  V30 9 C 3.416975 1.333059 1.579863 0
M  V30 10 C 2.370689 0.524233 1.957016 0
M  V30 11 N 1.565533 0.124554 0.858129 0
M  V30 12 C 0.590349 1.158156 0.666575 0
M  V30 13 O 0.546294 2.196294 1.403036 0
M  V30 14 C -0.422936 1.066289 -0.408512 0
M  V30 15 N -0.410788 -0.010061 -1.208416 0
M  V30 16 C -1.277083 -0.198173 -2.211706 0
M  V30 17 C -1.149419 -1.407388 -2.997639 0
M  V30 18 C -0.145991 -2.293634 -2.670960 0
M  V30 19 C 0.066654 -3.469195 -3.347449 0
M  V30 20 C -0.731948 -3.829093 -4.411501 0
M  V30 21 C -1.749134 -2.972450 -4.774113 0
M  V30 22 C -1.917845 -1.807521 -4.062141 0
M  V30 23 F -2.925787 -1.012863 -4.461833 0
M  V30 24 C -2.188187 0.817113 -2.351784 0
M  V30 25 C -2.243987 1.940713 -1.559675 0
M  V30 26 C -1.331455 2.091667 -0.538318 0
M  V30 27 N -1.316953 3.218413 0.326096 0
M  V30 28 N 0.905991 -0.994678 4.966339 0
M  V30 29 C -0.002636 -1.776419 5.533514 0
M  V30 30 N 0.007885 -1.949391 6.944937 0
M  V30 31 N -0.935104 -2.405300 4.762914 0
M  V30 32 H -1.361738 -3.509773 1.985289 0
M  V30 33 H -2.878703 -2.591002 2.728250 0
M  V30 34 H 0.035980 -1.293072 1.887718 0
M  V30 35 H 2.844592 0.383907 5.210856 0
M  V30 36 H 4.669714 1.792798 4.576008 0
M  V30 37 H 3.621513 1.630410 0.563968 0
M  V30 38 H 1.573681 -0.724421 0.216032 0
M  V30 39 H 0.551310 -2.107237 -1.838743 0
M  V30 40 H 0.854397 -4.138768 -3.071371 0
M  V30 41 H -0.541515 -4.759863 -4.925087 0
M  V30 42 H -2.387054 -3.225976 -5.598562 0
M  V30 43 H -2.914634 0.745177 -3.128812 0
M  V30 44 H -2.991681 2.695623 -1.733947 0
M  V30 45 H -1.933787 3.121491 1.180939 0
M  V30 46 H -0.660258 3.902721 -0.126601 0
M  V30 47 H -0.160219 -1.293475 7.743063 0
M  V30 48 H 0.199782 -2.829824 7.480769 0
M  V30 END ATOM
M  V30 BEGIN BOND
M  V30 1 1 1 2
M  V30 2 2 2 3
M  V30 3 1 3 4
M  V30 4 1 4 5
M  V30 5 2 5 6
M  V30 6 1 6 7
M  V30 7 2 7 8
M  V30 8 1 8 9
M  V30 9 2 9 10
M  V30 10 1 10 11
M  V30 11 1 11 12
M  V30 12 2 12 13
M  V30 13 1 12 14
M  V30 14 2 14 15
M  V30 15 1 15 16
M  V30 16 1 16 17
M  V30 17 2 17 18
M  V30 18 1 18 19
M  V30 19 2 19 20
M  V30 20 1 20 21
M  V30 21 2 21 22
M  V30 22 1 22 23
M  V30 23 2 16 24
M  V30 24 1 24 25
M  V30 25 2 25 26
M  V30 26 1 26 27
M  V30 27 2 4 28
M  V30 28 1 28 29
M  V30 29 1 29 30
M  V30 30 2 29 31
M  V30 31 1 31 2
M  V30 32 1 10 5
M  V30 33 1 26 14
M  V30 34 1 22 17
M  V30 35 1 1 32
M  V30 36 1 1 33
M  V30 37 1 3 34
M  V30 38 1 6 35
M  V30 39 1 7 36
M  V30 40 1 9 37
M  V30 41 1 11 38
M  V30 42 1 18 39
M  V30 43 1 19 40
M  V30 44 1 20 41
M  V30 45 1 21 42
M  V30 46 1 24 43
M  V30 47 1 25 44
M  V30 48 1 27 45
M  V30 49 1 27 46
M  V30 50 1 30 47
M  V30 51 1 30 48
M  V30 END BOND
M  V30 END CTAB
M  END
>  <Dataset>  (812) 
ChEMBL_Kinases

>  <Ligand_Instance>  (812) 
nan

>  <PDB_ID>  (812) 
nan

>  <Standardized_SMILES>  (812) 
Nc1cc(-c2ccncc2NC(=O)c2nc(-c3ccccc3F)ccc2N)nc(N)n1

>  <Name>  (812) 
nan

>  <Pocket>  (812) 
nan

>  <ATP_Site>  (812) 
nan

>  <Peripheral>  (812) 
nan

>  <Num_H_Atoms_ProtBoundConf>  (812) 
nan

>  <Num_Resolved_Atoms>  (812) 
nan

>  <Num_Not_Resolved_Atoms>  (812) 
nan

$$$$
CHEMBL5073581
     RDKit          3D

  0  0  0  0  0  0  0  0  0  0999 V3000
M  V30 BEGIN CTAB
M  V30 COUNTS 43 46 0 0 0
M  V30 BEGIN ATOM
M  V30 1 C 1.232270 -4.934218 2.723845 0
M  V30 2 C 1.474590 -3.496979 2.444050 0
M  V30 3 N 2.686660 -2.896893 2.514999 0
M  V30 4 C 2.530581 -1.607286 2.200504 0
M  V30 5 C 3.420089 -0.557919 2.116738 0
M  V30 6 C 2.891087 0.669890 1.753175 0
M  V30 7 C 1.556735 0.882022 1.480033 0
M  V30 8 C 1.008085 2.172773 1.099263 0
M  V30 9 C -0.344512 2.265011 0.849682 0
M  V30 10 C -0.857101 3.495596 0.489019 0
M  V30 11 N -2.212265 3.739489 0.205233 0
M  V30 12 N -0.094943 4.613798 0.369237 0
M  V30 13 C 1.243638 4.553969 0.609231 0
M  V30 14 N 2.063267 5.711159 0.490578 0
M  V30 15 C 1.753764 3.324340 0.969240 0
M  V30 16 N 0.707517 -0.156920 1.568270 0
M  V30 17 C 1.212153 -1.353447 1.920778 0
M  V30 18 N 0.582142 -2.535376 2.078290 0
M  V30 19 C -0.846032 -2.750637 1.884849 0
M  V30 20 C -1.041071 -3.125333 0.444470 0
M  V30 21 C -1.259164 -2.076448 -0.430823 0
M  V30 22 C -1.449650 -2.342154 -1.785939 0
M  V30 23 C -1.409241 -3.674369 -2.192282 0
M  V30 24 F -1.598743 -3.906710 -3.523233 0
M  V30 25 C -1.193516 -4.740344 -1.340875 0
M  V30 26 C -1.007787 -4.432367 0.004696 0
M  V30 27 H 1.518283 -5.514696 1.816807 0
M  V30 28 H 1.848702 -5.315116 3.571856 0
M  V30 29 H 0.164482 -5.105275 2.990483 0
M  V30 30 H 4.474828 -0.667382 2.319627 0
M  V30 31 H 3.590447 1.491641 1.687954 0
M  V30 32 H -1.049035 1.436095 0.914837 0
M  V30 33 H -2.473259 4.063392 -0.761085 0
M  V30 34 H -3.208919 3.762698 0.510362 0
M  V30 35 H 2.856624 5.922357 1.136538 0
M  V30 36 H 1.885199 6.413717 -0.282166 0
M  V30 37 H 2.807071 3.291955 1.154828 0
M  V30 38 H -1.398337 -1.823538 2.132485 0
M  V30 39 H -1.149605 -3.634142 2.474909 0
M  V30 40 H -1.302539 -1.022936 -0.184357 0
M  V30 41 H -1.625006 -1.557071 -2.518697 0
M  V30 42 H -1.177269 -5.729779 -1.730221 0
M  V30 43 H -0.835254 -5.231947 0.711600 0
M  V30 END ATOM
M  V30 BEGIN BOND
M  V30 1 1 1 2
M  V30 2 2 2 3
M  V30 3 1 3 4
M  V30 4 2 4 5
M  V30 5 1 5 6
M  V30 6 2 6 7
M  V30 7 1 7 8
M  V30 8 2 8 9
M  V30 9 1 9 10
M  V30 10 1 10 11
M  V30 11 2 10 12
M  V30 12 1 12 13
M  V30 13 1 13 14
M  V30 14 2 13 15
M  V30 15 1 7 16
M  V30 16 2 16 17
M  V30 17 1 17 18
M  V30 18 1 18 19
M  V30 19 1 19 20
M  V30 20 2 20 21
M  V30 21 1 21 22
M  V30 22 2 22 23
M  V30 23 1 23 24
M  V30 24 1 23 25
M  V30 25 2 25 26
M  V30 26 1 18 2
M  V30 27 1 26 20
M  V30 28 1 17 4
M  V30 29 1 15 8
M  V30 30 1 1 27
M  V30 31 1 1 28
M  V30 32 1 1 29
M  V30 33 1 5 30
M  V30 34 1 6 31
M  V30 35 1 9 32
M  V30 36 1 11 33
M  V30 37 1 11 34
M  V30 38 1 14 35
M  V30 39 1 14 36
M  V30 40 1 15 37
M  V30 41 1 19 38
M  V30 42 1 19 39
M  V30 43 1 21 40
M  V30 44 1 22 41
M  V30 45 1 25 42
M  V30 46 1 26 43
M  V30 END BOND
M  V30 END CTAB
M  END
>  <Dataset>  (813) 
ChEMBL_Kinases

>  <Ligand_Instance>  (813) 
nan

>  <PDB_ID>  (813) 
nan

>  <Standardized_SMILES>  (813) 
Cc1nc2ccc(-c3cc(N)nc(N)c3)nc2n1Cc1ccc(F)cc1

>  <Name>  (813) 
nan

>  <Pocket>  (813) 
nan

>  <ATP_Site>  (813) 
nan

>  <Peripheral>  (813) 
nan

>  <Num_H_Atoms_ProtBoundConf>  (813) 
nan

>  <Num_Resolved_Atoms>  (813) 
nan

>  <Num_Not_Resolved_Atoms>  (813) 
nan

$$$$
CHEMBL5073869
     RDKit          3D

  0  0  0  0  0  0  0  0  0  0999 V3000
M  V30 BEGIN CTAB
M  V30 COUNTS 34 36 0 0 0
M  V30 BEGIN ATOM
M  V30 1 C -2.492939 -4.253142 3.708744 0
M  V30 2 C -1.568219 -3.291464 2.996391 0
M  V30 3 O -0.341429 -3.006722 3.343632 0
M  V30 4 C 0.176923 -2.133024 2.506042 0
M  V30 5 C 1.447028 -1.599161 2.555461 0
M  V30 6 C 1.818583 -0.673763 1.570077 0
M  V30 7 C 0.888486 -0.341632 0.597231 0
M  V30 8 C 1.176568 0.655414 -0.429220 0
M  V30 9 C 0.737747 0.698862 -1.727753 0
M  V30 10 C 0.993580 1.685195 -2.650491 0
M  V30 11 N 0.431888 1.519569 -3.936916 0
M  V30 12 N 1.765900 2.685760 -2.156339 0
M  V30 13 C 2.222512 2.696060 -0.899230 0
M  V30 14 N 2.980576 3.866249 -0.646941 0
M  V30 15 C 1.965707 1.703501 0.028479 0
M  V30 16 C -0.401331 -0.887334 0.549545 0
M  V30 17 C -0.749917 -1.803854 1.533090 0
M  V30 18 C -1.875842 -2.557195 1.857013 0
M  V30 19 C -3.154796 -2.550222 1.119675 0
M  V30 20 H -3.539643 -4.107500 3.325056 0
M  V30 21 H -2.534290 -3.990500 4.796006 0
M  V30 22 H -2.224546 -5.302229 3.527346 0
M  V30 23 H 2.222287 -1.808051 3.281844 0
M  V30 24 H 2.740795 -0.162212 1.459976 0
M  V30 25 H 0.136298 -0.150775 -2.006843 0
M  V30 26 H -0.516351 1.762704 -4.328195 0
M  V30 27 H 0.925794 1.089650 -4.749928 0
M  V30 28 H 2.369313 4.361017 0.068877 0
M  V30 29 H 3.524210 4.703092 -0.467508 0
M  V30 30 H 2.416452 1.869895 0.998650 0
M  V30 31 H -1.141632 -0.649230 -0.192907 0
M  V30 32 H -3.339899 -1.527415 0.678336 0
M  V30 33 H -3.086080 -3.299853 0.308645 0
M  V30 34 H -3.975338 -2.745173 1.840398 0
M  V30 END ATOM
M  V30 BEGIN BOND
M  V30 1 1 1 2
M  V30 2 1 2 3
M  V30 3 1 3 4
M  V30 4 2 4 5
M  V30 5 1 5 6
M  V30 6 2 6 7
M  V30 7 1 7 8
M  V30 8 2 8 9
M  V30 9 1 9 10
M  V30 10 1 10 11
M  V30 11 2 10 12
M  V30 12 1 12 13
M  V30 13 1 13 14
M  V30 14 2 13 15
M  V30 15 1 7 16
M  V30 16 2 16 17
M  V30 17 1 17 18
M  V30 18 1 18 19
M  V30 19 2 18 2
M  V30 20 1 17 4
M  V30 21 1 15 8
M  V30 22 1 1 20
M  V30 23 1 1 21
M  V30 24 1 1 22
M  V30 25 1 5 23
M  V30 26 1 6 24
M  V30 27 1 9 25
M  V30 28 1 11 26
M  V30 29 1 11 27
M  V30 30 1 14 28
M  V30 31 1 14 29
M  V30 32 1 15 30
M  V30 33 1 16 31
M  V30 34 1 19 32
M  V30 35 1 19 33
M  V30 36 1 19 34
M  V30 END BOND
M  V30 END CTAB
M  END
>  <Dataset>  (814) 
ChEMBL_Kinases

>  <Ligand_Instance>  (814) 
nan

>  <PDB_ID>  (814) 
nan

>  <Standardized_SMILES>  (814) 
Cc1oc2ccc(-c3cc(N)nc(N)c3)cc2c1C

>  <Name>  (814) 
nan

>  <Pocket>  (814) 
nan

>  <ATP_Site>  (814) 
nan

>  <Peripheral>  (814) 
nan

>  <Num_H_Atoms_ProtBoundConf>  (814) 
nan

>  <Num_Resolved_Atoms>  (814) 
nan

>  <Num_Not_Resolved_Atoms>  (814) 
nan

$$$$
CHEMBL3792552
     RDKit          3D

  0  0  0  0  0  0  0  0  0  0999 V3000
M  V30 BEGIN CTAB
M  V30 COUNTS 47 50 0 0 0
M  V30 BEGIN ATOM
M  V30 1 N -2.180925 1.997884 2.877477 0
M  V30 2 C -0.808670 1.859327 2.544361 0
M  V30 3 C 0.058506 2.572813 3.371982 0
M  V30 4 C 1.417046 2.486046 3.107470 0
M  V30 5 C 1.825155 1.701050 2.044430 0
M  V30 6 C 3.252926 1.548548 1.686953 0
M  V30 7 C 4.029600 0.544399 2.229877 0
M  V30 8 F 3.426557 -0.307289 3.114153 0
M  V30 9 C 5.333761 0.477183 1.845668 0
M  V30 10 C 5.814062 1.391268 0.952670 0
M  V30 11 C 5.040078 2.396860 0.407686 0
M  V30 12 C 3.702219 2.491199 0.781503 0
M  V30 13 F 2.931725 3.461762 0.263388 0
M  V30 14 N 0.937251 1.035514 1.281275 0
M  V30 15 C -0.391963 1.078256 1.485448 0
M  V30 16 C -1.361267 0.356151 0.658167 0
M  V30 17 O -2.571188 0.495204 0.973985 0
M  V30 18 N -0.831322 -0.422223 -0.410052 0
M  V30 19 C -1.548833 -1.202017 -1.340230 0
M  V30 20 C -1.975676 -0.625776 -2.519714 0
M  V30 21 N -2.665592 -1.296014 -3.462251 0
M  V30 22 C -2.995280 -2.600002 -3.320648 0
M  V30 23 C -2.588411 -3.234083 -2.145322 0
M  V30 24 C -1.872049 -2.552840 -1.157816 0
M  V30 25 C -1.433899 -3.182702 0.076100 0
M  V30 26 C -0.223717 -3.837193 0.286310 0
M  V30 27 C 0.046955 -4.391139 1.534666 0
M  V30 28 C -0.869338 -4.300119 2.567908 0
M  V30 29 N -2.039028 -3.666807 2.362602 0
M  V30 30 C -2.304987 -3.126436 1.147567 0
M  V30 31 N -3.575310 -2.488637 1.071754 0
M  V30 32 H -2.551199 2.971867 3.076649 0
M  V30 33 H -3.075685 1.495407 3.025504 0
M  V30 34 H -0.271822 3.177342 4.192435 0
M  V30 35 H 2.187966 2.990923 3.675507 0
M  V30 36 H 5.942452 -0.310837 2.272010 0
M  V30 37 H 6.861008 1.361112 0.625176 0
M  V30 38 H 5.447108 3.104973 -0.295834 0
M  V30 39 H 0.199377 -0.460098 -0.574720 0
M  V30 40 H -1.799704 0.404646 -2.796562 0
M  V30 41 H -3.546125 -3.191710 -4.039145 0
M  V30 42 H -2.808428 -4.271042 -1.950480 0
M  V30 43 H 0.435661 -3.863416 -0.573015 0
M  V30 44 H 1.011069 -4.884766 1.620249 0
M  V30 45 H -0.637759 -4.735005 3.520874 0
M  V30 46 H -4.342265 -2.626703 0.360605 0
M  V30 47 H -4.039954 -1.767151 1.664975 0
M  V30 END ATOM
M  V30 BEGIN BOND
M  V30 1 1 1 2
M  V30 2 2 2 3
M  V30 3 1 3 4
M  V30 4 2 4 5
M  V30 5 1 5 6
M  V30 6 2 6 7
M  V30 7 1 7 8
M  V30 8 1 7 9
M  V30 9 2 9 10
M  V30 10 1 10 11
M  V30 11 2 11 12
M  V30 12 1 12 13
M  V30 13 1 5 14
M  V30 14 2 14 15
M  V30 15 1 15 16
M  V30 16 2 16 17
M  V30 17 1 16 18
M  V30 18 1 18 19
M  V30 19 2 19 20
M  V30 20 1 20 21
M  V30 21 2 21 22
M  V30 22 1 22 23
M  V30 23 2 23 24
M  V30 24 1 24 25
M  V30 25 2 25 26
M  V30 26 1 26 27
M  V30 27 2 27 28
M  V30 28 1 28 29
M  V30 29 2 29 30
M  V30 30 1 30 31
M  V30 31 1 15 2
M  V30 32 1 24 19
M  V30 33 1 30 25
M  V30 34 1 12 6
M  V30 35 1 1 32
M  V30 36 1 1 33
M  V30 37 1 3 34
M  V30 38 1 4 35
M  V30 39 1 9 36
M  V30 40 1 10 37
M  V30 41 1 11 38
M  V30 42 1 18 39
M  V30 43 1 20 40
M  V30 44 1 22 41
M  V30 45 1 23 42
M  V30 46 1 26 43
M  V30 47 1 27 44
M  V30 48 1 28 45
M  V30 49 1 31 46
M  V30 50 1 31 47
M  V30 END BOND
M  V30 END CTAB
M  END
>  <Dataset>  (815) 
ChEMBL_Kinases

>  <Ligand_Instance>  (815) 
nan

>  <PDB_ID>  (815) 
nan

>  <Standardized_SMILES>  (815) 
Nc1ccc(-c2c(F)cccc2F)nc1C(=O)Nc1cnccc1-c1cccnc1N

>  <Name>  (815) 
nan

>  <Pocket>  (815) 
nan

>  <ATP_Site>  (815) 
nan

>  <Peripheral>  (815) 
nan

>  <Num_H_Atoms_ProtBoundConf>  (815) 
nan

>  <Num_Resolved_Atoms>  (815) 
nan

>  <Num_Not_Resolved_Atoms>  (815) 
nan

$$$$
CHEMBL5073976
     RDKit          3D

  0  0  0  0  0  0  0  0  0  0999 V3000
M  V30 BEGIN CTAB
M  V30 COUNTS 43 46 0 0 0
M  V30 BEGIN ATOM
M  V30 1 C 0.350330 -4.741610 2.153002 0
M  V30 2 C 0.814663 -3.385244 1.711272 0
M  V30 3 N 2.019817 -2.927067 2.155212 0
M  V30 4 C 2.257572 -1.709708 1.655310 0
M  V30 5 C 3.225700 -0.722826 1.689317 0
M  V30 6 C 3.090401 0.464740 0.993594 0
M  V30 7 C 1.970783 0.713957 0.229388 0
M  V30 8 C 1.742191 1.936178 -0.537225 0
M  V30 9 C 0.565682 2.026258 -1.250677 0
M  V30 10 C 0.267099 3.160923 -2.011270 0
M  V30 11 N -0.971213 3.212770 -2.739817 0
M  V30 12 N 1.161736 4.186667 -2.039122 0
M  V30 13 C 2.323033 4.108559 -1.340527 0
M  V30 14 N 3.240619 5.195068 -1.387045 0
M  V30 15 C 2.628924 2.991257 -0.584845 0
M  V30 16 N 1.022494 -0.238890 0.188875 0
M  V30 17 C 1.149381 -1.409266 0.870872 0
M  V30 18 N 0.276638 -2.433515 0.910402 0
M  V30 19 C -1.012347 -2.630823 0.279440 0
M  V30 20 C -2.162980 -2.126260 1.119496 0
M  V30 21 C -2.236645 -2.802612 2.430717 0
M  V30 22 C -1.585953 -2.338052 3.564329 0
M  V30 23 C -1.872475 -3.213965 4.615666 0
M  V30 24 C -2.691434 -4.173143 4.053768 0
M  V30 25 O -2.880560 -3.893394 2.766342 0
M  V30 26 H -0.559071 -5.004607 1.567219 0
M  V30 27 H 1.131981 -5.464844 1.842169 0
M  V30 28 H 0.121281 -4.793720 3.223668 0
M  V30 29 H 4.098325 -0.937037 2.295351 0
M  V30 30 H 3.860953 1.221654 1.035551 0
M  V30 31 H -0.180014 1.239549 -1.263041 0
M  V30 32 H -1.821735 3.162315 -2.122284 0
M  V30 33 H -1.099467 3.292343 -3.779120 0
M  V30 34 H 3.134015 5.770819 -0.514726 0
M  V30 35 H 3.979834 5.603496 -2.001081 0
M  V30 36 H 3.552807 2.928563 -0.028781 0
M  V30 37 H -1.159589 -3.665716 -0.036282 0
M  V30 38 H -1.038455 -2.001677 -0.658304 0
M  V30 39 H -3.100903 -2.259772 0.579073 0
M  V30 40 H -2.015455 -1.018930 1.286405 0
M  V30 41 H -0.960996 -1.480422 3.702841 0
M  V30 42 H -1.552655 -3.196949 5.660929 0
M  V30 43 H -3.109345 -5.024449 4.602731 0
M  V30 END ATOM
M  V30 BEGIN BOND
M  V30 1 1 1 2
M  V30 2 2 2 3
M  V30 3 1 3 4
M  V30 4 2 4 5
M  V30 5 1 5 6
M  V30 6 2 6 7
M  V30 7 1 7 8
M  V30 8 2 8 9
M  V30 9 1 9 10
M  V30 10 1 10 11
M  V30 11 2 10 12
M  V30 12 1 12 13
M  V30 13 1 13 14
M  V30 14 2 13 15
M  V30 15 1 7 16
M  V30 16 2 16 17
M  V30 17 1 17 18
M  V30 18 1 18 19
M  V30 19 1 19 20
M  V30 20 1 20 21
M  V30 21 2 21 22
M  V30 22 1 22 23
M  V30 23 2 23 24
M  V30 24 1 24 25
M  V30 25 1 18 2
M  V30 26 1 25 21
M  V30 27 1 17 4
M  V30 28 1 15 8
M  V30 29 1 1 26
M  V30 30 1 1 27
M  V30 31 1 1 28
M  V30 32 1 5 29
M  V30 33 1 6 30
M  V30 34 1 9 31
M  V30 35 1 11 32
M  V30 36 1 11 33
M  V30 37 1 14 34
M  V30 38 1 14 35
M  V30 39 1 15 36
M  V30 40 1 19 37
M  V30 41 1 19 38
M  V30 42 1 20 39
M  V30 43 1 20 40
M  V30 44 1 22 41
M  V30 45 1 23 42
M  V30 46 1 24 43
M  V30 END BOND
M  V30 END CTAB
M  END
>  <Dataset>  (816) 
ChEMBL_Kinases

>  <Ligand_Instance>  (816) 
nan

>  <PDB_ID>  (816) 
nan

>  <Standardized_SMILES>  (816) 
Cc1nc2ccc(-c3cc(N)nc(N)c3)nc2n1CCc1ccco1

>  <Name>  (816) 
nan

>  <Pocket>  (816) 
nan

>  <ATP_Site>  (816) 
nan

>  <Peripheral>  (816) 
nan

>  <Num_H_Atoms_ProtBoundConf>  (816) 
nan

>  <Num_Resolved_Atoms>  (816) 
nan

>  <Num_Not_Resolved_Atoms>  (816) 
nan

$$$$
CHEMBL3792474
     RDKit          3D

  0  0  0  0  0  0  0  0  0  0999 V3000
M  V30 BEGIN CTAB
M  V30 COUNTS 46 49 0 0 0
M  V30 BEGIN ATOM
M  V30 1 N 0.276730 -0.527690 3.362451 0
M  V30 2 C 1.628136 -0.056728 3.206169 0
M  V30 3 C 2.532269 0.022418 4.244118 0
M  V30 4 N 3.776818 0.477931 3.994594 0
M  V30 5 C 4.084568 0.836701 2.741066 0
M  V30 6 C 3.200443 0.767941 1.684289 0
M  V30 7 C 3.521504 1.151406 0.332227 0
M  V30 8 C 4.746886 1.633872 -0.077866 0
M  V30 9 C 4.997353 1.986996 -1.393772 0
M  V30 10 N 4.015289 1.857374 -2.309441 0
M  V30 11 C 2.802736 1.388819 -1.946596 0
M  V30 12 C 2.536868 1.029570 -0.625241 0
M  V30 13 N 1.232816 0.545030 -0.328543 0
M  V30 14 C 0.076206 1.228852 0.066977 0
M  V30 15 O 0.100288 2.486761 0.209983 0
M  V30 16 C -1.167250 0.508399 0.319142 0
M  V30 17 N -1.205093 -0.826641 0.170530 0
M  V30 18 C -2.307124 -1.560138 0.382598 0
M  V30 19 C -2.326810 -3.008712 0.215588 0
M  V30 20 C -3.435609 -3.802447 0.421996 0
M  V30 21 C -3.387513 -5.171306 0.246082 0
M  V30 22 C -2.194264 -5.743215 -0.145709 0
M  V30 23 C -1.051453 -4.987061 -0.365833 0
M  V30 24 C -1.155118 -3.623431 -0.175475 0
M  V30 25 F -0.042050 -2.869922 -0.387833 0
M  V30 26 C -3.409639 -0.828113 0.769235 0
M  V30 27 C -3.422028 0.541076 0.935567 0
M  V30 28 C -2.247088 1.247391 0.700454 0
M  V30 29 N -2.277459 2.661950 0.877052 0
M  V30 30 N 1.972344 0.315515 1.944738 0
M  V30 31 H -0.596518 0.051779 3.321069 0
M  V30 32 H -0.264172 -1.385791 3.532841 0
M  V30 33 H 2.111408 -0.312582 5.204944 0
M  V30 34 H 5.086062 1.197464 2.568159 0
M  V30 35 H 5.533868 1.738301 0.653227 0
M  V30 36 H 5.962582 2.363502 -1.699727 0
M  V30 37 H 2.018673 1.289579 -2.698240 0
M  V30 38 H 1.256444 -0.504526 -0.459712 0
M  V30 39 H -4.346845 -3.346100 0.723540 0
M  V30 40 H -4.267205 -5.779579 0.412403 0
M  V30 41 H -2.129977 -6.816744 -0.290858 0
M  V30 42 H -0.110015 -5.463317 -0.677939 0
M  V30 43 H -4.344210 -1.324069 0.964118 0
M  V30 44 H -4.314953 1.075184 1.241734 0
M  V30 45 H -2.295846 3.434347 0.160276 0
M  V30 46 H -2.283755 3.053485 1.863517 0
M  V30 END ATOM
M  V30 BEGIN BOND
M  V30 1 1 1 2
M  V30 2 2 2 3
M  V30 3 1 3 4
M  V30 4 2 4 5
M  V30 5 1 5 6
M  V30 6 1 6 7
M  V30 7 2 7 8
M  V30 8 1 8 9
M  V30 9 2 9 10
M  V30 10 1 10 11
M  V30 11 2 11 12
M  V30 12 1 12 13
M  V30 13 1 13 14
M  V30 14 2 14 15
M  V30 15 1 14 16
M  V30 16 2 16 17
M  V30 17 1 17 18
M  V30 18 1 18 19
M  V30 19 2 19 20
M  V30 20 1 20 21
M  V30 21 2 21 22
M  V30 22 1 22 23
M  V30 23 2 23 24
M  V30 24 1 24 25
M  V30 25 2 18 26
M  V30 26 1 26 27
M  V30 27 2 27 28
M  V30 28 1 28 29
M  V30 29 2 6 30
M  V30 30 1 30 2
M  V30 31 1 12 7
M  V30 32 1 28 16
M  V30 33 1 24 19
M  V30 34 1 1 31
M  V30 35 1 1 32
M  V30 36 1 3 33
M  V30 37 1 5 34
M  V30 38 1 8 35
M  V30 39 1 9 36
M  V30 40 1 11 37
M  V30 41 1 13 38
M  V30 42 1 20 39
M  V30 43 1 21 40
M  V30 44 1 22 41
M  V30 45 1 23 42
M  V30 46 1 26 43
M  V30 47 1 27 44
M  V30 48 1 29 45
M  V30 49 1 29 46
M  V30 END BOND
M  V30 END CTAB
M  END
>  <Dataset>  (817) 
ChEMBL_Kinases

>  <Ligand_Instance>  (817) 
nan

>  <PDB_ID>  (817) 
nan

>  <Standardized_SMILES>  (817) 
Nc1cncc(-c2ccncc2NC(=O)c2nc(-c3ccccc3F)ccc2N)n1

>  <Name>  (817) 
nan

>  <Pocket>  (817) 
nan

>  <ATP_Site>  (817) 
nan

>  <Peripheral>  (817) 
nan

>  <Num_H_Atoms_ProtBoundConf>  (817) 
nan

>  <Num_Resolved_Atoms>  (817) 
nan

>  <Num_Not_Resolved_Atoms>  (817) 
nan

$$$$
CHEMBL3670416
     RDKit          3D

  0  0  0  0  0  0  0  0  0  0999 V3000
M  V30 BEGIN CTAB
M  V30 COUNTS 44 46 0 0 0
M  V30 BEGIN ATOM
M  V30 1 C -3.271891 -3.876690 1.679279 0
M  V30 2 O -2.162845 -3.902625 2.553177 0
M  V30 3 C -0.889273 -3.563218 2.106443 0
M  V30 4 C -0.553097 -3.177807 0.825310 0
M  V30 5 C 0.731738 -2.859843 0.471340 0
M  V30 6 C 0.973402 -2.450031 -0.969111 0
M  V30 7 N 0.845480 -1.064214 -1.202018 0
M  V30 8 C 0.717359 0.324765 -1.435876 0
M  V30 9 C 0.917664 0.935192 -2.687003 0
M  V30 10 N 0.770075 2.288443 -2.801600 0
M  V30 11 C 0.437360 3.012529 -1.722392 0
M  V30 12 C 0.235984 2.465603 -0.503485 0
M  V30 13 C -0.100148 3.342817 0.500696 0
M  V30 14 C -0.253269 4.781459 0.371363 0
M  V30 15 N -0.182348 5.858679 -0.540304 0
M  V30 16 O -0.557388 5.576137 1.264296 0
M  V30 17 C -0.324312 2.873864 1.773906 0
M  V30 18 C -0.198589 1.520411 1.985690 0
M  V30 19 C 0.140949 0.711205 0.927794 0
M  V30 20 C 0.374877 1.110300 -0.349056 0
M  V30 21 C 1.725254 -2.925530 1.423083 0
M  V30 22 C 1.427153 -3.306288 2.712556 0
M  V30 23 O 2.389437 -3.384543 3.692551 0
M  V30 24 C 3.737372 -3.071001 3.401174 0
M  V30 25 C 0.113570 -3.628629 3.063406 0
M  V30 26 H -3.608225 -2.839127 1.584001 0
M  V30 27 H -2.976778 -4.336713 0.712609 0
M  V30 28 H -4.110556 -4.428568 2.164890 0
M  V30 29 H -1.392495 -3.147474 0.120362 0
M  V30 30 H 0.276800 -3.116750 -1.584350 0
M  V30 31 H 2.014354 -2.882207 -1.147638 0
M  V30 32 H 1.107634 -1.378845 -2.186369 0
M  V30 33 H 1.184773 0.366161 -3.561209 0
M  V30 34 H 0.357884 4.047428 -1.959547 0
M  V30 35 H 0.676914 6.346372 -0.863531 0
M  V30 36 H 0.624524 6.394002 -0.909720 0
M  V30 37 H -0.591409 3.494416 2.615526 0
M  V30 38 H -0.365189 1.099622 2.973344 0
M  V30 39 H 0.225434 -0.332877 1.144528 0
M  V30 40 H 2.733010 -2.671560 1.127313 0
M  V30 41 H 4.381359 -3.464745 4.228732 0
M  V30 42 H 3.862015 -1.960001 3.348529 0
M  V30 43 H 4.060143 -3.520814 2.433597 0
M  V30 44 H -0.106819 -3.930121 4.095302 0
M  V30 END ATOM
M  V30 BEGIN BOND
M  V30 1 1 1 2
M  V30 2 1 2 3
M  V30 3 2 3 4
M  V30 4 1 4 5
M  V30 5 1 5 6
M  V30 6 1 6 7
M  V30 7 1 7 8
M  V30 8 2 8 9
M  V30 9 1 9 10
M  V30 10 2 10 11
M  V30 11 1 11 12
M  V30 12 2 12 13
M  V30 13 1 13 14
M  V30 14 1 14 15
M  V30 15 2 14 16
M  V30 16 1 13 17
M  V30 17 2 17 18
M  V30 18 1 18 19
M  V30 19 2 19 20
M  V30 20 2 5 21
M  V30 21 1 21 22
M  V30 22 1 22 23
M  V30 23 1 23 24
M  V30 24 2 22 25
M  V30 25 1 25 3
M  V30 26 1 20 8
M  V30 27 1 20 12
M  V30 28 1 1 26
M  V30 29 1 1 27
M  V30 30 1 1 28
M  V30 31 1 4 29
M  V30 32 1 6 30
M  V30 33 1 6 31
M  V30 34 1 7 32
M  V30 35 1 9 33
M  V30 36 1 11 34
M  V30 37 1 15 35
M  V30 38 1 15 36
M  V30 39 1 17 37
M  V30 40 1 18 38
M  V30 41 1 19 39
M  V30 42 1 21 40
M  V30 43 1 24 41
M  V30 44 1 24 42
M  V30 45 1 24 43
M  V30 46 1 25 44
M  V30 END BOND
M  V30 END CTAB
M  END
>  <Dataset>  (818) 
ChEMBL_Kinases

>  <Ligand_Instance>  (818) 
nan

>  <PDB_ID>  (818) 
nan

>  <Standardized_SMILES>  (818) 
COc1cc(CNc2cncc3c(C(N)=O)cccc23)cc(OC)c1

>  <Name>  (818) 
nan

>  <Pocket>  (818) 
nan

>  <ATP_Site>  (818) 
nan

>  <Peripheral>  (818) 
nan

>  <Num_H_Atoms_ProtBoundConf>  (818) 
nan

>  <Num_Resolved_Atoms>  (818) 
nan

>  <Num_Not_Resolved_Atoms>  (818) 
nan

$$$$
CHEMBL3670417
     RDKit          3D

  0  0  0  0  0  0  0  0  0  0999 V3000
M  V30 BEGIN CTAB
M  V30 COUNTS 32 34 0 0 0
M  V30 BEGIN ATOM
M  V30 1 N -2.313987 -2.314746 4.146541 0
M  V30 2 C -1.187274 -3.158213 3.930497 0
M  V30 3 O -0.969083 -4.070033 4.766849 0
M  V30 4 C -0.301560 -2.993324 2.789244 0
M  V30 5 C 0.763961 -3.856444 2.661639 0
M  V30 6 C 1.589922 -3.685254 1.576942 0
M  V30 7 C 1.323974 -2.675968 0.677447 0
M  V30 8 C 0.268639 -1.798655 0.777497 0
M  V30 9 C 0.069559 -0.812580 -0.166280 0
M  V30 10 N 0.924640 -0.643943 -1.286517 0
M  V30 11 C 0.731918 0.388620 -2.287503 0
M  V30 12 C 0.842127 1.744528 -1.685757 0
M  V30 13 C -0.022200 2.652154 -1.159513 0
M  V30 14 C 0.656073 3.774465 -0.736916 0
M  V30 15 C 1.956763 3.494356 -1.034648 0
M  V30 16 O 2.031447 2.309755 -1.583985 0
M  V30 17 N -0.991363 -0.036380 0.058451 0
M  V30 18 C -1.811192 -0.166545 1.088472 0
M  V30 19 N -1.596478 -1.148821 2.011043 0
M  V30 20 C -0.540511 -1.992670 1.870985 0
M  V30 21 H -1.827206 -1.456502 4.504725 0
M  V30 22 H -3.366143 -2.335195 4.049862 0
M  V30 23 H 0.913182 -4.622621 3.400823 0
M  V30 24 H 2.423233 -4.369539 1.488011 0
M  V30 25 H 2.033839 -2.632240 -0.133400 0
M  V30 26 H 1.738644 -1.225157 -1.483558 0
M  V30 27 H 1.405266 0.314843 -3.139932 0
M  V30 28 H -0.307313 0.272725 -2.711111 0
M  V30 29 H -1.078994 2.464235 -1.112134 0
M  V30 30 H 0.202999 4.623724 -0.290743 0
M  V30 31 H 2.811371 4.143967 -0.850556 0
M  V30 32 H -2.676364 0.467160 1.270898 0
M  V30 END ATOM
M  V30 BEGIN BOND
M  V30 1 1 1 2
M  V30 2 2 2 3
M  V30 3 1 2 4
M  V30 4 2 4 5
M  V30 5 1 5 6
M  V30 6 2 6 7
M  V30 7 1 7 8
M  V30 8 2 8 9
M  V30 9 1 9 10
M  V30 10 1 10 11
M  V30 11 1 11 12
M  V30 12 2 12 13
M  V30 13 1 13 14
M  V30 14 2 14 15
M  V30 15 1 15 16
M  V30 16 1 9 17
M  V30 17 2 17 18
M  V30 18 1 18 19
M  V30 19 2 19 20
M  V30 20 1 20 4
M  V30 21 1 20 8
M  V30 22 1 16 12
M  V30 23 1 1 21
M  V30 24 1 1 22
M  V30 25 1 5 23
M  V30 26 1 6 24
M  V30 27 1 7 25
M  V30 28 1 10 26
M  V30 29 1 11 27
M  V30 30 1 11 28
M  V30 31 1 13 29
M  V30 32 1 14 30
M  V30 33 1 15 31
M  V30 34 1 18 32
M  V30 END BOND
M  V30 END CTAB
M  END
>  <Dataset>  (819) 
ChEMBL_Kinases

>  <Ligand_Instance>  (819) 
nan

>  <PDB_ID>  (819) 
nan

>  <Standardized_SMILES>  (819) 
NC(=O)c1cccc2c(NCc3ccco3)ncnc12

>  <Name>  (819) 
nan

>  <Pocket>  (819) 
nan

>  <ATP_Site>  (819) 
nan

>  <Peripheral>  (819) 
nan

>  <Num_H_Atoms_ProtBoundConf>  (819) 
nan

>  <Num_Resolved_Atoms>  (819) 
nan

>  <Num_Not_Resolved_Atoms>  (819) 
nan

$$$$
CHEMBL3670421
     RDKit          3D

  0  0  0  0  0  0  0  0  0  0999 V3000
M  V30 BEGIN CTAB
M  V30 COUNTS 51 54 0 0 0
M  V30 BEGIN ATOM
M  V30 1 N 2.958032 -0.545080 6.803603 0
M  V30 2 C 3.507455 -1.643209 6.085992 0
M  V30 3 O 3.905961 -2.608315 6.786474 0
M  V30 4 C 3.591358 -1.625298 4.630750 0
M  V30 5 C 4.124558 -2.703567 3.959004 0
M  V30 6 C 4.188660 -2.651236 2.565743 0
M  V30 7 C 3.709514 -1.513184 1.951277 0
M  V30 8 C 3.170623 -0.416734 2.583144 0
M  V30 9 C 2.710753 0.688347 1.902100 0
M  V30 10 N 2.771875 0.760362 0.495773 0
M  V30 11 C 2.316917 1.868833 -0.323514 0
M  V30 12 C 0.860227 2.128182 -0.215472 0
M  V30 13 C 0.140829 2.988368 0.572854 0
M  V30 14 C -1.230354 3.032987 0.496116 0
M  V30 15 C -1.968553 2.242246 -0.352461 0
M  V30 16 C -1.262815 1.369842 -1.154630 0
M  V30 17 N -2.023104 0.549779 -2.034679 0
M  V30 18 C -2.608185 -0.719663 -1.927570 0
M  V30 19 O -2.498266 -1.377804 -0.845505 0
M  V30 20 N -3.312969 -1.250982 -3.025483 0
M  V30 21 C -3.880730 -2.553086 -2.835140 0
M  V30 22 C -5.164017 -2.477269 -2.332945 0
M  V30 23 C -5.857225 -3.665507 -2.091196 0
M  V30 24 C -5.213910 -4.854923 -2.370613 0
M  V30 25 C -3.930532 -4.933335 -2.872874 0
M  V30 26 C -3.272499 -3.740266 -3.100769 0
M  V30 27 F -2.025223 -3.688758 -3.585885 0
M  V30 28 C 0.104306 1.325294 -1.077950 0
M  V30 29 N 2.201192 1.711316 2.599596 0
M  V30 30 C 2.158315 1.620067 3.936772 0
M  V30 31 N 2.607737 0.535847 4.634167 0
M  V30 32 C 3.132433 -0.522943 3.953273 0
M  V30 33 H 1.970254 -0.604796 7.140222 0
M  V30 34 H 3.802621 0.089673 6.789539 0
M  V30 35 H 4.490362 -3.579261 4.476441 0
M  V30 36 H 4.602489 -3.489257 2.047772 0
M  V30 37 H 3.796079 -1.555092 0.879643 0
M  V30 38 H 3.160289 0.001197 -0.103798 0
M  V30 39 H 2.582330 1.763432 -1.392275 0
M  V30 40 H 2.831136 2.783529 0.064751 0
M  V30 41 H 0.759743 3.592933 1.214008 0
M  V30 42 H -1.675947 3.767532 1.184487 0
M  V30 43 H -3.044549 2.337190 -0.353280 0
M  V30 44 H -2.086221 1.132945 -2.907670 0
M  V30 45 H -3.395353 -0.699366 -3.908096 0
M  V30 46 H -5.715769 -1.591912 -2.096429 0
M  V30 47 H -6.869885 -3.695225 -1.696987 0
M  V30 48 H -5.751404 -5.789901 -2.183549 0
M  V30 49 H -3.441516 -5.877493 -3.086031 0
M  V30 50 H 0.545134 0.589515 -1.768078 0
M  V30 51 H 1.775550 2.367339 4.614037 0
M  V30 END ATOM
M  V30 BEGIN BOND
M  V30 1 1 1 2
M  V30 2 2 2 3
M  V30 3 1 2 4
M  V30 4 2 4 5
M  V30 5 1 5 6
M  V30 6 2 6 7
M  V30 7 1 7 8
M  V30 8 2 8 9
M  V30 9 1 9 10
M  V30 10 1 10 11
M  V30 11 1 11 12
M  V30 12 2 12 13
M  V30 13 1 13 14
M  V30 14 2 14 15
M  V30 15 1 15 16
M  V30 16 1 16 17
M  V30 17 1 17 18
M  V30 18 2 18 19
M  V30 19 1 18 20
M  V30 20 1 20 21
M  V30 21 2 21 22
M  V30 22 1 22 23
M  V30 23 2 23 24
M  V30 24 1 24 25
M  V30 25 2 25 26
M  V30 26 1 26 27
M  V30 27 2 16 28
M  V30 28 1 9 29
M  V30 29 2 29 30
M  V30 30 1 30 31
M  V30 31 2 31 32
M  V30 32 1 32 4
M  V30 33 1 32 8
M  V30 34 1 28 12
M  V30 35 1 26 21
M  V30 36 1 1 33
M  V30 37 1 1 34
M  V30 38 1 5 35
M  V30 39 1 6 36
M  V30 40 1 7 37
M  V30 41 1 10 38
M  V30 42 1 11 39
M  V30 43 1 11 40
M  V30 44 1 13 41
M  V30 45 1 14 42
M  V30 46 1 15 43
M  V30 47 1 17 44
M  V30 48 1 20 45
M  V30 49 1 22 46
M  V30 50 1 23 47
M  V30 51 1 24 48
M  V30 52 1 25 49
M  V30 53 1 28 50
M  V30 54 1 30 51
M  V30 END BOND
M  V30 END CTAB
M  END
>  <Dataset>  (820) 
ChEMBL_Kinases

>  <Ligand_Instance>  (820) 
nan

>  <PDB_ID>  (820) 
nan

>  <Standardized_SMILES>  (820) 
NC(=O)c1cccc2c(NCc3cccc(NC(=O)Nc4ccccc4F)c3)ncnc12

>  <Name>  (820) 
nan

>  <Pocket>  (820) 
nan

>  <ATP_Site>  (820) 
nan

>  <Peripheral>  (820) 
nan

>  <Num_H_Atoms_ProtBoundConf>  (820) 
nan

>  <Num_Resolved_Atoms>  (820) 
nan

>  <Num_Not_Resolved_Atoms>  (820) 
nan

$$$$
CHEMBL3670424
     RDKit          3D

  0  0  0  0  0  0  0  0  0  0999 V3000
M  V30 BEGIN CTAB
M  V30 COUNTS 55 58 0 0 0
M  V30 BEGIN ATOM
M  V30 1 C 4.972287 0.328117 -0.302797 0
M  V30 2 O 4.205624 1.113980 0.558193 0
M  V30 3 C 4.227850 1.096834 1.933989 0
M  V30 4 C 5.077649 0.232140 2.596234 0
M  V30 5 C 5.113957 0.200512 3.967156 0
M  V30 6 C 4.281204 1.053044 4.664833 0
M  V30 7 C 3.435939 1.913061 4.011412 0
M  V30 8 C 3.387403 1.957166 2.613452 0
M  V30 9 N 2.503851 2.855932 1.943562 0
M  V30 10 C 1.178687 2.446434 1.605925 0
M  V30 11 O 0.739711 1.278706 1.884505 0
M  V30 12 N 0.210229 3.264894 0.936296 0
M  V30 13 C -1.074919 2.703133 0.670428 0
M  V30 14 C -2.098052 2.821102 1.588606 0
M  V30 15 C -3.312295 2.264866 1.287040 0
M  V30 16 C -3.527434 1.605003 0.112223 0
M  V30 17 C -2.552097 1.449202 -0.848840 0
M  V30 18 C -2.596424 0.767908 -2.150582 0
M  V30 19 N -2.125988 -0.606039 -2.056978 0
M  V30 20 C -2.698486 -1.644210 -1.291803 0
M  V30 21 N -3.789282 -1.470702 -0.541688 0
M  V30 22 C -4.394442 -2.394917 0.204634 0
M  V30 23 N -3.853895 -3.632234 0.205495 0
M  V30 24 C -2.759465 -3.908157 -0.514063 0
M  V30 25 C -2.231390 -5.176778 -0.492487 0
M  V30 26 C -2.929218 -6.132475 0.332116 0
M  V30 27 N -2.528322 -7.472598 0.478161 0
M  V30 28 O -3.937911 -6.099511 1.059726 0
M  V30 29 C -1.122087 -5.549393 -1.190264 0
M  V30 30 C -0.539468 -4.533392 -1.949583 0
M  V30 31 C -1.071150 -3.255173 -1.971703 0
M  V30 32 C -2.190509 -2.903534 -1.259689 0
M  V30 33 C -1.321863 2.030326 -0.508717 0
M  V30 34 H 4.462373 -0.640232 -0.470719 0
M  V30 35 H 5.209201 0.858037 -1.258555 0
M  V30 36 H 5.963212 0.127246 0.167440 0
M  V30 37 H 5.744090 -0.450591 2.110123 0
M  V30 38 H 5.763279 -0.459808 4.514173 0
M  V30 39 H 4.296251 1.042021 5.765541 0
M  V30 40 H 2.799135 2.565521 4.605296 0
M  V30 41 H 2.698353 3.819089 1.650054 0
M  V30 42 H 0.534042 4.240283 0.688374 0
M  V30 43 H -1.932232 3.342829 2.519852 0
M  V30 44 H -4.123318 2.349646 1.996797 0
M  V30 45 H -4.479519 1.166060 -0.148701 0
M  V30 46 H -1.996967 1.350683 -2.857520 0
M  V30 47 H -3.645107 0.706124 -2.542952 0
M  V30 48 H -1.279584 -0.774746 -2.635155 0
M  V30 49 H -5.279683 -2.194437 0.793906 0
M  V30 50 H -2.286525 -8.449111 0.591753 0
M  V30 51 H -1.766153 -8.195267 0.478790 0
M  V30 52 H -0.759173 -6.553918 -1.132479 0
M  V30 53 H 0.359586 -4.796943 -2.527226 0
M  V30 54 H -0.536304 -2.568358 -2.588721 0
M  V30 55 H -0.479568 1.971689 -1.187617 0
M  V30 END ATOM
M  V30 BEGIN BOND
M  V30 1 1 1 2
M  V30 2 1 2 3
M  V30 3 2 3 4
M  V30 4 1 4 5
M  V30 5 2 5 6
M  V30 6 1 6 7
M  V30 7 2 7 8
M  V30 8 1 8 9
M  V30 9 1 9 10
M  V30 10 2 10 11
M  V30 11 1 10 12
M  V30 12 1 12 13
M  V30 13 2 13 14
M  V30 14 1 14 15
M  V30 15 2 15 16
M  V30 16 1 16 17
M  V30 17 1 17 18
M  V30 18 1 18 19
M  V30 19 1 19 20
M  V30 20 2 20 21
M  V30 21 1 21 22
M  V30 22 2 22 23
M  V30 23 1 23 24
M  V30 24 2 24 25
M  V30 25 1 25 26
M  V30 26 1 26 27
M  V30 27 2 26 28
M  V30 28 1 25 29
M  V30 29 2 29 30
M  V30 30 1 30 31
M  V30 31 2 31 32
M  V30 32 2 17 33
M  V30 33 1 8 3
M  V30 34 1 33 13
M  V30 35 1 32 20
M  V30 36 1 32 24
M  V30 37 1 1 34
M  V30 38 1 1 35
M  V30 39 1 1 36
M  V30 40 1 4 37
M  V30 41 1 5 38
M  V30 42 1 6 39
M  V30 43 1 7 40
M  V30 44 1 9 41
M  V30 45 1 12 42
M  V30 46 1 14 43
M  V30 47 1 15 44
M  V30 48 1 16 45
M  V30 49 1 18 46
M  V30 50 1 18 47
M  V30 51 1 19 48
M  V30 52 1 22 49
M  V30 53 1 27 50
M  V30 54 1 27 51
M  V30 55 1 29 52
M  V30 56 1 30 53
M  V30 57 1 31 54
M  V30 58 1 33 55
M  V30 END BOND
M  V30 END CTAB
M  END
>  <Dataset>  (821) 
ChEMBL_Kinases

>  <Ligand_Instance>  (821) 
nan

>  <PDB_ID>  (821) 
nan

>  <Standardized_SMILES>  (821) 
COc1ccccc1NC(=O)Nc1cccc(CNc2ncnc3c(C(N)=O)cccc23)c1

>  <Name>  (821) 
nan

>  <Pocket>  (821) 
nan

>  <ATP_Site>  (821) 
nan

>  <Peripheral>  (821) 
nan

>  <Num_H_Atoms_ProtBoundConf>  (821) 
nan

>  <Num_Resolved_Atoms>  (821) 
nan

>  <Num_Not_Resolved_Atoms>  (821) 
nan

$$$$
CHEMBL3808840
     RDKit          3D

  0  0  0  0  0  0  0  0  0  0999 V3000
M  V30 BEGIN CTAB
M  V30 COUNTS 60 64 0 0 0
M  V30 BEGIN ATOM
M  V30 1 C 0.602389 0.172403 6.248602 0
M  V30 2 C 0.876528 -0.875488 5.246640 0
M  V30 3 C 1.059634 -0.691230 3.935927 0
M  V30 4 C 0.986965 0.696565 3.455989 0
M  V30 5 O 0.748109 1.656204 4.252919 0
M  V30 6 N 1.164113 1.122089 2.132084 0
M  V30 7 C 1.123001 2.385629 1.510932 0
M  V30 8 C 0.877943 3.597658 2.104544 0
M  V30 9 C 0.841441 4.816516 1.482561 0
M  V30 10 C 1.071990 4.830192 0.134776 0
M  V30 11 N 1.114228 5.806830 -0.781621 0
M  V30 12 N 1.380311 5.283049 -1.969464 0
M  V30 13 C 1.522240 3.952047 -1.880960 0
M  V30 14 C 1.325275 3.654915 -0.531413 0
M  V30 15 C 1.347963 2.465014 0.151060 0
M  V30 16 C 1.262793 -1.779850 2.945423 0
M  V30 17 C 0.017750 -2.062876 2.145602 0
M  V30 18 C -1.004227 -2.574104 2.954653 0
M  V30 19 C -2.210362 -2.909136 2.378440 0
M  V30 20 C -2.398695 -2.740077 1.024927 0
M  V30 21 F -3.553690 -3.047627 0.402303 0
M  V30 22 C -1.411877 -2.240156 0.206568 0
M  V30 23 C -1.410829 -1.993269 -1.227634 0
M  V30 24 O -0.418437 -1.494256 -1.862348 0
M  V30 25 N -2.436869 -2.234079 -2.171864 0
M  V30 26 C -2.414382 -1.985293 -3.576782 0
M  V30 27 C -1.652473 -2.966438 -4.377898 0
M  V30 28 C -2.331858 -4.103807 -4.827200 0
M  V30 29 C -1.758051 -5.102889 -5.588163 0
M  V30 30 C -0.432598 -4.998496 -5.942030 0
M  V30 31 C 0.278073 -3.887104 -5.517883 0
M  V30 32 C -0.330419 -2.917498 -4.763499 0
M  V30 33 C -0.224375 -1.918713 0.821770 0
M  V30 34 N 1.551103 -3.040971 3.610957 0
M  V30 35 C 1.370292 -3.351027 4.976646 0
M  V30 36 O 1.496796 -4.506934 5.441550 0
M  V30 37 N 1.032429 -2.208861 5.747316 0
M  V30 38 H -0.374191 0.654929 5.958122 0
M  V30 39 H 0.462141 -0.324979 7.245738 0
M  V30 40 H 1.399143 0.947259 6.316650 0
M  V30 41 H 1.381665 0.303546 1.530710 0
M  V30 42 H 0.690665 3.635222 3.167024 0
M  V30 43 H 0.641666 5.735862 2.014109 0
M  V30 44 H 0.954747 6.813045 -0.546125 0
M  V30 45 H 1.743611 3.256124 -2.689656 0
M  V30 46 H 1.552904 1.576574 -0.430691 0
M  V30 47 H 2.069406 -1.534939 2.256664 0
M  V30 48 H -1.061693 -2.784175 4.034353 0
M  V30 49 H -3.093104 -3.317383 2.888212 0
M  V30 50 H -3.320620 -2.654156 -1.755407 0
M  V30 51 H -3.469606 -2.000764 -3.964575 0
M  V30 52 H -2.049051 -0.960417 -3.820265 0
M  V30 53 H -3.391521 -4.239932 -4.574717 0
M  V30 54 H -2.337246 -5.955420 -5.902822 0
M  V30 55 H 0.081001 -5.735250 -6.531118 0
M  V30 56 H 1.328413 -3.773624 -5.780802 0
M  V30 57 H 0.222625 -2.058087 -4.441825 0
M  V30 58 H 0.625490 -1.526230 0.279737 0
M  V30 59 H 1.939026 -3.772580 2.941973 0
M  V30 60 H 0.898977 -2.438523 6.776151 0
M  V30 END ATOM
M  V30 BEGIN BOND
M  V30 1 1 1 2
M  V30 2 2 2 3
M  V30 3 1 3 4
M  V30 4 2 4 5
M  V30 5 1 4 6
M  V30 6 1 6 7
M  V30 7 2 7 8
M  V30 8 1 8 9
M  V30 9 2 9 10
M  V30 10 1 10 11
M  V30 11 1 11 12
M  V30 12 2 12 13
M  V30 13 1 13 14
M  V30 14 2 14 15
M  V30 15 1 3 16
M  V30 16 1 16 17
M  V30 17 2 17 18
M  V30 18 1 18 19
M  V30 19 2 19 20
M  V30 20 1 20 21
M  V30 21 1 20 22
M  V30 22 1 22 23
M  V30 23 2 23 24
M  V30 24 1 23 25
M  V30 25 1 25 26
M  V30 26 1 26 27
M  V30 27 2 27 28
M  V30 28 1 28 29
M  V30 29 2 29 30
M  V30 30 1 30 31
M  V30 31 2 31 32
M  V30 32 2 22 33
M  V30 33 1 16 34
M  V30 34 1 34 35
M  V30 35 2 35 36
M  V30 36 1 35 37
M  V30 37 1 37 2
M  V30 38 1 15 7
M  V30 39 1 33 17
M  V30 40 1 14 10
M  V30 41 1 32 27
M  V30 42 1 1 38
M  V30 43 1 1 39
M  V30 44 1 1 40
M  V30 45 1 6 41
M  V30 46 1 8 42
M  V30 47 1 9 43
M  V30 48 1 11 44
M  V30 49 1 13 45
M  V30 50 1 15 46
M  V30 51 1 16 47
M  V30 52 1 18 48
M  V30 53 1 19 49
M  V30 54 1 25 50
M  V30 55 1 26 51
M  V30 56 1 26 52
M  V30 57 1 28 53
M  V30 58 1 29 54
M  V30 59 1 30 55
M  V30 60 1 31 56
M  V30 61 1 32 57
M  V30 62 1 33 58
M  V30 63 1 34 59
M  V30 64 1 37 60
M  V30 END BOND
M  V30 END CTAB
M  END
>  <Dataset>  (822) 
ChEMBL_Kinases

>  <Ligand_Instance>  (822) 
nan

>  <PDB_ID>  (822) 
nan

>  <Standardized_SMILES>  (822) 
CC1=C(C(=O)Nc2ccc3[nH]ncc3c2)C(c2ccc(F)c(C(=O)NCc3ccccc3)c2)NC(=O)N1

>  <Name>  (822) 
nan

>  <Pocket>  (822) 
nan

>  <ATP_Site>  (822) 
nan

>  <Peripheral>  (822) 
nan

>  <Num_H_Atoms_ProtBoundConf>  (822) 
nan

>  <Num_Resolved_Atoms>  (822) 
nan

>  <Num_Not_Resolved_Atoms>  (822) 
nan

$$$$
CHEMBL3670427
     RDKit          3D

  0  0  0  0  0  0  0  0  0  0999 V3000
M  V30 BEGIN CTAB
M  V30 COUNTS 35 37 0 0 0
M  V30 BEGIN ATOM
M  V30 1 N 1.172224 -1.757242 5.174710 0
M  V30 2 C 1.492756 -2.930242 4.404989 0
M  V30 3 O 1.758565 -4.061628 4.909508 0
M  V30 4 C 1.517074 -2.822767 2.931305 0
M  V30 5 C 1.825981 -3.955788 2.208626 0
M  V30 6 C 1.846643 -3.846289 0.825883 0
M  V30 7 C 1.561624 -2.627901 0.246838 0
M  V30 8 C 1.250841 -1.483388 0.940692 0
M  V30 9 C 0.977098 -0.300257 0.291422 0
M  V30 10 N 0.998608 -0.179657 -1.119849 0
M  V30 11 C 0.722431 1.020104 -1.857011 0
M  V30 12 C -0.647589 1.561843 -1.663264 0
M  V30 13 C -1.099892 2.515016 -0.775990 0
M  V30 14 C -2.430879 2.871835 -0.749786 0
M  V30 15 F -2.799810 3.820381 0.155107 0
M  V30 16 C -3.379367 2.317972 -1.584892 0
M  V30 17 C -2.962543 1.360746 -2.486346 0
M  V30 18 F -3.856725 0.794365 -3.320642 0
M  V30 19 C -1.632159 1.016953 -2.498682 0
M  V30 20 N 0.696189 0.707485 1.111052 0
M  V30 21 C 0.675814 0.603871 2.442991 0
M  V30 22 N 0.945584 -0.561038 3.075424 0
M  V30 23 C 1.241297 -1.635309 2.309232 0
M  V30 24 H 0.214216 -2.026018 5.483727 0
M  V30 25 H 0.210969 -2.072238 5.460869 0
M  V30 26 H 2.043155 -4.889495 2.688286 0
M  V30 27 H 2.089980 -4.740642 0.269868 0
M  V30 28 H 1.606374 -2.658331 -0.821825 0
M  V30 29 H 1.223740 -0.980972 -1.744105 0
M  V30 30 H 1.434891 1.840683 -1.527477 0
M  V30 31 H 0.866624 0.920726 -2.930779 0
M  V30 32 H -0.336790 2.931426 -0.145674 0
M  V30 33 H -4.401068 2.660250 -1.492532 0
M  V30 34 H -1.371080 0.251438 -3.238657 0
M  V30 35 H 0.439386 1.462653 3.056271 0
M  V30 END ATOM
M  V30 BEGIN BOND
M  V30 1 1 1 2
M  V30 2 2 2 3
M  V30 3 1 2 4
M  V30 4 2 4 5
M  V30 5 1 5 6
M  V30 6 2 6 7
M  V30 7 1 7 8
M  V30 8 2 8 9
M  V30 9 1 9 10
M  V30 10 1 10 11
M  V30 11 1 11 12
M  V30 12 2 12 13
M  V30 13 1 13 14
M  V30 14 1 14 15
M  V30 15 2 14 16
M  V30 16 1 16 17
M  V30 17 1 17 18
M  V30 18 2 17 19
M  V30 19 1 9 20
M  V30 20 2 20 21
M  V30 21 1 21 22
M  V30 22 2 22 23
M  V30 23 1 23 4
M  V30 24 1 23 8
M  V30 25 1 19 12
M  V30 26 1 1 24
M  V30 27 1 1 25
M  V30 28 1 5 26
M  V30 29 1 6 27
M  V30 30 1 7 28
M  V30 31 1 10 29
M  V30 32 1 11 30
M  V30 33 1 11 31
M  V30 34 1 13 32
M  V30 35 1 16 33
M  V30 36 1 19 34
M  V30 37 1 21 35
M  V30 END BOND
M  V30 END CTAB
M  END
>  <Dataset>  (823) 
ChEMBL_Kinases

>  <Ligand_Instance>  (823) 
nan

>  <PDB_ID>  (823) 
nan

>  <Standardized_SMILES>  (823) 
NC(=O)c1cccc2c(NCc3cc(F)cc(F)c3)ncnc12

>  <Name>  (823) 
nan

>  <Pocket>  (823) 
nan

>  <ATP_Site>  (823) 
nan

>  <Peripheral>  (823) 
nan

>  <Num_H_Atoms_ProtBoundConf>  (823) 
nan

>  <Num_Resolved_Atoms>  (823) 
nan

>  <Num_Not_Resolved_Atoms>  (823) 
nan

$$$$
CHEMBL3670433
     RDKit          3D

  0  0  0  0  0  0  0  0  0  0999 V3000
M  V30 BEGIN CTAB
M  V30 COUNTS 55 58 0 0 0
M  V30 BEGIN ATOM
M  V30 1 C 4.019488 -3.451743 3.680625 0
M  V30 2 O 4.112355 -2.385032 4.573670 0
M  V30 3 C 4.202796 -1.052918 4.289968 0
M  V30 4 C 4.288833 -0.103660 5.296738 0
M  V30 5 C 4.379357 1.222107 5.025372 0
M  V30 6 C 4.391777 1.706045 3.742658 0
M  V30 7 C 4.308028 0.794474 2.714536 0
M  V30 8 N 4.302448 1.086291 1.293299 0
M  V30 9 C 3.116486 1.342872 0.457744 0
M  V30 10 O 2.489417 1.152076 1.606918 0
M  V30 11 N 2.851245 1.653168 -0.969577 0
M  V30 12 C 1.459882 1.732011 -0.955988 0
M  V30 13 C 1.236485 2.123078 -2.304476 0
M  V30 14 C -0.058737 2.344591 -2.819133 0
M  V30 15 C -1.096203 2.155498 -1.923138 0
M  V30 16 C -0.891474 1.777044 -0.619977 0
M  V30 17 C -1.925686 1.535773 0.436089 0
M  V30 18 N -2.349518 0.176677 0.539906 0
M  V30 19 C -3.040907 -0.579203 -0.447421 0
M  V30 20 N -3.390946 -0.053252 -1.625002 0
M  V30 21 C -4.047193 -0.706327 -2.580953 0
M  V30 22 N -4.413659 -1.978345 -2.422358 0
M  V30 23 C -4.093422 -2.570270 -1.261195 0
M  V30 24 C -4.459506 -3.878420 -1.073850 0
M  V30 25 C -5.175182 -4.570265 -2.125021 0
M  V30 26 N -5.502592 -3.921450 -3.338283 0
M  V30 27 O -5.617998 -5.728296 -2.221170 0
M  V30 28 C -4.176835 -4.568949 0.078683 0
M  V30 29 C -3.502033 -3.875394 1.043760 0
M  V30 30 C -3.123960 -2.563386 0.880437 0
M  V30 31 C -3.418802 -1.893402 -0.283085 0
M  V30 32 C 0.383453 1.582184 -0.196278 0
M  V30 33 C 4.215523 -0.559576 2.983534 0
M  V30 34 H 3.214582 -3.236281 2.953017 0
M  V30 35 H 4.980983 -3.700323 3.183127 0
M  V30 36 H 3.663111 -4.328604 4.273765 0
M  V30 37 H 4.279616 -0.480091 6.327973 0
M  V30 38 H 4.446546 1.962872 5.832777 0
M  V30 39 H 4.460620 2.740582 3.433366 0
M  V30 40 H 5.220125 1.131911 0.745241 0
M  V30 41 H 3.851322 1.594325 -0.968466 0
M  V30 42 H 1.895254 2.325418 -3.166147 0
M  V30 43 H -0.391217 2.635580 -3.786421 0
M  V30 44 H -2.130923 2.306983 -2.202926 0
M  V30 45 H -2.811519 2.198113 0.229624 0
M  V30 46 H -1.554039 1.890753 1.416831 0
M  V30 47 H -2.109695 -0.276183 1.446539 0
M  V30 48 H -4.307772 -0.229727 -3.523332 0
M  V30 49 H -5.762947 -3.451279 -4.197923 0
M  V30 50 H -4.835472 -3.824432 -4.156243 0
M  V30 51 H -4.511186 -5.584319 0.115884 0
M  V30 52 H -3.268336 -4.405292 1.961020 0
M  V30 53 H -2.596417 -2.121729 1.707744 0
M  V30 54 H 0.592831 1.287326 0.784914 0
M  V30 55 H 4.146696 -1.320538 2.219853 0
M  V30 END ATOM
M  V30 BEGIN BOND
M  V30 1 1 1 2
M  V30 2 1 2 3
M  V30 3 2 3 4
M  V30 4 1 4 5
M  V30 5 2 5 6
M  V30 6 1 6 7
M  V30 7 1 7 8
M  V30 8 1 8 9
M  V30 9 2 9 10
M  V30 10 1 9 11
M  V30 11 1 11 12
M  V30 12 2 12 13
M  V30 13 1 13 14
M  V30 14 2 14 15
M  V30 15 1 15 16
M  V30 16 1 16 17
M  V30 17 1 17 18
M  V30 18 1 18 19
M  V30 19 2 19 20
M  V30 20 1 20 21
M  V30 21 2 21 22
M  V30 22 1 22 23
M  V30 23 2 23 24
M  V30 24 1 24 25
M  V30 25 1 25 26
M  V30 26 2 25 27
M  V30 27 1 24 28
M  V30 28 2 28 29
M  V30 29 1 29 30
M  V30 30 2 30 31
M  V30 31 2 16 32
M  V30 32 2 7 33
M  V30 33 1 33 3
M  V30 34 1 32 12
M  V30 35 1 31 19
M  V30 36 1 31 23
M  V30 37 1 1 34
M  V30 38 1 1 35
M  V30 39 1 1 36
M  V30 40 1 4 37
M  V30 41 1 5 38
M  V30 42 1 6 39
M  V30 43 1 8 40
M  V30 44 1 11 41
M  V30 45 1 13 42
M  V30 46 1 14 43
M  V30 47 1 15 44
M  V30 48 1 17 45
M  V30 49 1 17 46
M  V30 50 1 18 47
M  V30 51 1 21 48
M  V30 52 1 26 49
M  V30 53 1 26 50
M  V30 54 1 28 51
M  V30 55 1 29 52
M  V30 56 1 30 53
M  V30 57 1 32 54
M  V30 58 1 33 55
M  V30 END BOND
M  V30 END CTAB
M  END
>  <Dataset>  (824) 
ChEMBL_Kinases

>  <Ligand_Instance>  (824) 
nan

>  <PDB_ID>  (824) 
nan

>  <Standardized_SMILES>  (824) 
COc1cccc(NC(=O)Nc2cccc(CNc3ncnc4c(C(N)=O)cccc34)c2)c1

>  <Name>  (824) 
nan

>  <Pocket>  (824) 
nan

>  <ATP_Site>  (824) 
nan

>  <Peripheral>  (824) 
nan

>  <Num_H_Atoms_ProtBoundConf>  (824) 
nan

>  <Num_Resolved_Atoms>  (824) 
nan

>  <Num_Not_Resolved_Atoms>  (824) 
nan

$$$$
CHEMBL3670434
     RDKit          3D

  0  0  0  0  0  0  0  0  0  0999 V3000
M  V30 BEGIN CTAB
M  V30 COUNTS 53 56 0 0 0
M  V30 BEGIN ATOM
M  V30 1 N 3.054994 -2.852787 3.582664 0
M  V30 2 C 3.901732 -1.806486 4.015144 0
M  V30 3 O 4.191182 -2.497175 5.003401 0
M  V30 4 C 4.041251 -0.583279 3.246191 0
M  V30 5 C 4.881517 0.372043 3.763695 0
M  V30 6 C 5.013544 1.535877 3.033428 0
M  V30 7 C 4.309854 1.673073 1.848680 0
M  V30 8 C 3.496893 0.686404 1.395852 0
M  V30 9 C 2.791098 0.833767 0.202633 0
M  V30 10 N 2.882063 1.985463 -0.595120 0
M  V30 11 C 2.184574 2.252803 -1.861212 0
M  V30 12 C 0.729118 2.286398 -1.587578 0
M  V30 13 C 0.256441 3.523079 -1.145765 0
M  V30 14 C -1.068933 3.761460 -0.827694 0
M  V30 15 C -2.012476 2.765460 -0.932804 0
M  V30 16 C -1.538696 1.555675 -1.366807 0
M  V30 17 N -2.371315 0.372084 -1.508990 0
M  V30 18 C -2.322045 -0.377800 -0.264498 0
M  V30 19 O -1.726243 -0.139709 0.774142 0
M  V30 20 N -3.186396 -1.435546 -0.706088 0
M  V30 21 C -3.386326 -2.439674 0.391639 0
M  V30 22 O -2.784737 -2.203111 1.497775 0
M  V30 23 C -4.139071 -3.715077 0.572260 0
M  V30 24 C -4.717283 -4.256877 -0.586358 0
M  V30 25 C -5.472442 -5.414562 -0.583909 0
M  V30 26 C -5.654874 -6.050350 0.615259 0
M  V30 27 C -5.066296 -5.478080 1.718452 0
M  V30 28 C -4.313436 -4.340039 1.770886 0
M  V30 29 C -0.219356 1.293746 -1.691707 0
M  V30 30 N 2.013471 -0.196483 -0.158128 0
M  V30 31 C 1.867236 -1.334952 0.528783 0
M  V30 32 N 2.540184 -1.495416 1.683133 0
M  V30 33 C 3.322957 -0.497296 2.078960 0
M  V30 34 H 2.208408 -3.314971 3.186401 0
M  V30 35 H 2.689007 -3.779919 3.361719 0
M  V30 36 H 5.378629 0.144853 4.711679 0
M  V30 37 H 5.687848 2.301303 3.442771 0
M  V30 38 H 4.454438 2.591185 1.341171 0
M  V30 39 H 3.482250 2.793802 -0.348318 0
M  V30 40 H 2.474026 3.213071 -2.314469 0
M  V30 41 H 2.412140 1.437319 -2.586716 0
M  V30 42 H 0.915893 4.378307 -1.020452 0
M  V30 43 H -1.388814 4.743907 -0.489581 0
M  V30 44 H -3.061892 2.861298 -0.703123 0
M  V30 45 H -2.892453 0.176828 -2.422062 0
M  V30 46 H -3.764734 -2.144258 -1.000093 0
M  V30 47 H -4.640892 -3.838953 -1.601790 0
M  V30 48 H -5.927424 -5.855515 -1.454877 0
M  V30 49 H -6.233514 -6.958670 0.704601 0
M  V30 50 H -5.163576 -5.925058 2.719562 0
M  V30 51 H -3.870572 -3.920563 2.636651 0
M  V30 52 H 0.150760 0.346288 -2.047840 0
M  V30 53 H 1.178355 -2.046871 0.046046 0
M  V30 END ATOM
M  V30 BEGIN BOND
M  V30 1 1 1 2
M  V30 2 2 2 3
M  V30 3 1 2 4
M  V30 4 2 4 5
M  V30 5 1 5 6
M  V30 6 2 6 7
M  V30 7 1 7 8
M  V30 8 2 8 9
M  V30 9 1 9 10
M  V30 10 1 10 11
M  V30 11 1 11 12
M  V30 12 2 12 13
M  V30 13 1 13 14
M  V30 14 2 14 15
M  V30 15 1 15 16
M  V30 16 1 16 17
M  V30 17 1 17 18
M  V30 18 2 18 19
M  V30 19 1 18 20
M  V30 20 1 20 21
M  V30 21 2 21 22
M  V30 22 1 21 23
M  V30 23 2 23 24
M  V30 24 1 24 25
M  V30 25 2 25 26
M  V30 26 1 26 27
M  V30 27 2 27 28
M  V30 28 2 16 29
M  V30 29 1 9 30
M  V30 30 2 30 31
M  V30 31 1 31 32
M  V30 32 2 32 33
M  V30 33 1 33 4
M  V30 34 1 33 8
M  V30 35 1 29 12
M  V30 36 1 28 23
M  V30 37 1 1 34
M  V30 38 1 1 35
M  V30 39 1 5 36
M  V30 40 1 6 37
M  V30 41 1 7 38
M  V30 42 1 10 39
M  V30 43 1 11 40
M  V30 44 1 11 41
M  V30 45 1 13 42
M  V30 46 1 14 43
M  V30 47 1 15 44
M  V30 48 1 17 45
M  V30 49 1 20 46
M  V30 50 1 24 47
M  V30 51 1 25 48
M  V30 52 1 26 49
M  V30 53 1 27 50
M  V30 54 1 28 51
M  V30 55 1 29 52
M  V30 56 1 31 53
M  V30 END BOND
M  V30 END CTAB
M  END
>  <Dataset>  (825) 
ChEMBL_Kinases

>  <Ligand_Instance>  (825) 
nan

>  <PDB_ID>  (825) 
nan

>  <Standardized_SMILES>  (825) 
NC(=O)c1cccc2c(NCc3cccc(NC(=O)NC(=O)c4ccccc4)c3)ncnc12

>  <Name>  (825) 
nan

>  <Pocket>  (825) 
nan

>  <ATP_Site>  (825) 
nan

>  <Peripheral>  (825) 
nan

>  <Num_H_Atoms_ProtBoundConf>  (825) 
nan

>  <Num_Resolved_Atoms>  (825) 
nan

>  <Num_Not_Resolved_Atoms>  (825) 
nan

$$$$
CHEMBL3670439
     RDKit          3D

  0  0  0  0  0  0  0  0  0  0999 V3000
M  V30 BEGIN CTAB
M  V30 COUNTS 44 47 0 0 0
M  V30 BEGIN ATOM
M  V30 1 C 0.579875 -2.511965 3.158495 0
M  V30 2 C -0.322338 -1.512820 2.529995 0 CFG=1
M  V30 3 N 0.203749 -0.304417 1.999861 0
M  V30 4 C 1.423823 -0.028989 1.345370 0
M  V30 5 N 2.369569 -0.944213 1.129588 0
M  V30 6 C 3.533138 -0.684826 0.527307 0
M  V30 7 N 3.875411 0.553808 0.067663 0
M  V30 8 C 2.943386 1.517764 0.265451 0
M  V30 9 C 3.243876 2.784808 -0.178539 0
M  V30 10 C 4.517571 3.046050 -0.832642 0
M  V30 11 N 4.880530 4.336640 -1.303426 0
M  V30 12 O 5.493622 2.349570 -1.124125 0
M  V30 13 C 2.375978 3.843095 -0.030150 0
M  V30 14 C 1.175993 3.568245 0.593004 0
M  V30 15 C 0.895337 2.305777 1.026844 0
M  V30 16 C 1.748527 1.233705 0.888266 0
M  V30 17 C -1.570165 -2.009072 1.936565 0
M  V30 18 C -2.822745 -1.937243 2.572490 0
M  V30 19 C -4.045649 -2.357722 2.100347 0
M  V30 20 C -4.068919 -2.923995 0.847449 0
M  V30 21 C -2.907752 -3.045182 0.137210 0
M  V30 22 C -2.960411 -3.619583 -1.106854 0
M  V30 23 C -1.820818 -3.776361 -1.870184 0
M  V30 24 C -0.614007 -3.334031 -1.339660 0
M  V30 25 C -0.628979 -2.766305 -0.086276 0
M  V30 26 C -1.744194 -2.593982 0.700577 0
M  V30 27 H 0.726647 -3.350893 2.445456 0
M  V30 28 H 1.560462 -2.176565 3.447029 0
M  V30 29 H 0.176053 -3.021097 4.063940 0
M  V30 30 H -0.754136 -1.072694 3.548485 0
M  V30 31 H -0.459585 0.498074 2.119312 0
M  V30 32 H 4.190467 -1.563431 0.435769 0
M  V30 33 H 4.553353 5.194727 -0.864369 0
M  V30 34 H 4.551412 5.252295 -0.861070 0
M  V30 35 H 2.604327 4.840518 -0.375761 0
M  V30 36 H 0.499012 4.403294 0.706539 0
M  V30 37 H -0.049945 2.200979 1.493317 0
M  V30 38 H -2.878844 -1.493756 3.582869 0
M  V30 39 H -4.949769 -2.252205 2.679219 0
M  V30 40 H -4.998415 -3.257508 0.457012 0
M  V30 41 H -3.927329 -3.958755 -1.498296 0
M  V30 42 H -1.841901 -4.227051 -2.853416 0
M  V30 43 H 0.322833 -3.430765 -1.895194 0
M  V30 44 H 0.318834 -2.444741 0.292116 0
M  V30 END ATOM
M  V30 BEGIN BOND
M  V30 1 1 1 2
M  V30 2 1 2 3
M  V30 3 1 3 4
M  V30 4 2 4 5
M  V30 5 1 5 6
M  V30 6 2 6 7
M  V30 7 1 7 8
M  V30 8 2 8 9
M  V30 9 1 9 10
M  V30 10 1 10 11
M  V30 11 2 10 12
M  V30 12 1 9 13
M  V30 13 2 13 14
M  V30 14 1 14 15
M  V30 15 2 15 16
M  V30 16 1 2 17
M  V30 17 2 17 18
M  V30 18 1 18 19
M  V30 19 2 19 20
M  V30 20 1 20 21
M  V30 21 2 21 22
M  V30 22 1 22 23
M  V30 23 2 23 24
M  V30 24 1 24 25
M  V30 25 2 25 26
M  V30 26 1 16 4
M  V30 27 1 26 17
M  V30 28 1 16 8
M  V30 29 1 26 21
M  V30 30 1 1 27
M  V30 31 1 1 28
M  V30 32 1 1 29
M  V30 33 1 2 30 CFG=1
M  V30 34 1 3 31
M  V30 35 1 6 32
M  V30 36 1 11 33
M  V30 37 1 11 34
M  V30 38 1 13 35
M  V30 39 1 14 36
M  V30 40 1 15 37
M  V30 41 1 18 38
M  V30 42 1 19 39
M  V30 43 1 20 40
M  V30 44 1 22 41
M  V30 45 1 23 42
M  V30 46 1 24 43
M  V30 47 1 25 44
M  V30 END BOND
M  V30 END CTAB
M  END
>  <Dataset>  (826) 
ChEMBL_Kinases

>  <Ligand_Instance>  (826) 
nan

>  <PDB_ID>  (826) 
nan

>  <Standardized_SMILES>  (826) 
C[C@@H](Nc1ncnc2c(C(N)=O)cccc12)c1cccc2ccccc12

>  <Name>  (826) 
nan

>  <Pocket>  (826) 
nan

>  <ATP_Site>  (826) 
nan

>  <Peripheral>  (826) 
nan

>  <Num_H_Atoms_ProtBoundConf>  (826) 
nan

>  <Num_Resolved_Atoms>  (826) 
nan

>  <Num_Not_Resolved_Atoms>  (826) 
nan

$$$$
CHEMBL5076098
     RDKit          3D

  0  0  0  0  0  0  0  0  0  0999 V3000
M  V30 BEGIN CTAB
M  V30 COUNTS 36 38 0 0 0
M  V30 BEGIN ATOM
M  V30 1 C 1.372892 -0.851177 1.924187 0
M  V30 2 N 1.054223 -1.532791 0.677105 0
M  V30 3 C 0.442991 -2.846505 0.733829 0
M  V30 4 C 1.386745 -3.906721 1.273083 0
M  V30 5 O 1.814765 -3.623874 2.550877 0
M  V30 6 C 1.337808 -0.938262 -0.582727 0
M  V30 7 N 2.311911 -1.605136 -1.245549 0
M  V30 8 C 2.691271 -1.104850 -2.453174 0
M  V30 9 N 2.177329 0.008524 -3.054715 0
M  V30 10 C 1.209624 0.670968 -2.397554 0
M  V30 11 N 0.451850 1.751993 -2.580576 0
M  V30 12 C -0.398374 1.973917 -1.554358 0
M  V30 13 C -0.183672 0.960015 -0.623637 0
M  V30 14 C -0.987690 0.895536 0.589696 0
M  V30 15 C -0.976791 2.033362 1.379092 0
M  V30 16 C -1.704704 2.143850 2.552955 0
M  V30 17 C -2.467031 1.053785 2.928420 0
M  V30 18 C -2.506496 -0.097637 2.171599 0
M  V30 19 Cl -3.435171 -1.533667 2.552944 0
M  V30 20 C -1.765068 -0.161533 1.010256 0
M  V30 21 C 0.809364 0.184370 -1.176604 0
M  V30 22 H 0.513907 -0.923340 2.626729 0
M  V30 23 H 2.231264 -1.332950 2.462831 0
M  V30 24 H 1.561905 0.228764 1.760068 0
M  V30 25 H -0.517990 -2.847179 1.305717 0
M  V30 26 H 0.181476 -3.164185 -0.294578 0
M  V30 27 H 2.245835 -4.068277 0.592157 0
M  V30 28 H 0.837436 -4.873776 1.311101 0
M  V30 29 H 2.610768 -4.106251 2.827048 0
M  V30 30 H 3.471053 -1.576187 -3.064113 0
M  V30 31 H 0.519736 2.361919 -3.442287 0
M  V30 32 H -1.101815 2.803392 -1.507736 0
M  V30 33 H -0.402427 2.939473 1.157704 0
M  V30 34 H -1.724812 3.010135 3.197585 0
M  V30 35 H -3.088225 0.977438 3.812019 0
M  V30 36 H -1.760220 -1.030016 0.375587 0
M  V30 END ATOM
M  V30 BEGIN BOND
M  V30 1 1 1 2
M  V30 2 1 2 3
M  V30 3 1 3 4
M  V30 4 1 4 5
M  V30 5 1 2 6
M  V30 6 2 6 7
M  V30 7 1 7 8
M  V30 8 2 8 9
M  V30 9 1 9 10
M  V30 10 1 10 11
M  V30 11 1 11 12
M  V30 12 2 12 13
M  V30 13 1 13 14
M  V30 14 2 14 15
M  V30 15 1 15 16
M  V30 16 2 16 17
M  V30 17 1 17 18
M  V30 18 1 18 19
M  V30 19 2 18 20
M  V30 20 1 13 21
M  V30 21 1 21 6
M  V30 22 2 21 10
M  V30 23 1 20 14
M  V30 24 1 1 22
M  V30 25 1 1 23
M  V30 26 1 1 24
M  V30 27 1 3 25
M  V30 28 1 3 26
M  V30 29 1 4 27
M  V30 30 1 4 28
M  V30 31 1 5 29
M  V30 32 1 8 30
M  V30 33 1 11 31
M  V30 34 1 12 32
M  V30 35 1 15 33
M  V30 36 1 16 34
M  V30 37 1 17 35
M  V30 38 1 20 36
M  V30 END BOND
M  V30 END CTAB
M  END
>  <Dataset>  (827) 
ChEMBL_Kinases

>  <Ligand_Instance>  (827) 
nan

>  <PDB_ID>  (827) 
nan

>  <Standardized_SMILES>  (827) 
CN(CCO)c1ncnc2[nH]cc(-c3cccc(Cl)c3)c12

>  <Name>  (827) 
nan

>  <Pocket>  (827) 
nan

>  <ATP_Site>  (827) 
nan

>  <Peripheral>  (827) 
nan

>  <Num_H_Atoms_ProtBoundConf>  (827) 
nan

>  <Num_Resolved_Atoms>  (827) 
nan

>  <Num_Not_Resolved_Atoms>  (827) 
nan

$$$$
CHEMBL3670445
     RDKit          3D

  0  0  0  0  0  0  0  0  0  0999 V3000
M  V30 BEGIN CTAB
M  V30 COUNTS 39 41 0 0 0
M  V30 BEGIN ATOM
M  V30 1 N -2.841692 -5.295794 1.753631 0
M  V30 2 C -1.575868 -5.823852 1.404797 0
M  V30 3 O -1.395106 -7.008586 1.763266 0
M  V30 4 C -0.516757 -5.126171 0.693541 0
M  V30 5 C 0.635204 -5.805037 0.449113 0
M  V30 6 C 1.642393 -5.144661 -0.226153 0
M  V30 7 C 1.524316 -3.836952 -0.656839 0
M  V30 8 C 0.359974 -3.136525 -0.415034 0
M  V30 9 C 0.079174 -1.730845 -0.811999 0
M  V30 10 N 0.481231 -0.805347 0.215264 0
M  V30 11 C 0.280436 0.567544 -0.011168 0
M  V30 12 N -0.271780 1.022521 -1.152487 0
M  V30 13 C -0.487398 2.323538 -1.422692 0
M  V30 14 N -0.164232 3.304800 -0.559953 0
M  V30 15 C 0.392771 2.923256 0.603341 0
M  V30 16 C 0.734028 3.909899 1.506605 0
M  V30 17 C 0.493774 5.314247 1.198409 0
M  V30 18 N 0.856513 6.307313 2.149888 0
M  V30 19 O -0.031051 5.588266 0.088922 0
M  V30 20 C 1.314062 3.543969 2.722864 0
M  V30 21 C 1.532281 2.209737 2.993596 0
M  V30 22 C 1.176253 1.264058 2.064304 0
M  V30 23 C 0.606526 1.584813 0.863614 0
M  V30 24 C -0.640504 -3.833224 0.270722 0
M  V30 25 H -2.577817 -4.619074 2.489516 0
M  V30 26 H -3.817679 -5.455181 1.440354 0
M  V30 27 H 0.769524 -6.827376 0.767786 0
M  V30 28 H 2.579248 -5.672772 -0.433772 0
M  V30 29 H 2.294355 -3.310649 -1.180987 0
M  V30 30 H 0.736120 -1.514405 -1.695708 0
M  V30 31 H -0.946734 -1.573061 -1.147741 0
M  V30 32 H 0.901077 -1.218721 1.072490 0
M  V30 33 H -0.942545 2.595790 -2.379430 0
M  V30 34 H 1.805552 6.433210 2.530366 0
M  V30 35 H 0.247900 7.031568 2.592559 0
M  V30 36 H 1.594534 4.287342 3.454701 0
M  V30 37 H 1.976053 1.953858 3.927897 0
M  V30 38 H 1.369715 0.258722 2.332040 0
M  V30 39 H -1.586886 -3.327022 0.490490 0
M  V30 END ATOM
M  V30 BEGIN BOND
M  V30 1 1 1 2
M  V30 2 2 2 3
M  V30 3 1 2 4
M  V30 4 2 4 5
M  V30 5 1 5 6
M  V30 6 2 6 7
M  V30 7 1 7 8
M  V30 8 1 8 9
M  V30 9 1 9 10
M  V30 10 1 10 11
M  V30 11 2 11 12
M  V30 12 1 12 13
M  V30 13 2 13 14
M  V30 14 1 14 15
M  V30 15 2 15 16
M  V30 16 1 16 17
M  V30 17 1 17 18
M  V30 18 2 17 19
M  V30 19 1 16 20
M  V30 20 2 20 21
M  V30 21 1 21 22
M  V30 22 2 22 23
M  V30 23 2 8 24
M  V30 24 1 24 4
M  V30 25 1 23 11
M  V30 26 1 23 15
M  V30 27 1 1 25
M  V30 28 1 1 26
M  V30 29 1 5 27
M  V30 30 1 6 28
M  V30 31 1 7 29
M  V30 32 1 9 30
M  V30 33 1 9 31
M  V30 34 1 10 32
M  V30 35 1 13 33
M  V30 36 1 18 34
M  V30 37 1 18 35
M  V30 38 1 20 36
M  V30 39 1 21 37
M  V30 40 1 22 38
M  V30 41 1 24 39
M  V30 END BOND
M  V30 END CTAB
M  END
>  <Dataset>  (828) 
ChEMBL_Kinases

>  <Ligand_Instance>  (828) 
nan

>  <PDB_ID>  (828) 
nan

>  <Standardized_SMILES>  (828) 
NC(=O)c1cccc(CNc2ncnc3c(C(N)=O)cccc23)c1

>  <Name>  (828) 
nan

>  <Pocket>  (828) 
nan

>  <ATP_Site>  (828) 
nan

>  <Peripheral>  (828) 
nan

>  <Num_H_Atoms_ProtBoundConf>  (828) 
nan

>  <Num_Resolved_Atoms>  (828) 
nan

>  <Num_Not_Resolved_Atoms>  (828) 
nan

$$$$
CHEMBL3670446
     RDKit          3D

  0  0  0  0  0  0  0  0  0  0999 V3000
M  V30 BEGIN CTAB
M  V30 COUNTS 42 44 0 0 0
M  V30 BEGIN ATOM
M  V30 1 C 3.848580 -6.880173 0.420933 0
M  V30 2 N 2.544496 -6.475376 -0.006299 0
M  V30 3 C 2.428242 -5.063582 -0.117577 0
M  V30 4 O 3.478577 -4.412913 0.174892 0
M  V30 5 C 1.201023 -4.375425 -0.536242 0
M  V30 6 C 0.034406 -5.041579 -0.857545 0
M  V30 7 C -1.053478 -4.302856 -1.237914 0
M  V30 8 C -1.057382 -2.937426 -1.320146 0
M  V30 9 C 0.120994 -2.257653 -0.995901 0
M  V30 10 C 0.249592 -0.793607 -1.043860 0
M  V30 11 N -0.102450 -0.139770 0.217862 0
M  V30 12 C -0.009988 1.278003 0.296133 0
M  V30 13 N 0.392891 1.990091 -0.770404 0
M  V30 14 C 0.492639 3.336346 -0.732414 0
M  V30 15 N 0.199075 4.084199 0.371673 0
M  V30 16 C -0.210571 3.374823 1.459150 0
M  V30 17 C -0.516736 4.107417 2.598514 0
M  V30 18 C -0.397965 5.568773 2.607572 0
M  V30 19 N -0.738993 6.227556 3.845951 0
M  V30 20 O -0.013392 6.132085 1.551353 0
M  V30 21 C -0.931704 3.389115 3.701090 0
M  V30 22 C -1.055012 2.013974 3.729105 0
M  V30 23 C -0.733866 1.346268 2.560024 0
M  V30 24 C -0.318255 1.989361 1.435926 0
M  V30 25 C 1.212556 -3.017911 -0.613126 0
M  V30 26 H 3.899818 -7.920483 0.801951 0
M  V30 27 H 4.600660 -6.836081 -0.404952 0
M  V30 28 H 4.270833 -6.207797 1.218837 0
M  V30 29 H 1.729615 -7.064168 -0.228543 0
M  V30 30 H 0.010852 -6.115977 -0.801184 0
M  V30 31 H -2.003100 -4.779320 -1.503149 0
M  V30 32 H -1.855968 -2.280283 -1.606303 0
M  V30 33 H 1.235494 -0.446989 -1.402283 0
M  V30 34 H -0.483345 -0.419104 -1.817861 0
M  V30 35 H -0.392070 -0.786534 0.951188 0
M  V30 36 H 0.826851 3.879447 -1.629822 0
M  V30 37 H -0.204090 6.064476 4.740700 0
M  V30 38 H -1.564967 6.795868 3.496027 0
M  V30 39 H -1.187890 3.915089 4.632182 0
M  V30 40 H -1.384818 1.470957 4.612703 0
M  V30 41 H -0.833139 0.282136 2.592474 0
M  V30 42 H 2.136880 -2.483522 -0.359003 0
M  V30 END ATOM
M  V30 BEGIN BOND
M  V30 1 1 1 2
M  V30 2 1 2 3
M  V30 3 2 3 4
M  V30 4 1 3 5
M  V30 5 2 5 6
M  V30 6 1 6 7
M  V30 7 2 7 8
M  V30 8 1 8 9
M  V30 9 1 9 10
M  V30 10 1 10 11
M  V30 11 1 11 12
M  V30 12 2 12 13
M  V30 13 1 13 14
M  V30 14 2 14 15
M  V30 15 1 15 16
M  V30 16 2 16 17
M  V30 17 1 17 18
M  V30 18 1 18 19
M  V30 19 2 18 20
M  V30 20 1 17 21
M  V30 21 2 21 22
M  V30 22 1 22 23
M  V30 23 2 23 24
M  V30 24 2 9 25
M  V30 25 1 25 5
M  V30 26 1 24 12
M  V30 27 1 24 16
M  V30 28 1 1 26
M  V30 29 1 1 27
M  V30 30 1 1 28
M  V30 31 1 2 29
M  V30 32 1 6 30
M  V30 33 1 7 31
M  V30 34 1 8 32
M  V30 35 1 10 33
M  V30 36 1 10 34
M  V30 37 1 11 35
M  V30 38 1 14 36
M  V30 39 1 19 37
M  V30 40 1 19 38
M  V30 41 1 21 39
M  V30 42 1 22 40
M  V30 43 1 23 41
M  V30 44 1 25 42
M  V30 END BOND
M  V30 END CTAB
M  END
>  <Dataset>  (829) 
ChEMBL_Kinases

>  <Ligand_Instance>  (829) 
nan

>  <PDB_ID>  (829) 
nan

>  <Standardized_SMILES>  (829) 
CNC(=O)c1cccc(CNc2ncnc3c(C(N)=O)cccc23)c1

>  <Name>  (829) 
nan

>  <Pocket>  (829) 
nan

>  <ATP_Site>  (829) 
nan

>  <Peripheral>  (829) 
nan

>  <Num_H_Atoms_ProtBoundConf>  (829) 
nan

>  <Num_Resolved_Atoms>  (829) 
nan

>  <Num_Not_Resolved_Atoms>  (829) 
nan

$$$$
CHEMBL3670450
     RDKit          3D

  0  0  0  0  0  0  0  0  0  0999 V3000
M  V30 BEGIN CTAB
M  V30 COUNTS 42 45 0 0 0
M  V30 BEGIN ATOM
M  V30 1 N 0.851189 -4.959459 4.185881 0
M  V30 2 C 1.073360 -5.543859 2.905910 0
M  V30 3 O 1.169501 -6.800849 2.916635 0
M  V30 4 C 1.180680 -4.756690 1.686270 0
M  V30 5 C 1.396191 -5.432447 0.506531 0
M  V30 6 C 1.491328 -4.632168 -0.632065 0
M  V30 7 C 1.371835 -3.260717 -0.538467 0
M  V30 8 C 1.157683 -2.618032 0.650076 0
M  V30 9 C 1.047874 -1.244204 0.672218 0
M  V30 10 N 1.149184 -0.417020 -0.479496 0
M  V30 11 C 1.012912 0.984872 -0.315896 0 CFG=1
M  V30 12 C 1.209471 1.788471 -1.581948 0
M  V30 13 C 1.356574 3.251149 -1.253109 0
M  V30 14 C 0.961575 3.563639 0.174535 0
M  V30 15 C -0.296930 2.797956 0.467789 0
M  V30 16 C -1.394003 3.467454 0.966981 0
M  V30 17 C -2.528190 2.721675 1.212544 0
M  V30 18 C -2.564467 1.363817 0.969332 0
M  V30 19 C -1.466508 0.695582 0.470116 0
M  V30 20 C -0.319430 1.419142 0.216351 0
M  V30 21 N 0.838851 -0.736990 1.899657 0
M  V30 22 C 0.741677 -1.462586 3.010957 0
M  V30 23 N 0.849638 -2.809098 2.986869 0
M  V30 24 C 1.057903 -3.388329 1.805392 0
M  V30 25 H -0.066558 -4.779755 4.650044 0
M  V30 26 H -0.132812 -4.838745 4.528205 0
M  V30 27 H 1.478684 -6.511256 0.516131 0
M  V30 28 H 1.660174 -5.122908 -1.578188 0
M  V30 29 H 1.457318 -2.718988 -1.462100 0
M  V30 30 H 1.313020 -0.716949 -1.439882 0
M  V30 31 H 1.791912 1.322643 0.399630 0
M  V30 32 H 2.098621 1.394616 -2.113098 0
M  V30 33 H 0.320311 1.658442 -2.233059 0
M  V30 34 H 0.739131 3.892410 -1.914854 0
M  V30 35 H 2.409973 3.553149 -1.397991 0
M  V30 36 H 1.750276 3.302714 0.888731 0
M  V30 37 H 0.732757 4.647881 0.208668 0
M  V30 38 H -1.392043 4.534421 1.167060 0
M  V30 39 H -3.445515 3.140981 1.603599 0
M  V30 40 H -3.427399 0.731131 1.143776 0
M  V30 41 H -1.343409 -0.346467 0.228168 0
M  V30 42 H 0.572552 -0.927177 3.933809 0
M  V30 END ATOM
M  V30 BEGIN BOND
M  V30 1 1 1 2
M  V30 2 2 2 3
M  V30 3 1 2 4
M  V30 4 2 4 5
M  V30 5 1 5 6
M  V30 6 2 6 7
M  V30 7 1 7 8
M  V30 8 2 8 9
M  V30 9 1 9 10
M  V30 10 1 10 11
M  V30 11 1 11 12
M  V30 12 1 12 13
M  V30 13 1 13 14
M  V30 14 1 14 15
M  V30 15 2 15 16
M  V30 16 1 16 17
M  V30 17 2 17 18
M  V30 18 1 18 19
M  V30 19 2 19 20
M  V30 20 1 9 21
M  V30 21 2 21 22
M  V30 22 1 22 23
M  V30 23 2 23 24
M  V30 24 1 24 4
M  V30 25 1 24 8
M  V30 26 1 20 11
M  V30 27 1 20 15
M  V30 28 1 1 25
M  V30 29 1 1 26
M  V30 30 1 5 27
M  V30 31 1 6 28
M  V30 32 1 7 29
M  V30 33 1 10 30
M  V30 34 1 11 31 CFG=1
M  V30 35 1 12 32
M  V30 36 1 12 33
M  V30 37 1 13 34
M  V30 38 1 13 35
M  V30 39 1 14 36
M  V30 40 1 14 37
M  V30 41 1 16 38
M  V30 42 1 17 39
M  V30 43 1 18 40
M  V30 44 1 19 41
M  V30 45 1 22 42
M  V30 END BOND
M  V30 END CTAB
M  END
>  <Dataset>  (830) 
ChEMBL_Kinases

>  <Ligand_Instance>  (830) 
nan

>  <PDB_ID>  (830) 
nan

>  <Standardized_SMILES>  (830) 
NC(=O)c1cccc2c(N[C@H]3CCCc4ccccc43)ncnc12

>  <Name>  (830) 
nan

>  <Pocket>  (830) 
nan

>  <ATP_Site>  (830) 
nan

>  <Peripheral>  (830) 
nan

>  <Num_H_Atoms_ProtBoundConf>  (830) 
nan

>  <Num_Resolved_Atoms>  (830) 
nan

>  <Num_Not_Resolved_Atoms>  (830) 
nan

$$$$
CHEMBL3670453
     RDKit          3D

  0  0  0  0  0  0  0  0  0  0999 V3000
M  V30 BEGIN CTAB
M  V30 COUNTS 54 57 0 0 0
M  V30 BEGIN ATOM
M  V30 1 N 3.829455 -3.133088 3.291137 0
M  V30 2 C 4.749792 -2.087989 3.574369 0
M  V30 3 O 5.678424 -2.305767 4.364812 0
M  V30 4 C 4.596913 -0.777324 2.938591 0
M  V30 5 C 5.523243 0.192857 3.256495 0
M  V30 6 C 5.360458 1.419925 2.646341 0
M  V30 7 C 4.318572 1.622767 1.775554 0
M  V30 8 C 3.389162 0.679178 1.444770 0
M  V30 9 C 2.367717 0.937245 0.567574 0
M  V30 10 N 2.205874 2.208944 -0.063587 0
M  V30 11 C 1.145276 2.540370 -0.997360 0
M  V30 12 C -0.207953 2.454599 -0.429995 0
M  V30 13 C -0.599957 3.630780 0.221538 0
M  V30 14 C -1.854770 3.680428 0.787621 0
M  V30 15 C -2.703380 2.605282 0.717012 0
M  V30 16 C -2.347856 1.438819 0.085090 0
M  V30 17 N -3.264301 0.361052 0.042934 0
M  V30 18 C -3.174471 -0.917417 -0.517552 0
M  V30 19 O -2.124342 -1.230807 -1.100757 0
M  V30 20 N -4.175150 -1.902125 -0.485309 0
M  V30 21 C -3.932263 -3.160464 -1.103299 0
M  V30 22 C -4.294703 -3.238574 -2.431946 0
M  V30 23 C -4.093139 -4.418506 -3.099610 0
M  V30 24 C -3.541791 -5.478652 -2.433943 0
M  V30 25 C -3.199613 -5.342314 -1.107607 0
M  V30 26 C -3.377368 -4.173452 -0.371273 0
M  V30 27 C -3.000641 -4.051559 1.058272 0
M  V30 28 F -2.473618 -5.297163 1.428054 0
M  V30 29 F -4.091016 -3.796972 1.861991 0
M  V30 30 F -1.977048 -3.146992 1.265463 0
M  V30 31 C -1.091440 1.421657 -0.468649 0
M  V30 32 N 1.561133 -0.089044 0.362748 0
M  V30 33 C 1.654395 -1.305889 0.916093 0
M  V30 34 N 2.685582 -1.526160 1.785685 0
M  V30 35 C 3.562284 -0.541564 2.060246 0
M  V30 36 H 2.842265 -3.412085 3.230198 0
M  V30 37 H 3.975984 -4.114798 3.005081 0
M  V30 38 H 6.313817 -0.027061 3.943407 0
M  V30 39 H 6.100253 2.171428 2.909490 0
M  V30 40 H 4.310415 2.622417 1.372962 0
M  V30 41 H 2.874019 2.970913 0.137660 0
M  V30 42 H 1.358525 3.551430 -1.404723 0
M  V30 43 H 1.233831 1.875774 -1.918524 0
M  V30 44 H 0.029948 4.525851 0.313599 0
M  V30 45 H -2.199795 4.558627 1.296875 0
M  V30 46 H -3.680489 2.683231 1.174082 0
M  V30 47 H -4.206434 0.503055 0.509457 0
M  V30 48 H -5.090097 -1.675345 0.003458 0
M  V30 49 H -4.736150 -2.392088 -2.967482 0
M  V30 50 H -4.361810 -4.520826 -4.135558 0
M  V30 51 H -3.381702 -6.409546 -2.957098 0
M  V30 52 H -2.759531 -6.215092 -0.606827 0
M  V30 53 H -0.741714 0.561963 -0.983816 0
M  V30 54 H 0.906164 -2.053383 0.644957 0
M  V30 END ATOM
M  V30 BEGIN BOND
M  V30 1 1 1 2
M  V30 2 2 2 3
M  V30 3 1 2 4
M  V30 4 2 4 5
M  V30 5 1 5 6
M  V30 6 2 6 7
M  V30 7 1 7 8
M  V30 8 2 8 9
M  V30 9 1 9 10
M  V30 10 1 10 11
M  V30 11 1 11 12
M  V30 12 2 12 13
M  V30 13 1 13 14
M  V30 14 2 14 15
M  V30 15 1 15 16
M  V30 16 1 16 17
M  V30 17 1 17 18
M  V30 18 2 18 19
M  V30 19 1 18 20
M  V30 20 1 20 21
M  V30 21 2 21 22
M  V30 22 1 22 23
M  V30 23 2 23 24
M  V30 24 1 24 25
M  V30 25 2 25 26
M  V30 26 1 26 27
M  V30 27 1 27 28
M  V30 28 1 27 29
M  V30 29 1 27 30
M  V30 30 2 16 31
M  V30 31 1 9 32
M  V30 32 2 32 33
M  V30 33 1 33 34
M  V30 34 2 34 35
M  V30 35 1 35 4
M  V30 36 1 35 8
M  V30 37 1 31 12
M  V30 38 1 26 21
M  V30 39 1 1 36
M  V30 40 1 1 37
M  V30 41 1 5 38
M  V30 42 1 6 39
M  V30 43 1 7 40
M  V30 44 1 10 41
M  V30 45 1 11 42
M  V30 46 1 11 43
M  V30 47 1 13 44
M  V30 48 1 14 45
M  V30 49 1 15 46
M  V30 50 1 17 47
M  V30 51 1 20 48
M  V30 52 1 22 49
M  V30 53 1 23 50
M  V30 54 1 24 51
M  V30 55 1 25 52
M  V30 56 1 31 53
M  V30 57 1 33 54
M  V30 END BOND
M  V30 END CTAB
M  END
>  <Dataset>  (831) 
ChEMBL_Kinases

>  <Ligand_Instance>  (831) 
nan

>  <PDB_ID>  (831) 
nan

>  <Standardized_SMILES>  (831) 
NC(=O)c1cccc2c(NCc3cccc(NC(=O)Nc4ccccc4C(F)(F)F)c3)ncnc12

>  <Name>  (831) 
nan

>  <Pocket>  (831) 
nan

>  <ATP_Site>  (831) 
nan

>  <Peripheral>  (831) 
nan

>  <Num_H_Atoms_ProtBoundConf>  (831) 
nan

>  <Num_Resolved_Atoms>  (831) 
nan

>  <Num_Not_Resolved_Atoms>  (831) 
nan

$$$$
CHEMBL3670454
     RDKit          3D

  0  0  0  0  0  0  0  0  0  0999 V3000
M  V30 BEGIN CTAB
M  V30 COUNTS 54 57 0 0 0
M  V30 BEGIN ATOM
M  V30 1 C 4.852836 -2.202604 3.996338 0
M  V30 2 C 5.411695 -1.521427 2.801376 0
M  V30 3 C 6.703010 -1.810921 2.420332 0
M  V30 4 C 7.197350 -1.164468 1.307190 0
M  V30 5 C 6.431868 -0.263455 0.601368 0
M  V30 6 C 5.147228 0.046191 0.952768 0
M  V30 7 N 4.415305 0.982259 0.182445 0
M  V30 8 C 3.107902 1.457979 0.335110 0
M  V30 9 O 2.410582 1.033426 1.283269 0
M  V30 10 N 2.484156 2.408231 -0.516419 0
M  V30 11 C 1.127456 2.719879 -0.125499 0
M  V30 12 C 0.754890 3.732167 0.747903 0
M  V30 13 C -0.583766 3.908737 1.025338 0
M  V30 14 C -1.566805 3.099671 0.453028 0
M  V30 15 C -1.212996 2.079760 -0.424807 0
M  V30 16 C -2.215339 1.189800 -1.062234 0
M  V30 17 N -2.500414 -0.001144 -0.281525 0
M  V30 18 C -3.444505 -0.938653 -0.779478 0
M  V30 19 N -4.056135 -0.724928 -1.944467 0
M  V30 20 C -4.952422 -1.591968 -2.440874 0
M  V30 21 N -5.307998 -2.728786 -1.824499 0
M  V30 22 C -4.722397 -2.993148 -0.647804 0
M  V30 23 C -5.008116 -4.143537 0.090652 0
M  V30 24 C -5.971373 -5.093664 -0.424046 0
M  V30 25 N -6.650053 -4.892998 -1.679691 0
M  V30 26 O -6.306223 -6.160086 0.152463 0
M  V30 27 C -4.421335 -4.440336 1.302493 0
M  V30 28 C -3.498472 -3.541440 1.807279 0
M  V30 29 C -3.214044 -2.402770 1.078900 0
M  V30 30 C -3.791517 -2.099722 -0.124950 0
M  V30 31 C 0.129877 1.924642 -0.684926 0
M  V30 32 C 4.697626 -0.622451 2.068274 0
M  V30 33 H 5.295578 -1.807059 4.955142 0
M  V30 34 H 3.769015 -1.929337 4.084907 0
M  V30 35 H 4.947699 -3.297683 3.965778 0
M  V30 36 H 7.302304 -2.516312 2.972826 0
M  V30 37 H 8.202772 -1.339408 0.945909 0
M  V30 38 H 6.869136 0.228183 -0.280904 0
M  V30 39 H 4.884590 1.416910 -0.645935 0
M  V30 40 H 3.049439 2.787779 -1.330196 0
M  V30 41 H 1.555401 4.322856 1.157567 0
M  V30 42 H -0.856081 4.710098 1.714506 0
M  V30 43 H -2.615867 3.242094 0.673644 0
M  V30 44 H -3.170457 1.791645 -1.110582 0
M  V30 45 H -1.869628 0.884481 -2.054821 0
M  V30 46 H -1.963934 -0.059365 0.607286 0
M  V30 47 H -5.376878 -1.293627 -3.403149 0
M  V30 48 H -5.969791 -5.398122 -2.291258 0
M  V30 49 H -7.504443 -4.337861 -1.399486 0
M  V30 50 H -4.672747 -5.343100 1.839806 0
M  V30 51 H -3.030461 -3.767309 2.762612 0
M  V30 52 H -2.490781 -1.756219 1.533802 0
M  V30 53 H 0.392969 1.139599 -1.359743 0
M  V30 54 H 3.695253 -0.445929 2.425683 0
M  V30 END ATOM
M  V30 BEGIN BOND
M  V30 1 1 1 2
M  V30 2 2 2 3
M  V30 3 1 3 4
M  V30 4 2 4 5
M  V30 5 1 5 6
M  V30 6 1 6 7
M  V30 7 1 7 8
M  V30 8 2 8 9
M  V30 9 1 8 10
M  V30 10 1 10 11
M  V30 11 2 11 12
M  V30 12 1 12 13
M  V30 13 2 13 14
M  V30 14 1 14 15
M  V30 15 1 15 16
M  V30 16 1 16 17
M  V30 17 1 17 18
M  V30 18 2 18 19
M  V30 19 1 19 20
M  V30 20 2 20 21
M  V30 21 1 21 22
M  V30 22 2 22 23
M  V30 23 1 23 24
M  V30 24 1 24 25
M  V30 25 2 24 26
M  V30 26 1 23 27
M  V30 27 2 27 28
M  V30 28 1 28 29
M  V30 29 2 29 30
M  V30 30 2 15 31
M  V30 31 2 6 32
M  V30 32 1 32 2
M  V30 33 1 31 11
M  V30 34 1 30 18
M  V30 35 1 30 22
M  V30 36 1 1 33
M  V30 37 1 1 34
M  V30 38 1 1 35
M  V30 39 1 3 36
M  V30 40 1 4 37
M  V30 41 1 5 38
M  V30 42 1 7 39
M  V30 43 1 10 40
M  V30 44 1 12 41
M  V30 45 1 13 42
M  V30 46 1 14 43
M  V30 47 1 16 44
M  V30 48 1 16 45
M  V30 49 1 17 46
M  V30 50 1 20 47
M  V30 51 1 25 48
M  V30 52 1 25 49
M  V30 53 1 27 50
M  V30 54 1 28 51
M  V30 55 1 29 52
M  V30 56 1 31 53
M  V30 57 1 32 54
M  V30 END BOND
M  V30 END CTAB
M  END
>  <Dataset>  (832) 
ChEMBL_Kinases

>  <Ligand_Instance>  (832) 
nan

>  <PDB_ID>  (832) 
nan

>  <Standardized_SMILES>  (832) 
Cc1cccc(NC(=O)Nc2cccc(CNc3ncnc4c(C(N)=O)cccc34)c2)c1

>  <Name>  (832) 
nan

>  <Pocket>  (832) 
nan

>  <ATP_Site>  (832) 
nan

>  <Peripheral>  (832) 
nan

>  <Num_H_Atoms_ProtBoundConf>  (832) 
nan

>  <Num_Resolved_Atoms>  (832) 
nan

>  <Num_Not_Resolved_Atoms>  (832) 
nan

$$$$
CHEMBL3670425
     RDKit          3D

  0  0  0  0  0  0  0  0  0  0999 V3000
M  V30 BEGIN CTAB
M  V30 COUNTS 51 54 0 0 0
M  V30 BEGIN ATOM
M  V30 1 N -0.658421 -5.744366 3.711876 0
M  V30 2 C -0.584411 -4.328384 3.591992 0
M  V30 3 O 0.284192 -4.048018 4.456551 0
M  V30 4 C -1.398276 -3.580505 2.641295 0
M  V30 5 C -2.264518 -4.295109 1.840617 0
M  V30 6 C -3.003062 -3.526862 0.964875 0
M  V30 7 C -2.878260 -2.155127 0.902415 0
M  V30 8 C -2.017299 -1.479238 1.703060 0
M  V30 9 C -1.910417 -0.106469 1.621535 0
M  V30 10 N -2.670858 0.683947 0.724166 0
M  V30 11 C -2.595708 2.133468 0.595932 0
M  V30 12 C -1.274593 2.624439 0.172212 0
M  V30 13 C -0.176349 3.062330 0.876955 0
M  V30 14 C 0.976672 3.469186 0.245327 0
M  V30 15 C 1.063762 3.448630 -1.142742 0
M  V30 16 C -0.013015 3.017939 -1.880113 0
M  V30 17 N 0.130581 3.017686 -3.290305 0
M  V30 18 C 0.638130 1.818353 -3.851154 0
M  V30 19 O 0.897185 0.901024 -3.014143 0
M  V30 20 N 0.863519 1.599211 -5.253721 0
M  V30 21 C 1.376486 0.361537 -5.731179 0
M  V30 22 C 0.375060 -0.560391 -6.037239 0
M  V30 23 C 0.715171 -1.816737 -6.514922 0
M  V30 24 C 2.032021 -2.209860 -6.707398 0
M  V30 25 C 2.990222 -1.268506 -6.392526 0
M  V30 26 F 4.293289 -1.592156 -6.558513 0
M  V30 27 C 2.682687 -0.010838 -5.915612 0
M  V30 28 C -1.175179 2.608355 -1.225632 0
M  V30 29 N -1.019859 0.423115 2.473146 0
M  V30 30 C -0.279531 -0.285257 3.342379 0
M  V30 31 N -0.379071 -1.624177 3.426800 0
M  V30 32 C -1.259672 -2.209411 2.593292 0
M  V30 33 H 0.105501 -6.441741 3.466252 0
M  V30 34 H -1.536924 -6.192339 4.075295 0
M  V30 35 H -2.336527 -5.370148 1.916176 0
M  V30 36 H -3.701257 -4.073299 0.315885 0
M  V30 37 H -3.506555 -1.680555 0.182214 0
M  V30 38 H -3.363387 0.271738 0.066269 0
M  V30 39 H -2.812921 2.547972 1.631967 0
M  V30 40 H -3.414952 2.547978 -0.024678 0
M  V30 41 H -0.350936 3.045305 1.942670 0
M  V30 42 H 1.776741 3.793070 0.891033 0
M  V30 43 H 1.996702 3.780717 -1.577549 0
M  V30 44 H -0.087929 3.785959 -3.980454 0
M  V30 45 H 0.624509 2.404012 -5.868410 0
M  V30 46 H -0.680413 -0.395975 -5.938589 0
M  V30 47 H -0.036885 -2.569741 -6.767458 0
M  V30 48 H 2.278287 -3.194368 -7.081072 0
M  V30 49 H 3.394811 0.746771 -5.660353 0
M  V30 50 H -1.948762 2.291952 -1.940322 0
M  V30 51 H 0.387831 0.347289 3.947659 0
M  V30 END ATOM
M  V30 BEGIN BOND
M  V30 1 1 1 2
M  V30 2 2 2 3
M  V30 3 1 2 4
M  V30 4 2 4 5
M  V30 5 1 5 6
M  V30 6 2 6 7
M  V30 7 1 7 8
M  V30 8 2 8 9
M  V30 9 1 9 10
M  V30 10 1 10 11
M  V30 11 1 11 12
M  V30 12 2 12 13
M  V30 13 1 13 14
M  V30 14 2 14 15
M  V30 15 1 15 16
M  V30 16 1 16 17
M  V30 17 1 17 18
M  V30 18 2 18 19
M  V30 19 1 18 20
M  V30 20 1 20 21
M  V30 21 2 21 22
M  V30 22 1 22 23
M  V30 23 2 23 24
M  V30 24 1 24 25
M  V30 25 1 25 26
M  V30 26 2 25 27
M  V30 27 2 16 28
M  V30 28 1 9 29
M  V30 29 2 29 30
M  V30 30 1 30 31
M  V30 31 2 31 32
M  V30 32 1 32 4
M  V30 33 1 32 8
M  V30 34 1 28 12
M  V30 35 1 27 21
M  V30 36 1 1 33
M  V30 37 1 1 34
M  V30 38 1 5 35
M  V30 39 1 6 36
M  V30 40 1 7 37
M  V30 41 1 10 38
M  V30 42 1 11 39
M  V30 43 1 11 40
M  V30 44 1 13 41
M  V30 45 1 14 42
M  V30 46 1 15 43
M  V30 47 1 17 44
M  V30 48 1 20 45
M  V30 49 1 22 46
M  V30 50 1 23 47
M  V30 51 1 24 48
M  V30 52 1 27 49
M  V30 53 1 28 50
M  V30 54 1 30 51
M  V30 END BOND
M  V30 END CTAB
M  END
>  <Dataset>  (833) 
ChEMBL_Kinases

>  <Ligand_Instance>  (833) 
nan

>  <PDB_ID>  (833) 
nan

>  <Standardized_SMILES>  (833) 
NC(=O)c1cccc2c(NCc3cccc(NC(=O)Nc4cccc(F)c4)c3)ncnc12

>  <Name>  (833) 
nan

>  <Pocket>  (833) 
nan

>  <ATP_Site>  (833) 
nan

>  <Peripheral>  (833) 
nan

>  <Num_H_Atoms_ProtBoundConf>  (833) 
nan

>  <Num_Resolved_Atoms>  (833) 
nan

>  <Num_Not_Resolved_Atoms>  (833) 
nan

$$$$
CHEMBL3808621
     RDKit          3D

  0  0  0  0  0  0  0  0  0  0999 V3000
M  V30 BEGIN CTAB
M  V30 COUNTS 60 64 0 0 0
M  V30 BEGIN ATOM
M  V30 1 C 3.325288 -0.109703 5.336295 0
M  V30 2 C 2.396784 -1.219200 5.009094 0
M  V30 3 C 2.086391 -1.380611 3.735270 0
M  V30 4 C 2.485038 -0.665065 2.551595 0
M  V30 5 O 2.100173 -0.938076 1.377813 0
M  V30 6 N 3.293291 0.424185 2.156783 0
M  V30 7 C 3.377657 0.779628 0.782056 0
M  V30 8 C 4.256291 0.338353 -0.179572 0
M  V30 9 C 4.134381 0.846095 -1.473389 0
M  V30 10 C 3.164929 1.764721 -1.792035 0
M  V30 11 N 2.859396 2.386218 -2.951864 0
M  V30 12 N 1.846067 3.188578 -2.779469 0
M  V30 13 C 1.445495 3.121771 -1.485313 0
M  V30 14 C 2.262673 2.226885 -0.833057 0
M  V30 15 C 2.399334 1.707726 0.456947 0
M  V30 16 C 1.146965 -2.498664 3.322655 0
M  V30 17 C -0.080812 -1.974291 2.675227 0
M  V30 18 C -0.897788 -1.230915 3.502637 0
M  V30 19 C -2.063950 -0.727790 2.963114 0
M  V30 20 C -2.348229 -0.991065 1.641138 0
M  V30 21 F -3.492553 -0.493297 1.125848 0
M  V30 22 C -1.556198 -1.728046 0.789298 0
M  V30 23 C -1.794465 -2.044907 -0.610395 0
M  V30 24 O -0.969838 -2.757339 -1.278162 0
M  V30 25 N -2.860972 -1.680769 -1.443512 0
M  V30 26 C -2.628488 -2.257807 -2.771618 0
M  V30 27 C -3.760340 -1.862603 -3.647564 0
M  V30 28 C -3.772746 -0.548814 -4.129166 0
M  V30 29 F -2.828102 0.370087 -3.847843 0
M  V30 30 C -4.815721 -0.134351 -4.954915 0
M  V30 31 C -5.821022 -1.025931 -5.285429 0
M  V30 32 C -5.830165 -2.330768 -4.820920 0
M  V30 33 C -4.785125 -2.748703 -3.992598 0
M  V30 34 F -4.745363 -4.032421 -3.503416 0
M  V30 35 C -0.394503 -2.220553 1.354469 0
M  V30 36 N 0.742237 -3.202400 4.504913 0
M  V30 37 C 1.027862 -3.088541 5.873849 0
M  V30 38 O 0.563423 -3.825920 6.746690 0
M  V30 39 N 1.920516 -2.008377 6.087730 0
M  V30 40 H 3.446663 -0.065563 6.446411 0
M  V30 41 H 4.310582 -0.223729 4.860168 0
M  V30 42 H 2.837268 0.830408 5.030279 0
M  V30 43 H 3.763948 0.867552 2.966514 0
M  V30 44 H 4.967180 -0.375876 0.184200 0
M  V30 45 H 4.861231 0.457577 -2.193588 0
M  V30 46 H 3.355728 2.248290 -3.850211 0
M  V30 47 H 0.641611 3.646141 -0.991179 0
M  V30 48 H 1.648722 2.133001 1.124481 0
M  V30 49 H 1.726755 -3.196809 2.689120 0
M  V30 50 H -0.702647 -1.006981 4.542776 0
M  V30 51 H -2.755828 -0.137390 3.543416 0
M  V30 52 H -3.609585 -1.092321 -1.019239 0
M  V30 53 H -2.695979 -3.380668 -2.674707 0
M  V30 54 H -1.668472 -1.958498 -3.208673 0
M  V30 55 H -4.904178 0.866056 -5.373344 0
M  V30 56 H -6.659632 -0.740775 -5.932062 0
M  V30 57 H -6.591963 -3.062616 -5.051179 0
M  V30 58 H 0.284107 -2.827413 0.734200 0
M  V30 59 H 0.080773 -3.960425 4.155571 0
M  V30 60 H 2.232579 -1.792241 7.068734 0
M  V30 END ATOM
M  V30 BEGIN BOND
M  V30 1 1 1 2
M  V30 2 2 2 3
M  V30 3 1 3 4
M  V30 4 2 4 5
M  V30 5 1 4 6
M  V30 6 1 6 7
M  V30 7 2 7 8
M  V30 8 1 8 9
M  V30 9 2 9 10
M  V30 10 1 10 11
M  V30 11 1 11 12
M  V30 12 2 12 13
M  V30 13 1 13 14
M  V30 14 2 14 15
M  V30 15 1 3 16
M  V30 16 1 16 17
M  V30 17 2 17 18
M  V30 18 1 18 19
M  V30 19 2 19 20
M  V30 20 1 20 21
M  V30 21 1 20 22
M  V30 22 1 22 23
M  V30 23 2 23 24
M  V30 24 1 23 25
M  V30 25 1 25 26
M  V30 26 1 26 27
M  V30 27 2 27 28
M  V30 28 1 28 29
M  V30 29 1 28 30
M  V30 30 2 30 31
M  V30 31 1 31 32
M  V30 32 2 32 33
M  V30 33 1 33 34
M  V30 34 2 22 35
M  V30 35 1 16 36
M  V30 36 1 36 37
M  V30 37 2 37 38
M  V30 38 1 37 39
M  V30 39 1 39 2
M  V30 40 1 15 7
M  V30 41 1 35 17
M  V30 42 1 14 10
M  V30 43 1 33 27
M  V30 44 1 1 40
M  V30 45 1 1 41
M  V30 46 1 1 42
M  V30 47 1 6 43
M  V30 48 1 8 44
M  V30 49 1 9 45
M  V30 50 1 11 46
M  V30 51 1 13 47
M  V30 52 1 15 48
M  V30 53 1 16 49
M  V30 54 1 18 50
M  V30 55 1 19 51
M  V30 56 1 25 52
M  V30 57 1 26 53
M  V30 58 1 26 54
M  V30 59 1 30 55
M  V30 60 1 31 56
M  V30 61 1 32 57
M  V30 62 1 35 58
M  V30 63 1 36 59
M  V30 64 1 39 60
M  V30 END BOND
M  V30 END CTAB
M  END
>  <Dataset>  (834) 
ChEMBL_Kinases

>  <Ligand_Instance>  (834) 
nan

>  <PDB_ID>  (834) 
nan

>  <Standardized_SMILES>  (834) 
CC1=C(C(=O)Nc2ccc3[nH]ncc3c2)C(c2ccc(F)c(C(=O)NCc3c(F)cccc3F)c2)NC(=O)N1

>  <Name>  (834) 
nan

>  <Pocket>  (834) 
nan

>  <ATP_Site>  (834) 
nan

>  <Peripheral>  (834) 
nan

>  <Num_H_Atoms_ProtBoundConf>  (834) 
nan

>  <Num_Resolved_Atoms>  (834) 
nan

>  <Num_Not_Resolved_Atoms>  (834) 
nan

$$$$
CHEMBL380645
     RDKit          3D

  0  0  0  0  0  0  0  0  0  0999 V3000
M  V30 BEGIN CTAB
M  V30 COUNTS 58 59 0 0 0
M  V30 BEGIN ATOM
M  V30 1 C -1.370675 -3.687091 1.890126 0
M  V30 2 C 0.050743 -3.246192 2.014102 0
M  V30 3 C 0.079877 -2.123026 3.048843 0
M  V30 4 C 0.810157 -2.968476 0.780014 0
M  V30 5 C 2.216430 -2.518592 1.045213 0
M  V30 6 C 2.405978 -1.289442 1.800845 0
M  V30 7 O 2.706550 -0.628132 2.824029 0
M  V30 8 O 2.120733 -0.156799 1.071377 0
M  V30 9 C 2.271532 1.114617 1.670634 0
M  V30 10 C 1.872622 2.216385 0.706496 0
M  V30 11 C 2.049522 3.574750 1.366401 0
M  V30 12 O 1.356289 3.658532 2.557879 0
M  V30 13 C 0.416492 1.982766 0.373897 0
M  V30 14 C 0.503229 1.421431 -0.996278 0
M  V30 15 C -0.510699 0.970116 -1.755871 0
M  V30 16 C -1.921154 0.930844 -1.394542 0
M  V30 17 C -2.314054 0.358197 -0.202248 0
M  V30 18 C -3.656989 0.332116 0.203583 0
M  V30 19 C -4.627298 0.889747 -0.599039 0
M  V30 20 O -5.943477 0.843289 -0.158256 0
M  V30 21 C -4.264816 1.469165 -1.798184 0
M  V30 22 C -2.918005 1.483112 -2.182301 0
M  V30 23 C 1.894985 1.425995 -1.424045 0
M  V30 24 O 2.363233 0.828797 -2.450100 0
M  V30 25 O 2.598023 2.211577 -0.486612 0
M  V30 26 C 0.816655 -4.145512 -0.157560 0
M  V30 27 C -0.491865 -4.599539 -0.699520 0
M  V30 28 C 1.803468 -3.935218 -1.301322 0
M  V30 29 H -1.768731 -3.658380 2.971949 0
M  V30 30 H -1.540481 -4.719756 1.580057 0
M  V30 31 H -2.048824 -2.986522 1.378575 0
M  V30 32 H 0.582414 -4.135840 2.503809 0
M  V30 33 H 0.881167 -2.317842 3.784671 0
M  V30 34 H 0.069724 -1.119867 2.611482 0
M  V30 35 H -0.881115 -2.162833 3.651260 0
M  V30 36 H 0.321657 -2.075899 0.246064 0
M  V30 37 H 2.745082 -3.345268 1.587463 0
M  V30 38 H 2.804724 -2.402016 0.097765 0
M  V30 39 H 3.309349 1.272780 2.019896 0
M  V30 40 H 1.622950 1.188908 2.594518 0
M  V30 41 H 3.143938 3.699514 1.479255 0
M  V30 42 H 1.726867 4.319995 0.605854 0
M  V30 43 H 1.999331 3.742777 3.302245 0
M  V30 44 H -0.080199 1.353692 1.110195 0
M  V30 45 H -0.071113 3.011121 0.340628 0
M  V30 46 H -0.265769 0.595825 -2.738708 0
M  V30 47 H -1.674698 -0.129866 0.509489 0
M  V30 48 H -3.969657 -0.124734 1.153982 0
M  V30 49 H -6.707617 0.858661 -0.825161 0
M  V30 50 H -5.032171 1.914077 -2.444669 0
M  V30 51 H -2.600362 1.926637 -3.109260 0
M  V30 52 H 1.245085 -5.058940 0.383142 0
M  V30 53 H -1.318337 -3.874322 -0.626294 0
M  V30 54 H -0.781530 -5.640243 -0.381802 0
M  V30 55 H -0.365734 -4.754640 -1.836400 0
M  V30 56 H 1.500738 -4.637785 -2.104989 0
M  V30 57 H 2.819398 -4.262489 -0.997403 0
M  V30 58 H 1.761037 -2.928013 -1.707906 0
M  V30 END ATOM
M  V30 BEGIN BOND
M  V30 1 1 1 2
M  V30 2 1 2 3
M  V30 3 1 2 4
M  V30 4 1 4 5
M  V30 5 1 5 6
M  V30 6 2 6 7
M  V30 7 1 6 8
M  V30 8 1 8 9
M  V30 9 1 9 10
M  V30 10 1 10 11
M  V30 11 1 11 12
M  V30 12 1 10 13
M  V30 13 1 13 14
M  V30 14 2 14 15
M  V30 15 1 15 16
M  V30 16 2 16 17
M  V30 17 1 17 18
M  V30 18 2 18 19
M  V30 19 1 19 20
M  V30 20 1 19 21
M  V30 21 2 21 22
M  V30 22 1 14 23
M  V30 23 2 23 24
M  V30 24 1 23 25
M  V30 25 1 4 26
M  V30 26 1 26 27
M  V30 27 1 26 28
M  V30 28 1 25 10
M  V30 29 1 22 16
M  V30 30 1 1 29
M  V30 31 1 1 30
M  V30 32 1 1 31
M  V30 33 1 2 32
M  V30 34 1 3 33
M  V30 35 1 3 34
M  V30 36 1 3 35
M  V30 37 1 4 36
M  V30 38 1 5 37
M  V30 39 1 5 38
M  V30 40 1 9 39
M  V30 41 1 9 40
M  V30 42 1 11 41
M  V30 43 1 11 42
M  V30 44 1 12 43
M  V30 45 1 13 44
M  V30 46 1 13 45
M  V30 47 1 15 46
M  V30 48 1 17 47
M  V30 49 1 18 48
M  V30 50 1 20 49
M  V30 51 1 21 50
M  V30 52 1 22 51
M  V30 53 1 26 52
M  V30 54 1 27 53
M  V30 55 1 27 54
M  V30 56 1 27 55
M  V30 57 1 28 56
M  V30 58 1 28 57
M  V30 59 1 28 58
M  V30 END BOND
M  V30 END CTAB
M  END
>  <Dataset>  (835) 
ChEMBL_Kinases

>  <Ligand_Instance>  (835) 
nan

>  <PDB_ID>  (835) 
nan

>  <Standardized_SMILES>  (835) 
CC(C)C(CC(=O)OCC1(CO)C/C(=C\c2ccc(O)cc2)C(=O)O1)C(C)C

>  <Name>  (835) 
nan

>  <Pocket>  (835) 
nan

>  <ATP_Site>  (835) 
nan

>  <Peripheral>  (835) 
nan

>  <Num_H_Atoms_ProtBoundConf>  (835) 
nan

>  <Num_Resolved_Atoms>  (835) 
nan

>  <Num_Not_Resolved_Atoms>  (835) 
nan

$$$$
CHEMBL366668
     RDKit          3D

  0  0  0  0  0  0  0  0  0  0999 V3000
M  V30 BEGIN CTAB
M  V30 COUNTS 64 69 0 0 0
M  V30 BEGIN ATOM
M  V30 1 C 0.697936 0.058437 6.110044 0
M  V30 2 N 0.788722 -0.115188 4.649946 0
M  V30 3 C 0.676861 -1.507695 4.323333 0
M  V30 4 C -0.241811 0.692835 4.075558 0
M  V30 5 C -0.178462 0.699055 2.578061 0
M  V30 6 C 1.158643 1.224634 2.082483 0
M  V30 7 N 1.195720 1.224785 0.655498 0
M  V30 8 N 1.599886 0.247420 -0.169936 0
M  V30 9 C 1.475483 0.700478 -1.439927 0
M  V30 10 C 1.879717 -0.262288 -2.457586 0
M  V30 11 C 1.518587 -1.535106 -2.625017 0
M  V30 12 C 0.571048 -2.200916 -1.728865 0
M  V30 13 C -0.624225 -1.568252 -1.437001 0
M  V30 14 N -1.383783 -2.326111 -0.589483 0
M  V30 15 C -2.667178 -1.916112 -0.146273 0
M  V30 16 C -3.138301 -1.492801 1.073929 0
M  V30 17 C -4.453754 -1.135263 1.243523 0
M  V30 18 C -5.301024 -1.209537 0.164915 0
M  V30 19 C -4.902015 -1.624934 -1.085217 0
M  V30 20 C -3.562520 -1.978480 -1.221611 0
M  V30 21 C -0.647130 -3.406473 -0.371892 0
M  V30 22 C -0.930711 -4.513221 0.427585 0
M  V30 23 C 0.030288 -5.526252 0.491293 0
M  V30 24 C 1.218919 -5.449879 -0.204396 0
M  V30 25 C 1.511015 -4.362939 -0.995850 0
M  V30 26 C 0.553621 -3.379593 -1.043124 0
M  V30 27 C 2.221589 -2.049065 -3.807959 0
M  V30 28 O 2.103351 -3.229598 -4.248542 0
M  V30 29 N 3.013766 -0.994258 -4.317145 0
M  V30 30 C 2.827729 0.146971 -3.496107 0
M  V30 31 O 3.373325 1.293841 -3.635410 0
M  V30 32 C 0.981791 1.983230 -1.402150 0
M  V30 33 C 0.711709 2.776454 -2.513043 0
M  V30 34 C 0.205184 4.041208 -2.183832 0
M  V30 35 C 0.014696 4.413193 -0.869830 0
M  V30 36 C 0.309256 3.563605 0.186992 0
M  V30 37 C 0.806415 2.310670 -0.075468 0
M  V30 38 H -0.308585 -0.102927 6.490350 0
M  V30 39 H 1.406050 -0.620778 6.641200 0
M  V30 40 H 0.984053 1.122832 6.333478 0
M  V30 41 H 0.391286 -2.094614 5.241088 0
M  V30 42 H -0.039088 -1.699719 3.533111 0
M  V30 43 H 1.692001 -1.898082 4.046191 0
M  V30 44 H -0.110039 1.753551 4.429397 0
M  V30 45 H -1.255904 0.316574 4.354456 0
M  V30 46 H -1.015798 1.356431 2.195879 0
M  V30 47 H -0.360340 -0.310059 2.185181 0
M  V30 48 H 1.263944 2.258565 2.488346 0
M  V30 49 H 1.995398 0.607205 2.483956 0
M  V30 50 H -0.964714 -0.589335 -1.807919 0
M  V30 51 H -2.371799 -1.491661 1.812073 0
M  V30 52 H -4.762263 -0.806054 2.235631 0
M  V30 53 H -6.339515 -0.917186 0.330378 0
M  V30 54 H -5.634259 -1.652698 -1.880046 0
M  V30 55 H -3.352503 -2.294006 -2.252157 0
M  V30 56 H -1.873991 -4.552836 0.969295 0
M  V30 57 H -0.204445 -6.390156 1.125392 0
M  V30 58 H 1.940660 -6.256398 -0.128429 0
M  V30 59 H 2.433233 -4.248585 -1.564167 0
M  V30 60 H 3.637184 -1.018784 -5.150456 0
M  V30 61 H 0.880350 2.431870 -3.513103 0
M  V30 62 H -0.019670 4.691881 -3.017230 0
M  V30 63 H -0.382373 5.401551 -0.669000 0
M  V30 64 H 0.167247 3.825183 1.223324 0
M  V30 END ATOM
M  V30 BEGIN BOND
M  V30 1 1 1 2
M  V30 2 1 2 3
M  V30 3 1 2 4
M  V30 4 1 4 5
M  V30 5 1 5 6
M  V30 6 1 6 7
M  V30 7 1 7 8
M  V30 8 2 8 9
M  V30 9 1 9 10
M  V30 10 2 10 11
M  V30 11 1 11 12
M  V30 12 2 12 13
M  V30 13 1 13 14
M  V30 14 1 14 15
M  V30 15 2 15 16
M  V30 16 1 16 17
M  V30 17 2 17 18
M  V30 18 1 18 19
M  V30 19 2 19 20
M  V30 20 1 14 21
M  V30 21 2 21 22
M  V30 22 1 22 23
M  V30 23 2 23 24
M  V30 24 1 24 25
M  V30 25 2 25 26
M  V30 26 1 11 27
M  V30 27 2 27 28
M  V30 28 1 27 29
M  V30 29 1 29 30
M  V30 30 2 30 31
M  V30 31 1 9 32
M  V30 32 2 32 33
M  V30 33 1 33 34
M  V30 34 2 34 35
M  V30 35 1 35 36
M  V30 36 2 36 37
M  V30 37 1 37 7
M  V30 38 1 30 10
M  V30 39 1 37 32
M  V30 40 1 26 12
M  V30 41 1 20 15
M  V30 42 1 26 21
M  V30 43 1 1 38
M  V30 44 1 1 39
M  V30 45 1 1 40
M  V30 46 1 3 41
M  V30 47 1 3 42
M  V30 48 1 3 43
M  V30 49 1 4 44
M  V30 50 1 4 45
M  V30 51 1 5 46
M  V30 52 1 5 47
M  V30 53 1 6 48
M  V30 54 1 6 49
M  V30 55 1 13 50
M  V30 56 1 16 51
M  V30 57 1 17 52
M  V30 58 1 18 53
M  V30 59 1 19 54
M  V30 60 1 20 55
M  V30 61 1 22 56
M  V30 62 1 23 57
M  V30 63 1 24 58
M  V30 64 1 25 59
M  V30 65 1 29 60
M  V30 66 1 33 61
M  V30 67 1 34 62
M  V30 68 1 35 63
M  V30 69 1 36 64
M  V30 END BOND
M  V30 END CTAB
M  END
>  <Dataset>  (836) 
ChEMBL_Kinases

>  <Ligand_Instance>  (836) 
nan

>  <PDB_ID>  (836) 
nan

>  <Standardized_SMILES>  (836) 
CN(C)CCCn1nc(C2=C(c3cn(-c4ccccc4)c4ccccc34)C(=O)NC2=O)c2ccccc21

>  <Name>  (836) 
nan

>  <Pocket>  (836) 
nan

>  <ATP_Site>  (836) 
nan

>  <Peripheral>  (836) 
nan

>  <Num_H_Atoms_ProtBoundConf>  (836) 
nan

>  <Num_Resolved_Atoms>  (836) 
nan

>  <Num_Not_Resolved_Atoms>  (836) 
nan

$$$$
CHEMBL501724
     RDKit          3D

  0  0  0  0  0  0  0  0  0  0999 V3000
M  V30 BEGIN CTAB
M  V30 COUNTS 35 37 0 0 0
M  V30 BEGIN ATOM
M  V30 1 C -0.754057 -1.853928 5.820655 0
M  V30 2 C -0.871605 -1.964291 4.343516 0
M  V30 3 C -0.230718 -1.045017 3.504917 0
M  V30 4 C -0.320143 -1.120858 2.154460 0
M  V30 5 C 0.364243 -0.141421 1.319943 0
M  V30 6 C 0.359622 -0.098998 -0.045649 0
M  V30 7 C 1.034974 0.863788 -0.764217 0
M  V30 8 C 1.002071 0.870273 -2.220420 0
M  V30 9 C 0.317536 -0.052600 -2.974295 0
M  V30 10 C 0.287260 -0.045268 -4.350773 0
M  V30 11 C 0.967288 0.923438 -5.049786 0
M  V30 12 C 1.665917 1.867019 -4.327991 0
M  V30 13 C 1.671549 1.825484 -2.951371 0
M  V30 14 N 1.703647 1.765193 -0.025335 0
M  V30 15 C 1.744085 1.773256 1.318320 0
M  V30 16 O 2.394734 2.653918 1.938107 0
M  V30 17 N 1.068920 0.812087 1.998836 0
M  V30 18 C -1.082191 -2.160789 1.664294 0
M  V30 19 C -1.713689 -3.065758 2.467121 0
M  V30 20 C -1.627022 -2.993871 3.821182 0
M  V30 21 O -2.283255 -3.932527 4.606161 0
M  V30 22 H -0.362799 -0.856288 6.117430 0
M  V30 23 H -0.160332 -2.701662 6.228481 0
M  V30 24 H -1.758829 -1.930591 6.286602 0
M  V30 25 H 0.329346 -0.285829 4.008021 0
M  V30 26 H -0.209770 -0.873068 -0.493184 0
M  V30 27 H -0.234511 -0.835221 -2.512297 0
M  V30 28 H -0.258852 -0.782935 -4.912587 0
M  V30 29 H 0.943010 0.928498 -6.130799 0
M  V30 30 H 2.193109 2.619605 -4.914149 0
M  V30 31 H 2.248127 2.609681 -2.508188 0
M  V30 32 H 2.240832 2.527228 -0.491467 0
M  V30 33 H -1.193380 -2.276896 0.595744 0
M  V30 34 H -2.301344 -3.865644 2.031549 0
M  V30 35 H -3.279611 -4.027462 4.476462 0
M  V30 END ATOM
M  V30 BEGIN BOND
M  V30 1 1 1 2
M  V30 2 2 2 3
M  V30 3 1 3 4
M  V30 4 1 4 5
M  V30 5 1 5 6
M  V30 6 2 6 7
M  V30 7 1 7 8
M  V30 8 2 8 9
M  V30 9 1 9 10
M  V30 10 2 10 11
M  V30 11 1 11 12
M  V30 12 2 12 13
M  V30 13 1 7 14
M  V30 14 1 14 15
M  V30 15 2 15 16
M  V30 16 1 15 17
M  V30 17 2 4 18
M  V30 18 1 18 19
M  V30 19 2 19 20
M  V30 20 1 20 21
M  V30 21 1 20 2
M  V30 22 2 17 5
M  V30 23 1 13 8
M  V30 24 1 1 22
M  V30 25 1 1 23
M  V30 26 1 1 24
M  V30 27 1 3 25
M  V30 28 1 6 26
M  V30 29 1 9 27
M  V30 30 1 10 28
M  V30 31 1 11 29
M  V30 32 1 12 30
M  V30 33 1 13 31
M  V30 34 1 14 32
M  V30 35 1 18 33
M  V30 36 1 19 34
M  V30 37 1 21 35
M  V30 END BOND
M  V30 END CTAB
M  END
>  <Dataset>  (837) 
ChEMBL_Kinases

>  <Ligand_Instance>  (837) 
nan

>  <PDB_ID>  (837) 
nan

>  <Standardized_SMILES>  (837) 
Cc1cc(-c2cc(-c3ccccc3)[nH]c(=O)n2)ccc1O

>  <Name>  (837) 
nan

>  <Pocket>  (837) 
nan

>  <ATP_Site>  (837) 
nan

>  <Peripheral>  (837) 
nan

>  <Num_H_Atoms_ProtBoundConf>  (837) 
nan

>  <Num_Resolved_Atoms>  (837) 
nan

>  <Num_Not_Resolved_Atoms>  (837) 
nan

$$$$
CHEMBL585182
     RDKit          3D

  0  0  0  0  0  0  0  0  0  0999 V3000
M  V30 BEGIN CTAB
M  V30 COUNTS 42 45 0 0 0
M  V30 BEGIN ATOM
M  V30 1 C 0.531430 -6.197364 0.600223 0
M  V30 2 N 1.275221 -4.987092 0.394259 0
M  V30 3 C 1.248817 -4.095108 1.520696 0
M  V30 4 C 0.987676 -4.339125 -0.856875 0
M  V30 5 C 1.837292 -3.096173 -0.923546 0
M  V30 6 N 1.344145 -1.972484 -0.445535 0
M  V30 7 C 2.012777 -0.804139 -0.454570 0
M  V30 8 C 3.246390 -0.945012 -1.016518 0
M  V30 9 S 3.961364 0.702149 -0.933016 0
M  V30 10 C 2.538058 1.456109 -0.144821 0
M  V30 11 C 2.349651 2.751627 0.242397 0
M  V30 12 C 1.164899 3.124646 0.838329 0
M  V30 13 C 0.258031 2.100859 0.984718 0
M  V30 14 C -1.028266 2.473367 1.624176 0
M  V30 15 C -1.752964 1.588391 2.396554 0
M  V30 16 C -2.948077 1.945577 2.986330 0
M  V30 17 C -3.444496 3.227412 2.804568 0
M  V30 18 O -4.639644 3.652269 3.369012 0
M  V30 19 C -2.733680 4.141848 2.029542 0
M  V30 20 C -1.534406 3.748956 1.450668 0
M  V30 21 C 0.446098 0.803685 0.597226 0
M  V30 22 C 1.636386 0.432793 -0.000547 0
M  V30 23 C 3.790322 -2.121095 -1.528627 0
M  V30 24 O 4.948786 -2.049085 -2.007526 0
M  V30 25 N 3.050037 -3.239410 -1.476966 0
M  V30 26 H -0.547230 -6.007378 0.760226 0
M  V30 27 H 0.626326 -6.817746 -0.292029 0
M  V30 28 H 1.012774 -6.760123 1.442645 0
M  V30 29 H 1.546570 -4.706158 2.414210 0
M  V30 30 H 2.032536 -3.318623 1.409288 0
M  V30 31 H 0.249008 -3.689256 1.742241 0
M  V30 32 H -0.074468 -4.024736 -0.832037 0
M  V30 33 H 1.228678 -5.014877 -1.698660 0
M  V30 34 H 3.145512 3.465165 0.070240 0
M  V30 35 H 1.025818 4.145522 1.139121 0
M  V30 36 H -1.339961 0.581329 2.525057 0
M  V30 37 H -3.517958 1.254246 3.591662 0
M  V30 38 H -5.127119 3.174450 4.099790 0
M  V30 39 H -3.057342 5.160885 1.842515 0
M  V30 40 H -0.984210 4.462447 0.848619 0
M  V30 41 H -0.381804 0.100272 0.785426 0
M  V30 42 H 3.481912 -4.101566 -1.866751 0
M  V30 END ATOM
M  V30 BEGIN BOND
M  V30 1 1 1 2
M  V30 2 1 2 3
M  V30 3 1 2 4
M  V30 4 1 4 5
M  V30 5 2 5 6
M  V30 6 1 6 7
M  V30 7 2 7 8
M  V30 8 1 8 9
M  V30 9 1 9 10
M  V30 10 2 10 11
M  V30 11 1 11 12
M  V30 12 2 12 13
M  V30 13 1 13 14
M  V30 14 2 14 15
M  V30 15 1 15 16
M  V30 16 2 16 17
M  V30 17 1 17 18
M  V30 18 1 17 19
M  V30 19 2 19 20
M  V30 20 1 13 21
M  V30 21 2 21 22
M  V30 22 1 8 23
M  V30 23 2 23 24
M  V30 24 1 23 25
M  V30 25 1 25 5
M  V30 26 1 22 7
M  V30 27 1 22 10
M  V30 28 1 20 14
M  V30 29 1 1 26
M  V30 30 1 1 27
M  V30 31 1 1 28
M  V30 32 1 3 29
M  V30 33 1 3 30
M  V30 34 1 3 31
M  V30 35 1 4 32
M  V30 36 1 4 33
M  V30 37 1 11 34
M  V30 38 1 12 35
M  V30 39 1 15 36
M  V30 40 1 16 37
M  V30 41 1 18 38
M  V30 42 1 19 39
M  V30 43 1 20 40
M  V30 44 1 21 41
M  V30 45 1 25 42
M  V30 END BOND
M  V30 END CTAB
M  END
>  <Dataset>  (838) 
ChEMBL_Kinases

>  <Ligand_Instance>  (838) 
nan

>  <PDB_ID>  (838) 
nan

>  <Standardized_SMILES>  (838) 
CN(C)Cc1nc2c(sc3ccc(-c4ccc(O)cc4)cc32)c(=O)[nH]1

>  <Name>  (838) 
nan

>  <Pocket>  (838) 
nan

>  <ATP_Site>  (838) 
nan

>  <Peripheral>  (838) 
nan

>  <Num_H_Atoms_ProtBoundConf>  (838) 
nan

>  <Num_Resolved_Atoms>  (838) 
nan

>  <Num_Not_Resolved_Atoms>  (838) 
nan

$$$$
CHEMBL584161
     RDKit          3D

  0  0  0  0  0  0  0  0  0  0999 V3000
M  V30 BEGIN CTAB
M  V30 COUNTS 36 39 0 0 0
M  V30 BEGIN ATOM
M  V30 1 O 2.779895 -2.022671 3.985192 0
M  V30 2 C 1.937390 -1.974995 3.080921 0
M  V30 3 N 1.872127 -2.619009 1.930185 0
M  V30 4 C 0.825796 -2.368548 1.126232 0
M  V30 5 C 0.863094 -3.167491 -0.137132 0
M  V30 6 N 1.588663 -2.546177 -1.192261 0
M  V30 7 C 1.352826 -1.388835 -1.968085 0
M  V30 8 C 0.264433 -0.557870 -1.886432 0
M  V30 9 C 0.044252 0.565440 -2.631211 0
M  V30 10 C 0.996969 0.900283 -3.549830 0
M  V30 11 C 2.120393 0.118294 -3.694993 0
M  V30 12 O 3.091087 0.455387 -4.627957 0
M  V30 13 C 2.277216 -1.000042 -2.910593 0
M  V30 14 N -0.124159 -1.524566 1.425102 0
M  V30 15 C -0.213935 -0.794556 2.538286 0
M  V30 16 C 0.886439 -1.065263 3.371561 0
M  V30 17 S 0.603732 0.004012 4.825640 0
M  V30 18 C -0.986926 0.723273 4.168311 0
M  V30 19 C -1.800935 1.652363 4.768037 0
M  V30 20 C -2.928258 2.024643 4.072780 0
M  V30 21 C -3.104607 1.423631 2.863981 0
M  V30 22 Br -4.695124 1.963400 1.907256 0
M  V30 23 C -2.295634 0.510026 2.284213 0
M  V30 24 C -1.156354 0.100788 2.931762 0
M  V30 25 H 2.648745 -3.264533 1.760004 0
M  V30 26 H 1.168340 -4.191310 0.079322 0
M  V30 27 H -0.234290 -3.266553 -0.429449 0
M  V30 28 H 2.466530 -3.076401 -1.411074 0
M  V30 29 H -0.516738 -0.792050 -1.178321 0
M  V30 30 H -0.845295 1.177679 -2.510729 0
M  V30 31 H 0.912473 1.754988 -4.173311 0
M  V30 32 H 2.845890 0.819825 -5.544265 0
M  V30 33 H 3.188960 -1.582763 -3.069809 0
M  V30 34 H -1.484608 2.010012 5.734202 0
M  V30 35 H -3.569976 2.754966 4.542039 0
M  V30 36 H -2.564741 0.117753 1.315409 0
M  V30 END ATOM
M  V30 BEGIN BOND
M  V30 1 2 1 2
M  V30 2 1 2 3
M  V30 3 1 3 4
M  V30 4 1 4 5
M  V30 5 1 5 6
M  V30 6 1 6 7
M  V30 7 2 7 8
M  V30 8 1 8 9
M  V30 9 2 9 10
M  V30 10 1 10 11
M  V30 11 1 11 12
M  V30 12 2 11 13
M  V30 13 2 4 14
M  V30 14 1 14 15
M  V30 15 2 15 16
M  V30 16 1 16 17
M  V30 17 1 17 18
M  V30 18 2 18 19
M  V30 19 1 19 20
M  V30 20 2 20 21
M  V30 21 1 21 22
M  V30 22 1 21 23
M  V30 23 2 23 24
M  V30 24 1 16 2
M  V30 25 1 24 18
M  V30 26 1 13 7
M  V30 27 1 24 15
M  V30 28 1 3 25
M  V30 29 1 5 26
M  V30 30 1 5 27
M  V30 31 1 6 28
M  V30 32 1 8 29
M  V30 33 1 9 30
M  V30 34 1 10 31
M  V30 35 1 12 32
M  V30 36 1 13 33
M  V30 37 1 19 34
M  V30 38 1 20 35
M  V30 39 1 23 36
M  V30 END BOND
M  V30 END CTAB
M  END
>  <Dataset>  (839) 
ChEMBL_Kinases

>  <Ligand_Instance>  (839) 
nan

>  <PDB_ID>  (839) 
nan

>  <Standardized_SMILES>  (839) 
O=c1[nH]c(CNc2cccc(O)c2)nc2c1sc1ccc(Br)cc12

>  <Name>  (839) 
nan

>  <Pocket>  (839) 
nan

>  <ATP_Site>  (839) 
nan

>  <Peripheral>  (839) 
nan

>  <Num_H_Atoms_ProtBoundConf>  (839) 
nan

>  <Num_Resolved_Atoms>  (839) 
nan

>  <Num_Not_Resolved_Atoms>  (839) 
nan

$$$$
CHEMBL583972
     RDKit          3D

  0  0  0  0  0  0  0  0  0  0999 V3000
M  V30 BEGIN CTAB
M  V30 COUNTS 28 31 0 0 0
M  V30 BEGIN ATOM
M  V30 1 O 0.210015 -5.968379 3.304636 0
M  V30 2 C 0.003508 -5.065661 2.449859 0
M  V30 3 C 0.366109 -3.655200 2.433508 0
M  V30 4 C 1.060195 -3.116671 3.496944 0
M  V30 5 N 1.231243 -1.804894 3.161825 0
M  V30 6 C 0.674133 -1.542416 1.956381 0
M  V30 7 C 0.114447 -2.706224 1.468381 0
M  V30 8 C -0.532933 -2.768760 0.253777 0
M  V30 9 C -0.630802 -1.608291 -0.522396 0
M  V30 10 C -0.063071 -0.466788 -0.007612 0
M  V30 11 C 0.002404 0.809521 -0.527983 0
M  V30 12 C -0.443032 1.429725 -1.699597 0
M  V30 13 C -0.202687 2.770395 -1.915917 0
M  V30 14 C 0.474857 3.557668 -1.010310 0
M  V30 15 C 0.931317 2.984701 0.158605 0
M  V30 16 C 0.673876 1.641739 0.343171 0
M  V30 17 N 1.021492 0.875853 1.400269 0
M  V30 18 C 0.589018 -0.385028 1.206319 0
M  V30 19 H -0.515013 -5.693499 1.769647 0
M  V30 20 H 1.422558 -3.556177 4.417140 0
M  V30 21 H 1.715923 -1.063642 3.719450 0
M  V30 22 H -0.944722 -3.705521 -0.064496 0
M  V30 23 H -1.132885 -1.628455 -1.478739 0
M  V30 24 H -0.974776 0.823471 -2.416205 0
M  V30 25 H -0.544121 3.266438 -2.824441 0
M  V30 26 H 0.685786 4.611009 -1.137726 0
M  V30 27 H 1.469476 3.556382 0.905082 0
M  V30 28 H 1.543292 1.155719 2.263037 0
M  V30 END ATOM
M  V30 BEGIN BOND
M  V30 1 2 1 2
M  V30 2 1 2 3
M  V30 3 2 3 4
M  V30 4 1 4 5
M  V30 5 1 5 6
M  V30 6 2 6 7
M  V30 7 1 7 8
M  V30 8 2 8 9
M  V30 9 1 9 10
M  V30 10 1 10 11
M  V30 11 2 11 12
M  V30 12 1 12 13
M  V30 13 2 13 14
M  V30 14 1 14 15
M  V30 15 2 15 16
M  V30 16 1 16 17
M  V30 17 1 17 18
M  V30 18 1 7 3
M  V30 19 2 18 10
M  V30 20 1 18 6
M  V30 21 1 16 11
M  V30 22 1 2 19
M  V30 23 1 4 20
M  V30 24 1 5 21
M  V30 25 1 8 22
M  V30 26 1 9 23
M  V30 27 1 12 24
M  V30 28 1 13 25
M  V30 29 1 14 26
M  V30 30 1 15 27
M  V30 31 1 17 28
M  V30 END BOND
M  V30 END CTAB
M  END
>  <Dataset>  (840) 
ChEMBL_Kinases

>  <Ligand_Instance>  (840) 
nan

>  <PDB_ID>  (840) 
nan

>  <Standardized_SMILES>  (840) 
O=Cc1c[nH]c2c1ccc1c3ccccc3[nH]c12

>  <Name>  (840) 
nan

>  <Pocket>  (840) 
nan

>  <ATP_Site>  (840) 
nan

>  <Peripheral>  (840) 
nan

>  <Num_H_Atoms_ProtBoundConf>  (840) 
nan

>  <Num_Resolved_Atoms>  (840) 
nan

>  <Num_Not_Resolved_Atoms>  (840) 
nan

$$$$
CHEMBL583273
     RDKit          3D

  0  0  0  0  0  0  0  0  0  0999 V3000
M  V30 BEGIN CTAB
M  V30 COUNTS 41 44 0 0 0
M  V30 BEGIN ATOM
M  V30 1 C -0.163996 -5.587520 0.055020 0
M  V30 2 N 0.386884 -4.892905 1.145392 0
M  V30 3 C -0.444871 -4.481801 2.200862 0
M  V30 4 C 1.634792 -4.265817 0.959418 0
M  V30 5 C 1.537927 -3.243209 -0.148200 0
M  V30 6 N 1.205370 -2.003051 0.196997 0
M  V30 7 C 1.084250 -0.987987 -0.682125 0
M  V30 8 C 1.345065 -1.421913 -1.913896 0
M  V30 9 S 1.130032 0.105464 -2.976324 0
M  V30 10 C 0.707077 1.143124 -1.572035 0
M  V30 11 C 0.401140 2.465634 -1.573312 0
M  V30 12 C 0.100007 3.104329 -0.396521 0
M  V30 13 C 0.143907 2.290041 0.713040 0
M  V30 14 C -0.177753 2.949915 2.004744 0
M  V30 15 C 0.417445 2.503832 3.186410 0
M  V30 16 C 0.053042 3.185603 4.350415 0
M  V30 17 C -0.835548 4.242324 4.391022 0
M  V30 18 C -1.408191 4.661981 3.210254 0
M  V30 19 C -1.066435 4.005330 2.038886 0
M  V30 20 C 0.452408 0.951467 0.723112 0
M  V30 21 C 0.754358 0.324233 -0.480197 0
M  V30 22 C 1.700335 -2.701781 -2.364023 0
M  V30 23 O 1.898627 -2.872818 -3.584827 0
M  V30 24 N 1.792269 -3.635277 -1.405846 0
M  V30 25 H -1.138673 -6.041146 0.327839 0
M  V30 26 H -0.417834 -4.822869 -0.737000 0
M  V30 27 H 0.493462 -6.327408 -0.426618 0
M  V30 28 H -0.258413 -5.009751 3.157114 0
M  V30 29 H -1.519675 -4.656966 1.922086 0
M  V30 30 H -0.334698 -3.389175 2.362652 0
M  V30 31 H 2.401082 -5.024698 0.686666 0
M  V30 32 H 2.022332 -3.775747 1.875851 0
M  V30 33 H 0.401242 2.992523 -2.509895 0
M  V30 34 H -0.147668 4.152520 -0.357721 0
M  V30 35 H 1.110070 1.687567 3.188026 0
M  V30 36 H 0.502644 2.856092 5.278250 0
M  V30 37 H -1.053258 4.709234 5.362357 0
M  V30 38 H -2.106011 5.487940 3.224897 0
M  V30 39 H -1.547782 4.378078 1.138835 0
M  V30 40 H 0.444812 0.448479 1.675306 0
M  V30 41 H 2.053064 -4.599921 -1.691828 0
M  V30 END ATOM
M  V30 BEGIN BOND
M  V30 1 1 1 2
M  V30 2 1 2 3
M  V30 3 1 2 4
M  V30 4 1 4 5
M  V30 5 2 5 6
M  V30 6 1 6 7
M  V30 7 2 7 8
M  V30 8 1 8 9
M  V30 9 1 9 10
M  V30 10 2 10 11
M  V30 11 1 11 12
M  V30 12 2 12 13
M  V30 13 1 13 14
M  V30 14 2 14 15
M  V30 15 1 15 16
M  V30 16 2 16 17
M  V30 17 1 17 18
M  V30 18 2 18 19
M  V30 19 1 13 20
M  V30 20 2 20 21
M  V30 21 1 8 22
M  V30 22 2 22 23
M  V30 23 1 22 24
M  V30 24 1 24 5
M  V30 25 1 21 7
M  V30 26 1 21 10
M  V30 27 1 19 14
M  V30 28 1 1 25
M  V30 29 1 1 26
M  V30 30 1 1 27
M  V30 31 1 3 28
M  V30 32 1 3 29
M  V30 33 1 3 30
M  V30 34 1 4 31
M  V30 35 1 4 32
M  V30 36 1 11 33
M  V30 37 1 12 34
M  V30 38 1 15 35
M  V30 39 1 16 36
M  V30 40 1 17 37
M  V30 41 1 18 38
M  V30 42 1 19 39
M  V30 43 1 20 40
M  V30 44 1 24 41
M  V30 END BOND
M  V30 END CTAB
M  END
>  <Dataset>  (841) 
ChEMBL_Kinases

>  <Ligand_Instance>  (841) 
nan

>  <PDB_ID>  (841) 
nan

>  <Standardized_SMILES>  (841) 
CN(C)Cc1nc2c(sc3ccc(-c4ccccc4)cc32)c(=O)[nH]1

>  <Name>  (841) 
nan

>  <Pocket>  (841) 
nan

>  <ATP_Site>  (841) 
nan

>  <Peripheral>  (841) 
nan

>  <Num_H_Atoms_ProtBoundConf>  (841) 
nan

>  <Num_Resolved_Atoms>  (841) 
nan

>  <Num_Not_Resolved_Atoms>  (841) 
nan

$$$$
CHEMBL583187
     RDKit          3D

  0  0  0  0  0  0  0  0  0  0999 V3000
M  V30 BEGIN CTAB
M  V30 COUNTS 47 51 0 0 0
M  V30 BEGIN ATOM
M  V30 1 O 3.863734 -1.920102 4.464150 0
M  V30 2 C 3.115682 -1.273378 3.706514 0
M  V30 3 N 3.405421 -0.077605 3.169527 0
M  V30 4 C 2.472152 0.468230 2.374107 0
M  V30 5 C 2.791755 1.803482 1.777498 0
M  V30 6 N 3.462409 1.653681 0.503394 0
M  V30 7 C 2.687776 0.952776 -0.473592 0
M  V30 8 C 3.398229 1.251228 -1.782842 0
M  V30 9 C 3.860876 2.675261 -1.588869 0 CFG=2
M  V30 10 O 5.224593 2.766628 -1.925895 0
M  V30 11 C 3.692625 2.942670 -0.113944 0
M  V30 12 N 1.288481 -0.080626 2.077818 0
M  V30 13 C 0.893932 -1.271178 2.557695 0
M  V30 14 C 1.891820 -1.826453 3.391974 0
M  V30 15 S 1.158171 -3.420988 3.930703 0
M  V30 16 C -0.354314 -3.213244 3.030842 0
M  V30 17 C -1.414539 -4.048260 2.964488 0
M  V30 18 C -2.519347 -3.721371 2.206711 0
M  V30 19 C -2.406555 -2.506788 1.566078 0
M  V30 20 C -3.571211 -2.114278 0.738570 0
M  V30 21 C -3.908266 -0.788618 0.573929 0
M  V30 22 C -5.000019 -0.424874 -0.201789 0
M  V30 23 C -5.781118 -1.398393 -0.832901 0
M  V30 24 O -6.889684 -1.094776 -1.624831 0
M  V30 25 C -5.417472 -2.715396 -0.648330 0
M  V30 26 C -4.332604 -3.093319 0.121501 0
M  V30 27 C -1.340526 -1.650659 1.623329 0
M  V30 28 C -0.247679 -1.999620 2.387732 0
M  V30 29 H 4.323700 0.349927 3.397775 0
M  V30 30 H 3.393669 2.417789 2.448780 0
M  V30 31 H 1.819295 2.348866 1.660159 0
M  V30 32 H 1.642024 1.320958 -0.507377 0
M  V30 33 H 2.746431 -0.154286 -0.319522 0
M  V30 34 H 2.670849 1.132167 -2.611696 0
M  V30 35 H 4.263877 0.563551 -1.890558 0
M  V30 36 H 3.270059 3.355560 -2.228925 0
M  V30 37 H 5.716588 2.013964 -1.512010 0
M  V30 38 H 2.817257 3.613335 0.088440 0
M  V30 39 H 4.641012 3.376472 0.299528 0
M  V30 40 H -1.384792 -4.974299 3.512555 0
M  V30 41 H -3.388522 -4.345668 2.117606 0
M  V30 42 H -3.339111 -0.012518 1.038329 0
M  V30 43 H -5.282163 0.612406 -0.343800 0
M  V30 44 H -7.788479 -1.101344 -1.121666 0
M  V30 45 H -6.033746 -3.473342 -1.145774 0
M  V30 46 H -4.111941 -4.147700 0.218016 0
M  V30 47 H -1.410242 -0.714136 1.048170 0
M  V30 END ATOM
M  V30 BEGIN BOND
M  V30 1 2 1 2
M  V30 2 1 2 3
M  V30 3 1 3 4
M  V30 4 1 4 5
M  V30 5 1 5 6
M  V30 6 1 6 7
M  V30 7 1 7 8
M  V30 8 1 8 9
M  V30 9 1 9 10
M  V30 10 1 9 11
M  V30 11 2 4 12
M  V30 12 1 12 13
M  V30 13 2 13 14
M  V30 14 1 14 15
M  V30 15 1 15 16
M  V30 16 2 16 17
M  V30 17 1 17 18
M  V30 18 2 18 19
M  V30 19 1 19 20
M  V30 20 2 20 21
M  V30 21 1 21 22
M  V30 22 2 22 23
M  V30 23 1 23 24
M  V30 24 1 23 25
M  V30 25 2 25 26
M  V30 26 1 19 27
M  V30 27 2 27 28
M  V30 28 1 14 2
M  V30 29 1 28 16
M  V30 30 1 11 6
M  V30 31 1 28 13
M  V30 32 1 26 20
M  V30 33 1 3 29
M  V30 34 1 5 30
M  V30 35 1 5 31
M  V30 36 1 7 32
M  V30 37 1 7 33
M  V30 38 1 8 34
M  V30 39 1 8 35
M  V30 40 1 9 36 CFG=3
M  V30 41 1 10 37
M  V30 42 1 11 38
M  V30 43 1 11 39
M  V30 44 1 17 40
M  V30 45 1 18 41
M  V30 46 1 21 42
M  V30 47 1 22 43
M  V30 48 1 24 44
M  V30 49 1 25 45
M  V30 50 1 26 46
M  V30 51 1 27 47
M  V30 END BOND
M  V30 END CTAB
M  END
>  <Dataset>  (842) 
ChEMBL_Kinases

>  <Ligand_Instance>  (842) 
nan

>  <PDB_ID>  (842) 
nan

>  <Standardized_SMILES>  (842) 
O=c1[nH]c(CN2CC[C@H](O)C2)nc2c1sc1ccc(-c3ccc(O)cc3)cc12

>  <Name>  (842) 
nan

>  <Pocket>  (842) 
nan

>  <ATP_Site>  (842) 
nan

>  <Peripheral>  (842) 
nan

>  <Num_H_Atoms_ProtBoundConf>  (842) 
nan

>  <Num_Resolved_Atoms>  (842) 
nan

>  <Num_Not_Resolved_Atoms>  (842) 
nan

$$$$
CHEMBL583144
     RDKit          3D

  0  0  0  0  0  0  0  0  0  0999 V3000
M  V30 BEGIN CTAB
M  V30 COUNTS 20 22 0 0 0
M  V30 BEGIN ATOM
M  V30 1 O 2.102952 -3.712273 1.333764 0
M  V30 2 C 1.676937 -2.641666 1.815521 0
M  V30 3 N 1.648335 -2.435288 3.141214 0
M  V30 4 C 1.161999 -1.235048 3.480038 0
M  V30 5 N 0.733361 -0.295405 2.641940 0
M  V30 6 C 0.743353 -0.458179 1.306826 0
M  V30 7 C 1.234852 -1.675571 0.922081 0
M  V30 8 S 1.173513 -1.708220 -0.804791 0
M  V30 9 C 0.441572 0.029833 -0.951899 0
M  V30 10 C 0.104443 0.715502 -2.124289 0
M  V30 11 Cl 0.353685 -0.042437 -3.671199 0
M  V30 12 C -0.411250 1.970412 -1.936069 0
M  V30 13 C -0.539249 2.411099 -0.646895 0
M  V30 14 C -0.197331 1.707343 0.461890 0
M  V30 15 Cl -0.439224 2.449718 2.029025 0
M  V30 16 C 0.327974 0.439090 0.366756 0
M  V30 17 H 1.965759 -3.124601 3.824692 0
M  V30 18 H 1.110828 -1.001174 4.550265 0
M  V30 19 H -0.674837 2.509604 -2.823010 0
M  V30 20 H -0.957577 3.426142 -0.522425 0
M  V30 END ATOM
M  V30 BEGIN BOND
M  V30 1 2 1 2
M  V30 2 1 2 3
M  V30 3 1 3 4
M  V30 4 2 4 5
M  V30 5 1 5 6
M  V30 6 2 6 7
M  V30 7 1 7 8
M  V30 8 1 8 9
M  V30 9 2 9 10
M  V30 10 1 10 11
M  V30 11 1 10 12
M  V30 12 2 12 13
M  V30 13 1 13 14
M  V30 14 1 14 15
M  V30 15 2 14 16
M  V30 16 1 7 2
M  V30 17 1 16 9
M  V30 18 1 16 6
M  V30 19 1 3 17
M  V30 20 1 4 18
M  V30 21 1 12 19
M  V30 22 1 13 20
M  V30 END BOND
M  V30 END CTAB
M  END
>  <Dataset>  (843) 
ChEMBL_Kinases

>  <Ligand_Instance>  (843) 
nan

>  <PDB_ID>  (843) 
nan

>  <Standardized_SMILES>  (843) 
O=c1[nH]cnc2c1sc1c(Cl)ccc(Cl)c12

>  <Name>  (843) 
nan

>  <Pocket>  (843) 
nan

>  <ATP_Site>  (843) 
nan

>  <Peripheral>  (843) 
nan

>  <Num_H_Atoms_ProtBoundConf>  (843) 
nan

>  <Num_Resolved_Atoms>  (843) 
nan

>  <Num_Not_Resolved_Atoms>  (843) 
nan

$$$$
CHEMBL3793221
     RDKit          3D

  0  0  0  0  0  0  0  0  0  0999 V3000
M  V30 BEGIN CTAB
M  V30 COUNTS 46 49 0 0 0
M  V30 BEGIN ATOM
M  V30 1 N 1.907667 -3.892048 0.812776 0
M  V30 2 C 2.885699 -3.009258 0.275779 0
M  V30 3 C 2.724139 -1.649615 0.314954 0
M  V30 4 C 3.593332 -0.712385 -0.167802 0
M  V30 5 C 3.505623 0.729146 -0.155014 0
M  V30 6 C 4.552453 1.469857 -0.661306 0
M  V30 7 C 4.572851 2.840306 -0.667292 0
M  V30 8 N 3.556150 3.549394 -0.171548 0
M  V30 9 C 2.480850 2.894079 0.348175 0
M  V30 10 C 2.506118 1.526854 0.331485 0
M  V30 11 N 1.336520 0.953069 0.881262 0
M  V30 12 C 0.388946 0.868143 -0.196398 0
M  V30 13 O 0.772826 1.291076 -1.316743 0
M  V30 14 C -0.975336 0.322062 -0.049756 0
M  V30 15 N -1.391175 -0.130497 1.140060 0
M  V30 16 C -2.643550 -0.640714 1.309555 0
M  V30 17 C -3.093006 -1.130592 2.598288 0
M  V30 18 C -3.725551 -0.332286 3.544103 0
M  V30 19 F -3.939954 0.974601 3.260079 0
M  V30 20 C -4.143336 -0.837327 4.771138 0
M  V30 21 C -3.906656 -2.170576 5.020910 0
M  V30 22 C -3.285870 -3.029406 4.136607 0
M  V30 23 C -2.891021 -2.465188 2.926219 0
M  V30 24 F -2.274641 -3.302567 2.039112 0
M  V30 25 C -3.414221 -0.644758 0.173179 0
M  V30 26 C -3.016019 -0.186620 -1.065366 0
M  V30 27 C -1.733135 0.326009 -1.198916 0
M  V30 28 N -1.325589 0.793473 -2.460980 0
M  V30 29 N 4.687355 -1.261445 -0.717779 0
M  V30 30 C 4.898523 -2.579703 -0.783892 0
M  V30 31 N 4.028512 -3.483770 -0.302225 0
M  V30 32 H 1.278467 -4.230761 0.029198 0
M  V30 33 H 2.199015 -3.864783 1.814005 0
M  V30 34 H 1.832303 -1.319139 0.778108 0
M  V30 35 H 5.427350 0.982149 -1.087616 0
M  V30 36 H 5.412340 3.372383 -1.073314 0
M  V30 37 H 1.674490 3.492030 0.741539 0
M  V30 38 H 1.028408 0.610615 1.827758 0
M  V30 39 H -4.636047 -0.226167 5.514076 0
M  V30 40 H -4.226328 -2.579274 5.972922 0
M  V30 41 H -3.110898 -4.066614 4.351348 0
M  V30 42 H -4.419464 -1.049394 0.289823 0
M  V30 43 H -3.731723 -0.251720 -1.875104 0
M  V30 44 H -1.308719 0.176568 -3.321117 0
M  V30 45 H -0.997908 1.712811 -2.785562 0
M  V30 46 H 5.828505 -2.884488 -1.256828 0
M  V30 END ATOM
M  V30 BEGIN BOND
M  V30 1 1 1 2
M  V30 2 2 2 3
M  V30 3 1 3 4
M  V30 4 1 4 5
M  V30 5 2 5 6
M  V30 6 1 6 7
M  V30 7 2 7 8
M  V30 8 1 8 9
M  V30 9 2 9 10
M  V30 10 1 10 11
M  V30 11 1 11 12
M  V30 12 2 12 13
M  V30 13 1 12 14
M  V30 14 2 14 15
M  V30 15 1 15 16
M  V30 16 1 16 17
M  V30 17 2 17 18
M  V30 18 1 18 19
M  V30 19 1 18 20
M  V30 20 2 20 21
M  V30 21 1 21 22
M  V30 22 2 22 23
M  V30 23 1 23 24
M  V30 24 2 16 25
M  V30 25 1 25 26
M  V30 26 2 26 27
M  V30 27 1 27 28
M  V30 28 2 4 29
M  V30 29 1 29 30
M  V30 30 2 30 31
M  V30 31 1 31 2
M  V30 32 1 10 5
M  V30 33 1 27 14
M  V30 34 1 23 17
M  V30 35 1 1 32
M  V30 36 1 1 33
M  V30 37 1 3 34
M  V30 38 1 6 35
M  V30 39 1 7 36
M  V30 40 1 9 37
M  V30 41 1 11 38
M  V30 42 1 20 39
M  V30 43 1 21 40
M  V30 44 1 22 41
M  V30 45 1 25 42
M  V30 46 1 26 43
M  V30 47 1 28 44
M  V30 48 1 28 45
M  V30 49 1 30 46
M  V30 END BOND
M  V30 END CTAB
M  END
>  <Dataset>  (844) 
ChEMBL_Kinases

>  <Ligand_Instance>  (844) 
nan

>  <PDB_ID>  (844) 
nan

>  <Standardized_SMILES>  (844) 
Nc1cc(-c2ccncc2NC(=O)c2nc(-c3c(F)cccc3F)ccc2N)ncn1

>  <Name>  (844) 
nan

>  <Pocket>  (844) 
nan

>  <ATP_Site>  (844) 
nan

>  <Peripheral>  (844) 
nan

>  <Num_H_Atoms_ProtBoundConf>  (844) 
nan

>  <Num_Resolved_Atoms>  (844) 
nan

>  <Num_Not_Resolved_Atoms>  (844) 
nan

$$$$
CHEMBL582844
     RDKit          3D

  0  0  0  0  0  0  0  0  0  0999 V3000
M  V30 BEGIN CTAB
M  V30 COUNTS 41 44 0 0 0
M  V30 BEGIN ATOM
M  V30 1 C 0.262733 -6.002263 1.969024 0
M  V30 2 N 1.030746 -4.874077 1.470756 0
M  V30 3 C 0.874391 -3.787226 2.436877 0
M  V30 4 C 0.556212 -4.452317 0.158770 0
M  V30 5 C 1.366848 -3.288330 -0.353876 0
M  V30 6 N 0.977114 -2.063910 -0.072076 0
M  V30 7 C 1.618372 -0.952945 -0.473402 0
M  V30 8 C 2.714603 -1.291459 -1.204267 0
M  V30 9 S 3.444716 0.343738 -1.653814 0
M  V30 10 C 2.187344 1.298557 -0.804089 0
M  V30 11 C 2.069019 2.677019 -0.697784 0
M  V30 12 C 1.015404 3.192146 0.008917 0
M  V30 13 C 0.161856 2.262398 0.554016 0
M  V30 14 C -0.980773 2.822219 1.320229 0
M  V30 15 C -1.546955 2.186606 2.391077 0
M  V30 16 C -2.604470 2.702961 3.101816 0
M  V30 17 C -3.119919 3.929985 2.710100 0
M  V30 18 C -2.578571 4.615511 1.627411 0
M  V30 19 Cl -3.263830 6.178327 1.158706 0
M  V30 20 C -1.518306 4.043554 0.955806 0
M  V30 21 C 0.265100 0.898312 0.458095 0
M  V30 22 C 1.317740 0.359928 -0.248456 0
M  V30 23 C 3.176376 -2.565135 -1.534706 0
M  V30 24 O 4.224414 -2.618247 -2.228131 0
M  V30 25 N 2.453330 -3.597402 -1.077580 0
M  V30 26 H -0.104729 -5.820464 2.982407 0
M  V30 27 H 0.895494 -6.915720 1.904552 0
M  V30 28 H -0.640586 -6.161386 1.323638 0
M  V30 29 H 0.892140 -4.252009 3.447386 0
M  V30 30 H 1.618126 -2.989609 2.306214 0
M  V30 31 H -0.143139 -3.319657 2.335780 0
M  V30 32 H -0.482292 -4.091166 0.304493 0
M  V30 33 H 0.640402 -5.279168 -0.544018 0
M  V30 34 H 2.832488 3.262978 -1.190344 0
M  V30 35 H 0.907929 4.259505 0.101886 0
M  V30 36 H -1.148716 1.225640 2.703469 0
M  V30 37 H -3.050945 2.202046 3.946125 0
M  V30 38 H -3.965400 4.408631 3.228260 0
M  V30 39 H -1.116708 4.599833 0.115977 0
M  V30 40 H -0.491305 0.298569 0.945475 0
M  V30 41 H 2.806582 -4.542023 -1.329639 0
M  V30 END ATOM
M  V30 BEGIN BOND
M  V30 1 1 1 2
M  V30 2 1 2 3
M  V30 3 1 2 4
M  V30 4 1 4 5
M  V30 5 2 5 6
M  V30 6 1 6 7
M  V30 7 2 7 8
M  V30 8 1 8 9
M  V30 9 1 9 10
M  V30 10 2 10 11
M  V30 11 1 11 12
M  V30 12 2 12 13
M  V30 13 1 13 14
M  V30 14 2 14 15
M  V30 15 1 15 16
M  V30 16 2 16 17
M  V30 17 1 17 18
M  V30 18 1 18 19
M  V30 19 2 18 20
M  V30 20 1 13 21
M  V30 21 2 21 22
M  V30 22 1 8 23
M  V30 23 2 23 24
M  V30 24 1 23 25
M  V30 25 1 25 5
M  V30 26 1 22 7
M  V30 27 1 22 10
M  V30 28 1 20 14
M  V30 29 1 1 26
M  V30 30 1 1 27
M  V30 31 1 1 28
M  V30 32 1 3 29
M  V30 33 1 3 30
M  V30 34 1 3 31
M  V30 35 1 4 32
M  V30 36 1 4 33
M  V30 37 1 11 34
M  V30 38 1 12 35
M  V30 39 1 15 36
M  V30 40 1 16 37
M  V30 41 1 17 38
M  V30 42 1 20 39
M  V30 43 1 21 40
M  V30 44 1 25 41
M  V30 END BOND
M  V30 END CTAB
M  END
>  <Dataset>  (845) 
ChEMBL_Kinases

>  <Ligand_Instance>  (845) 
nan

>  <PDB_ID>  (845) 
nan

>  <Standardized_SMILES>  (845) 
CN(C)Cc1nc2c(sc3ccc(-c4cccc(Cl)c4)cc32)c(=O)[nH]1

>  <Name>  (845) 
nan

>  <Pocket>  (845) 
nan

>  <ATP_Site>  (845) 
nan

>  <Peripheral>  (845) 
nan

>  <Num_H_Atoms_ProtBoundConf>  (845) 
nan

>  <Num_Resolved_Atoms>  (845) 
nan

>  <Num_Not_Resolved_Atoms>  (845) 
nan

$$$$
CHEMBL3798066
     RDKit          3D

  0  0  0  0  0  0  0  0  0  0999 V3000
M  V30 BEGIN CTAB
M  V30 COUNTS 59 63 0 0 0
M  V30 BEGIN ATOM
M  V30 1 C 3.506651 -4.089591 1.388871 0
M  V30 2 N 3.475146 -2.672524 1.661637 0
M  V30 3 C 2.808544 -2.002171 2.779869 0
M  V30 4 C 4.201531 -1.941094 0.672900 0
M  V30 5 O 4.545622 -2.949259 -0.008996 0
M  V30 6 C 4.339566 -0.467438 0.694598 0
M  V30 7 C 5.573483 0.118978 0.866390 0
M  V30 8 C 5.633405 1.507004 0.880793 0
M  V30 9 C 4.454550 2.211508 0.722532 0
M  V30 10 C 3.215752 1.606888 0.550426 0
M  V30 11 C 1.976033 2.361887 0.397613 0
M  V30 12 C 1.902164 3.736334 0.423577 0
M  V30 13 N 0.751508 4.419065 0.292003 0
M  V30 14 C -0.429594 3.753295 0.121324 0
M  V30 15 N -1.690136 4.377132 -0.025637 0
M  V30 16 C -0.368615 2.396006 0.093904 0
M  V30 17 C -1.615724 1.622177 -0.080055 0
M  V30 18 N -2.842126 2.104658 -0.215380 0
M  V30 19 C -3.727591 1.096610 -0.354925 0
M  V30 20 C -5.080326 0.991811 -0.511268 0
M  V30 21 C -5.691074 -0.231953 -0.612762 0
M  V30 22 C -4.926957 -1.371721 -0.556530 0
M  V30 23 C -3.548952 -1.349395 -0.400218 0
M  V30 24 N -2.861371 -2.574352 -0.405735 0
M  V30 25 C -3.650524 -3.775387 -0.088838 0
M  V30 26 C -2.806630 -4.925917 0.335643 0
M  V30 27 N -1.689616 -4.582465 1.197592 0
M  V30 28 C -0.860484 -3.553255 0.584799 0
M  V30 29 C -1.532206 -3.031719 -0.674991 0
M  V30 30 C -3.017116 -0.082993 -0.305107 0
M  V30 31 N -1.738091 0.284054 -0.136430 0
M  V30 32 N 0.787908 1.744859 0.226965 0
M  V30 33 C 3.158357 0.225925 0.535876 0
M  V30 34 H 4.513974 -4.503230 1.367876 0
M  V30 35 H 2.830820 -4.593013 2.134953 0
M  V30 36 H 3.014561 -4.295261 0.405599 0
M  V30 37 H 2.661464 -2.700845 3.623048 0
M  V30 38 H 1.796847 -1.653215 2.483594 0
M  V30 39 H 3.391174 -1.143432 3.162362 0
M  V30 40 H 6.419330 -0.546013 0.979310 0
M  V30 41 H 6.580707 1.970765 1.012752 0
M  V30 42 H 4.534247 3.282708 0.738410 0
M  V30 43 H 2.794805 4.312724 0.554091 0
M  V30 44 H -1.688517 4.591006 -1.040989 0
M  V30 45 H -2.311113 4.489541 0.823954 0
M  V30 46 H -5.667631 1.905206 -0.554432 0
M  V30 47 H -6.750891 -0.228933 -0.732702 0
M  V30 48 H -5.517224 -2.284783 -0.646420 0
M  V30 49 H -4.444935 -3.527004 0.654236 0
M  V30 50 H -4.193462 -4.060113 -1.016098 0
M  V30 51 H -3.449649 -5.623091 0.938497 0
M  V30 52 H -2.467597 -5.515321 -0.546930 0
M  V30 53 H -1.972304 -4.379375 2.163547 0
M  V30 54 H 0.145105 -3.905986 0.310597 0
M  V30 55 H -0.743138 -2.746950 1.333501 0
M  V30 56 H -1.526039 -3.915797 -1.393231 0
M  V30 57 H -0.852445 -2.315167 -1.155671 0
M  V30 58 H -0.893194 -0.310882 -0.043584 0
M  V30 59 H 2.210890 -0.275433 0.402836 0
M  V30 END ATOM
M  V30 BEGIN BOND
M  V30 1 1 1 2
M  V30 2 1 2 3
M  V30 3 1 2 4
M  V30 4 2 4 5
M  V30 5 1 4 6
M  V30 6 2 6 7
M  V30 7 1 7 8
M  V30 8 2 8 9
M  V30 9 1 9 10
M  V30 10 1 10 11
M  V30 11 2 11 12
M  V30 12 1 12 13
M  V30 13 2 13 14
M  V30 14 1 14 15
M  V30 15 1 14 16
M  V30 16 1 16 17
M  V30 17 2 17 18
M  V30 18 1 18 19
M  V30 19 2 19 20
M  V30 20 1 20 21
M  V30 21 2 21 22
M  V30 22 1 22 23
M  V30 23 1 23 24
M  V30 24 1 24 25
M  V30 25 1 25 26
M  V30 26 1 26 27
M  V30 27 1 27 28
M  V30 28 1 28 29
M  V30 29 2 23 30
M  V30 30 1 30 31
M  V30 31 2 16 32
M  V30 32 2 10 33
M  V30 33 1 33 6
M  V30 34 1 32 11
M  V30 35 1 31 17
M  V30 36 1 30 19
M  V30 37 1 29 24
M  V30 38 1 1 34
M  V30 39 1 1 35
M  V30 40 1 1 36
M  V30 41 1 3 37
M  V30 42 1 3 38
M  V30 43 1 3 39
M  V30 44 1 7 40
M  V30 45 1 8 41
M  V30 46 1 9 42
M  V30 47 1 12 43
M  V30 48 1 15 44
M  V30 49 1 15 45
M  V30 50 1 20 46
M  V30 51 1 21 47
M  V30 52 1 22 48
M  V30 53 1 25 49
M  V30 54 1 25 50
M  V30 55 1 26 51
M  V30 56 1 26 52
M  V30 57 1 27 53
M  V30 58 1 28 54
M  V30 59 1 28 55
M  V30 60 1 29 56
M  V30 61 1 29 57
M  V30 62 1 31 58
M  V30 63 1 33 59
M  V30 END BOND
M  V30 END CTAB
M  END
>  <Dataset>  (846) 
ChEMBL_Kinases

>  <Ligand_Instance>  (846) 
nan

>  <PDB_ID>  (846) 
nan

>  <Standardized_SMILES>  (846) 
CN(C)C(=O)c1cccc(-c2cnc(N)c(-c3nc4cccc(N5CCNCC5)c4[nH]3)n2)c1

>  <Name>  (846) 
nan

>  <Pocket>  (846) 
nan

>  <ATP_Site>  (846) 
nan

>  <Peripheral>  (846) 
nan

>  <Num_H_Atoms_ProtBoundConf>  (846) 
nan

>  <Num_Resolved_Atoms>  (846) 
nan

>  <Num_Not_Resolved_Atoms>  (846) 
nan

$$$$
CHEMBL5071164
     RDKit          3D

  0  0  0  0  0  0  0  0  0  0999 V3000
M  V30 BEGIN CTAB
M  V30 COUNTS 44 47 0 0 0
M  V30 BEGIN ATOM
M  V30 1 C -1.442263 -4.393655 1.852880 0
M  V30 2 N -0.033241 -4.172466 1.791747 0
M  V30 3 C 0.338989 -2.821590 1.429074 0
M  V30 4 C -0.157155 -2.390897 0.107085 0
M  V30 5 C 0.686679 -1.351878 -0.554488 0
M  V30 6 N 1.724738 -0.767452 0.257672 0
M  V30 7 C 2.319157 0.484020 -0.043161 0
M  V30 8 N 3.620292 0.316783 -0.427343 0
M  V30 9 C 4.359595 1.384908 -0.790396 0
M  V30 10 N 3.873715 2.651364 -0.796673 0
M  V30 11 C 2.581575 2.868751 -0.420861 0
M  V30 12 N 1.741600 3.909183 -0.288464 0
M  V30 13 C 0.543655 3.495683 0.137737 0
M  V30 14 C 0.562026 2.103669 0.306425 0
M  V30 15 C -0.618256 1.414613 0.796861 0
M  V30 16 C -0.796410 0.540272 1.845032 0
M  V30 17 C -2.021519 -0.005441 2.140006 0
M  V30 18 C -3.132145 0.293955 1.403079 0
M  V30 19 C -3.026234 1.162944 0.338220 0
M  V30 20 Cl -4.438964 1.549858 -0.606955 0
M  V30 21 C -1.783652 1.694240 0.067197 0
M  V30 22 C 1.844723 1.769189 -0.054183 0
M  V30 23 C 2.333299 -1.340066 1.442150 0
M  V30 24 C 1.848644 -2.777927 1.508308 0
M  V30 25 H -1.704739 -4.511166 2.928124 0
M  V30 26 H -2.050993 -3.591817 1.404544 0
M  V30 27 H -1.652184 -5.334514 1.303253 0
M  V30 28 H 0.492460 -4.441328 2.654874 0
M  V30 29 H -0.015966 -2.186897 2.272494 0
M  V30 30 H -0.244426 -3.303748 -0.551171 0
M  V30 31 H -1.192053 -1.924037 0.169678 0
M  V30 32 H 1.263714 -1.892813 -1.382150 0
M  V30 33 H 0.090983 -0.582904 -1.091623 0
M  V30 34 H 5.395105 1.325445 -1.105400 0
M  V30 35 H 2.051689 4.895308 -0.508777 0
M  V30 36 H -0.281586 4.172294 0.310836 0
M  V30 37 H 0.123397 0.357461 2.379751 0
M  V30 38 H -2.063003 -0.677022 2.976005 0
M  V30 39 H -4.054628 -0.178580 1.703113 0
M  V30 40 H -1.781118 2.378028 -0.796776 0
M  V30 41 H 2.187303 -0.790483 2.362166 0
M  V30 42 H 3.432667 -1.433797 1.190080 0
M  V30 43 H 2.291014 -3.398278 0.711678 0
M  V30 44 H 2.181405 -3.170030 2.505941 0
M  V30 END ATOM
M  V30 BEGIN BOND
M  V30 1 1 1 2
M  V30 2 1 2 3
M  V30 3 1 3 4
M  V30 4 1 4 5
M  V30 5 1 5 6
M  V30 6 1 6 7
M  V30 7 2 7 8
M  V30 8 1 8 9
M  V30 9 2 9 10
M  V30 10 1 10 11
M  V30 11 1 11 12
M  V30 12 1 12 13
M  V30 13 2 13 14
M  V30 14 1 14 15
M  V30 15 2 15 16
M  V30 16 1 16 17
M  V30 17 2 17 18
M  V30 18 1 18 19
M  V30 19 1 19 20
M  V30 20 2 19 21
M  V30 21 1 14 22
M  V30 22 1 6 23
M  V30 23 1 23 24
M  V30 24 1 24 3
M  V30 25 1 22 7
M  V30 26 2 22 11
M  V30 27 1 21 15
M  V30 28 1 1 25
M  V30 29 1 1 26
M  V30 30 1 1 27
M  V30 31 1 2 28
M  V30 32 1 3 29
M  V30 33 1 4 30
M  V30 34 1 4 31
M  V30 35 1 5 32
M  V30 36 1 5 33
M  V30 37 1 9 34
M  V30 38 1 12 35
M  V30 39 1 13 36
M  V30 40 1 16 37
M  V30 41 1 17 38
M  V30 42 1 18 39
M  V30 43 1 21 40
M  V30 44 1 23 41
M  V30 45 1 23 42
M  V30 46 1 24 43
M  V30 47 1 24 44
M  V30 END BOND
M  V30 END CTAB
M  END
>  <Dataset>  (847) 
ChEMBL_Kinases

>  <Ligand_Instance>  (847) 
nan

>  <PDB_ID>  (847) 
nan

>  <Standardized_SMILES>  (847) 
CNC1CCN(c2ncnc3[nH]cc(-c4cccc(Cl)c4)c23)CC1

>  <Name>  (847) 
nan

>  <Pocket>  (847) 
nan

>  <ATP_Site>  (847) 
nan

>  <Peripheral>  (847) 
nan

>  <Num_H_Atoms_ProtBoundConf>  (847) 
nan

>  <Num_Resolved_Atoms>  (847) 
nan

>  <Num_Not_Resolved_Atoms>  (847) 
nan

$$$$
CHEMBL5072926
     RDKit          3D

  0  0  0  0  0  0  0  0  0  0999 V3000
M  V30 BEGIN CTAB
M  V30 COUNTS 52 55 0 0 0
M  V30 BEGIN ATOM
M  V30 1 C -0.237541 -3.909111 3.263334 0
M  V30 2 C 0.658438 -2.851957 2.780047 0
M  V30 3 N 1.995455 -2.857881 2.907332 0
M  V30 4 C 2.475390 -1.749638 2.358041 0
M  V30 5 C 3.704948 -1.171211 2.162238 0
M  V30 6 C 3.824341 0.044045 1.522135 0
M  V30 7 C 2.733300 0.741063 1.047369 0
M  V30 8 C 2.785705 2.027627 0.362909 0
M  V30 9 C 1.582071 2.565972 -0.037233 0
M  V30 10 C 1.538843 3.792995 -0.698648 0
M  V30 11 N 0.335257 4.393441 -1.132052 0
M  V30 12 N 2.713151 4.433693 -0.932933 0
M  V30 13 C 3.859899 3.892226 -0.536396 0
M  V30 14 N 5.052472 4.619130 -0.815137 0
M  V30 15 C 3.962356 2.701922 0.110843 0
M  V30 16 N 1.541866 0.164645 1.245636 0
M  V30 17 C 1.398215 -1.038010 1.876734 0
M  V30 18 N 0.263177 -1.746678 2.151108 0
M  V30 19 C -1.084083 -1.288408 1.780531 0
M  V30 20 C -1.328326 -1.861146 0.379497 0
M  V30 21 C -2.706053 -1.432743 -0.081722 0
M  V30 22 C -3.784886 -1.930922 0.839310 0
M  V30 23 C -3.728982 -3.410530 0.973693 0
M  V30 24 C -3.517080 -4.195135 -0.242414 0
M  V30 25 C -2.960053 -3.516113 -1.438056 0
M  V30 26 C -3.050131 -2.019574 -1.427256 0
M  V30 27 H -0.257069 -4.765389 2.541740 0
M  V30 28 H 0.147728 -4.242152 4.265102 0
M  V30 29 H -1.261439 -3.572082 3.435277 0
M  V30 30 H 4.596996 -1.684925 2.520295 0
M  V30 31 H 4.800074 0.484063 1.376923 0
M  V30 32 H 0.606310 2.116332 0.113107 0
M  V30 33 H 0.136355 4.376272 -2.164771 0
M  V30 34 H -0.293541 4.821208 -0.416631 0
M  V30 35 H 5.546641 4.443316 -1.733677 0
M  V30 36 H 5.156813 5.209902 0.047948 0
M  V30 37 H 4.903086 2.280542 0.423878 0
M  V30 38 H -1.124461 -0.180800 1.766331 0
M  V30 39 H -1.783908 -1.701593 2.506901 0
M  V30 40 H -1.196613 -2.940761 0.452352 0
M  V30 41 H -0.586508 -1.464223 -0.338298 0
M  V30 42 H -2.702964 -0.342314 -0.195023 0
M  V30 43 H -3.684037 -1.441924 1.812098 0
M  V30 44 H -4.758785 -1.676113 0.339037 0
M  V30 45 H -2.975523 -3.644476 1.756588 0
M  V30 46 H -4.701354 -3.697708 1.476079 0
M  V30 47 H -4.495759 -4.664460 -0.556693 0
M  V30 48 H -2.880098 -5.084293 -0.021845 0
M  V30 49 H -3.443248 -3.855692 -2.379541 0
M  V30 50 H -1.870042 -3.744599 -1.577720 0
M  V30 51 H -4.102046 -1.705037 -1.641374 0
M  V30 52 H -2.440015 -1.617337 -2.243304 0
M  V30 END ATOM
M  V30 BEGIN BOND
M  V30 1 1 1 2
M  V30 2 2 2 3
M  V30 3 1 3 4
M  V30 4 2 4 5
M  V30 5 1 5 6
M  V30 6 2 6 7
M  V30 7 1 7 8
M  V30 8 2 8 9
M  V30 9 1 9 10
M  V30 10 1 10 11
M  V30 11 2 10 12
M  V30 12 1 12 13
M  V30 13 1 13 14
M  V30 14 2 13 15
M  V30 15 1 7 16
M  V30 16 2 16 17
M  V30 17 1 17 18
M  V30 18 1 18 19
M  V30 19 1 19 20
M  V30 20 1 20 21
M  V30 21 1 21 22
M  V30 22 1 22 23
M  V30 23 1 23 24
M  V30 24 1 24 25
M  V30 25 1 25 26
M  V30 26 1 18 2
M  V30 27 1 26 21
M  V30 28 1 17 4
M  V30 29 1 15 8
M  V30 30 1 1 27
M  V30 31 1 1 28
M  V30 32 1 1 29
M  V30 33 1 5 30
M  V30 34 1 6 31
M  V30 35 1 9 32
M  V30 36 1 11 33
M  V30 37 1 11 34
M  V30 38 1 14 35
M  V30 39 1 14 36
M  V30 40 1 15 37
M  V30 41 1 19 38
M  V30 42 1 19 39
M  V30 43 1 20 40
M  V30 44 1 20 41
M  V30 45 1 21 42
M  V30 46 1 22 43
M  V30 47 1 22 44
M  V30 48 1 23 45
M  V30 49 1 23 46
M  V30 50 1 24 47
M  V30 51 1 24 48
M  V30 52 1 25 49
M  V30 53 1 25 50
M  V30 54 1 26 51
M  V30 55 1 26 52
M  V30 END BOND
M  V30 END CTAB
M  END
>  <Dataset>  (848) 
ChEMBL_Kinases

>  <Ligand_Instance>  (848) 
nan

>  <PDB_ID>  (848) 
nan

>  <Standardized_SMILES>  (848) 
Cc1nc2ccc(-c3cc(N)nc(N)c3)nc2n1CCC1CCCCC1

>  <Name>  (848) 
nan

>  <Pocket>  (848) 
nan

>  <ATP_Site>  (848) 
nan

>  <Peripheral>  (848) 
nan

>  <Num_H_Atoms_ProtBoundConf>  (848) 
nan

>  <Num_Resolved_Atoms>  (848) 
nan

>  <Num_Not_Resolved_Atoms>  (848) 
nan

$$$$
CHEMBL1173055
     RDKit          3D

  0  0  0  0  0  0  0  0  0  0999 V3000
M  V30 BEGIN CTAB
M  V30 COUNTS 42 45 0 0 0
M  V30 BEGIN ATOM
M  V30 1 C 1.253367 -7.592600 1.398883 0
M  V30 2 N 1.491250 -6.157034 1.250450 0
M  V30 3 C 0.221417 -5.515476 1.039271 0
M  V30 4 C 0.316113 -4.043217 0.871286 0
M  V30 5 C 0.244032 -3.160634 1.927024 0
M  V30 6 C 0.340294 -1.809400 1.687491 0
M  V30 7 C 0.505858 -1.223582 0.461354 0
M  V30 8 C 0.557990 0.202143 0.204534 0
M  V30 9 N 0.977293 0.609884 -1.022679 0
M  V30 10 C 0.978483 1.937451 -1.146609 0
M  V30 11 C 1.299127 2.859586 -2.114768 0
M  V30 12 C 1.197693 4.219934 -1.924158 0
M  V30 13 F 1.533598 5.046886 -2.929798 0
M  V30 14 C 0.758931 4.730723 -0.722281 0
M  V30 15 C 0.437087 3.792731 0.249509 0
M  V30 16 C 0.537063 2.416105 0.060046 0
M  V30 17 C 0.271868 1.354479 0.901116 0
M  V30 18 C -0.263853 1.317041 2.267381 0
M  V30 19 C -1.114450 2.494892 2.675275 0
M  V30 20 N -0.456737 3.764778 2.697089 0
M  V30 21 C 0.002959 4.445704 1.507072 0
M  V30 22 O 0.036308 5.703072 1.547121 0
M  V30 23 C 0.571296 -2.154967 -0.550416 0
M  V30 24 C 0.483569 -3.516045 -0.387897 0
M  V30 25 H 1.982269 -8.080541 2.048350 0
M  V30 26 H 0.218521 -7.817606 1.707422 0
M  V30 27 H 1.391964 -8.054668 0.378765 0
M  V30 28 H 1.913061 -5.827717 2.149343 0
M  V30 29 H -0.465592 -5.683686 1.899507 0
M  V30 30 H -0.299709 -5.993622 0.172970 0
M  V30 31 H 0.113382 -3.597587 2.899081 0
M  V30 32 H 0.296943 -1.254945 2.588873 0
M  V30 33 H 1.294125 0.056103 -1.868616 0
M  V30 34 H 1.643188 2.483828 -3.057267 0
M  V30 35 H 0.663194 5.787849 -0.525020 0
M  V30 36 H 0.493097 1.052115 2.990480 0
M  V30 37 H -1.029511 0.470608 2.249013 0
M  V30 38 H -1.994560 2.484822 1.982420 0
M  V30 39 H -1.507584 2.223238 3.689611 0
M  V30 40 H -0.270865 4.286602 3.589290 0
M  V30 41 H 0.701565 -1.852444 -1.587964 0
M  V30 42 H 0.540846 -4.197348 -1.220840 0
M  V30 END ATOM
M  V30 BEGIN BOND
M  V30 1 1 1 2
M  V30 2 1 2 3
M  V30 3 1 3 4
M  V30 4 2 4 5
M  V30 5 1 5 6
M  V30 6 2 6 7
M  V30 7 1 7 8
M  V30 8 1 8 9
M  V30 9 1 9 10
M  V30 10 2 10 11
M  V30 11 1 11 12
M  V30 12 1 12 13
M  V30 13 2 12 14
M  V30 14 1 14 15
M  V30 15 2 15 16
M  V30 16 1 16 17
M  V30 17 1 17 18
M  V30 18 1 18 19
M  V30 19 1 19 20
M  V30 20 1 20 21
M  V30 21 2 21 22
M  V30 22 1 7 23
M  V30 23 2 23 24
M  V30 24 1 24 4
M  V30 25 2 17 8
M  V30 26 1 16 10
M  V30 27 1 21 15
M  V30 28 1 1 25
M  V30 29 1 1 26
M  V30 30 1 1 27
M  V30 31 1 2 28
M  V30 32 1 3 29
M  V30 33 1 3 30
M  V30 34 1 5 31
M  V30 35 1 6 32
M  V30 36 1 9 33
M  V30 37 1 11 34
M  V30 38 1 14 35
M  V30 39 1 18 36
M  V30 40 1 18 37
M  V30 41 1 19 38
M  V30 42 1 19 39
M  V30 43 1 20 40
M  V30 44 1 23 41
M  V30 45 1 24 42
M  V30 END BOND
M  V30 END CTAB
M  END
>  <Dataset>  (849) 
ChEMBL_Kinases

>  <Ligand_Instance>  (849) 
nan

>  <PDB_ID>  (849) 
nan

>  <Standardized_SMILES>  (849) 
CNCc1ccc(-c2[nH]c3cc(F)cc4c3c2CCNC4=O)cc1

>  <Name>  (849) 
RUCAPARIB

>  <Pocket>  (849) 
nan

>  <ATP_Site>  (849) 
nan

>  <Peripheral>  (849) 
nan

>  <Num_H_Atoms_ProtBoundConf>  (849) 
nan

>  <Num_Resolved_Atoms>  (849) 
nan

>  <Num_Not_Resolved_Atoms>  (849) 
nan

$$$$
CHEMBL3793600
     RDKit          3D

  0  0  0  0  0  0  0  0  0  0999 V3000
M  V30 BEGIN CTAB
M  V30 COUNTS 47 50 0 0 0
M  V30 BEGIN ATOM
M  V30 1 N -3.954785 2.791064 -1.109854 0
M  V30 2 C -2.582627 2.726567 -0.736098 0
M  V30 3 C -1.538821 2.877383 -1.622233 0
M  V30 4 C -0.225808 2.795471 -1.147174 0
M  V30 5 C 0.043405 2.563596 0.208994 0
M  V30 6 C 1.463464 2.531820 0.430076 0
M  V30 7 C 2.290396 3.539950 -0.079919 0
M  V30 8 C 3.654887 3.529458 0.126274 0
M  V30 9 N 4.247870 2.546232 0.828388 0
M  V30 10 C 3.493983 1.534035 1.351489 0
M  V30 11 C 2.109829 1.546000 1.141443 0
M  V30 12 N 1.426338 0.444550 1.717382 0
M  V30 13 C 0.792544 -0.013827 2.886551 0
M  V30 14 O 0.720981 0.719604 3.904349 0
M  V30 15 C 0.227829 -1.355563 2.875413 0
M  V30 16 N 0.286395 -2.155433 1.816900 0
M  V30 17 C -0.224475 -3.395433 1.777207 0
M  V30 18 C -0.083562 -4.150247 0.550374 0
M  V30 19 C 0.565565 -3.557751 -0.508485 0
M  V30 20 C 0.752235 -4.189830 -1.718608 0
M  V30 21 C 0.291320 -5.465059 -1.931136 0
M  V30 22 C -0.364531 -6.097559 -0.899528 0
M  V30 23 C -0.524266 -5.422212 0.287744 0
M  V30 24 F -1.174016 -6.090069 1.263212 0
M  V30 25 C -0.821122 -3.766344 2.946561 0
M  V30 26 C -0.924701 -3.001920 4.084874 0
M  V30 27 C -0.371310 -1.721616 4.056888 0
M  V30 28 N -0.450185 -0.890245 5.205037 0
M  V30 29 C -1.049132 2.423115 1.036441 0
M  V30 30 N -2.300350 2.505584 0.557140 0
M  V30 31 H -4.553896 1.961471 -0.821060 0
M  V30 32 H -4.374981 3.603547 -1.642028 0
M  V30 33 H -1.785332 3.054751 -2.659511 0
M  V30 34 H 0.504649 2.933845 -1.959429 0
M  V30 35 H 1.814625 4.343054 -0.652177 0
M  V30 36 H 4.231331 4.353151 -0.304905 0
M  V30 37 H 4.003508 0.764983 1.907321 0
M  V30 38 H 1.472198 -0.196938 0.869889 0
M  V30 39 H 0.970372 -2.543806 -0.441504 0
M  V30 40 H 1.266081 -3.691496 -2.523712 0
M  V30 41 H 0.425737 -5.979836 -2.869812 0
M  V30 42 H -0.740205 -7.100437 -1.031538 0
M  V30 43 H -1.259293 -4.746107 3.007066 0
M  V30 44 H -1.413516 -3.373370 4.966642 0
M  V30 45 H -1.434748 -0.536297 5.136474 0
M  V30 46 H 0.429684 -0.846498 5.783577 0
M  V30 47 H -0.743479 2.254390 2.056601 0
M  V30 END ATOM
M  V30 BEGIN BOND
M  V30 1 1 1 2
M  V30 2 2 2 3
M  V30 3 1 3 4
M  V30 4 2 4 5
M  V30 5 1 5 6
M  V30 6 2 6 7
M  V30 7 1 7 8
M  V30 8 2 8 9
M  V30 9 1 9 10
M  V30 10 2 10 11
M  V30 11 1 11 12
M  V30 12 1 12 13
M  V30 13 2 13 14
M  V30 14 1 13 15
M  V30 15 2 15 16
M  V30 16 1 16 17
M  V30 17 1 17 18
M  V30 18 2 18 19
M  V30 19 1 19 20
M  V30 20 2 20 21
M  V30 21 1 21 22
M  V30 22 2 22 23
M  V30 23 1 23 24
M  V30 24 2 17 25
M  V30 25 1 25 26
M  V30 26 2 26 27
M  V30 27 1 27 28
M  V30 28 1 5 29
M  V30 29 2 29 30
M  V30 30 1 30 2
M  V30 31 1 11 6
M  V30 32 1 27 15
M  V30 33 1 23 18
M  V30 34 1 1 31
M  V30 35 1 1 32
M  V30 36 1 3 33
M  V30 37 1 4 34
M  V30 38 1 7 35
M  V30 39 1 8 36
M  V30 40 1 10 37
M  V30 41 1 12 38
M  V30 42 1 19 39
M  V30 43 1 20 40
M  V30 44 1 21 41
M  V30 45 1 22 42
M  V30 46 1 25 43
M  V30 47 1 26 44
M  V30 48 1 28 45
M  V30 49 1 28 46
M  V30 50 1 29 47
M  V30 END BOND
M  V30 END CTAB
M  END
>  <Dataset>  (850) 
ChEMBL_Kinases

>  <Ligand_Instance>  (850) 
nan

>  <PDB_ID>  (850) 
nan

>  <Standardized_SMILES>  (850) 
Nc1ccc(-c2ccncc2NC(=O)c2nc(-c3ccccc3F)ccc2N)cn1

>  <Name>  (850) 
nan

>  <Pocket>  (850) 
nan

>  <ATP_Site>  (850) 
nan

>  <Peripheral>  (850) 
nan

>  <Num_H_Atoms_ProtBoundConf>  (850) 
nan

>  <Num_Resolved_Atoms>  (850) 
nan

>  <Num_Not_Resolved_Atoms>  (850) 
nan

$$$$
CHEMBL5073195
     RDKit          3D

  0  0  0  0  0  0  0  0  0  0999 V3000
M  V30 BEGIN CTAB
M  V30 COUNTS 158 164 0 0 0
M  V30 BEGIN ATOM
M  V30 1 C 4.559336 -9.411148 -6.432675 0
M  V30 2 C 4.497332 -8.602900 -7.692797 0
M  V30 3 N 4.538950 -9.222418 -8.853004 0
M  V30 4 C 4.463683 -8.663579 -9.943088 0
M  V30 5 S 4.289946 -6.845302 -9.456565 0
M  V30 6 C 4.359423 -7.212371 -7.702946 0
M  V30 7 C 4.253811 -6.223335 -6.665524 0
M  V30 8 C 4.460751 -6.311038 -5.323179 0
M  V30 9 C 4.261210 -5.282645 -4.437171 0
M  V30 10 C 3.819496 -4.044643 -4.875204 0
M  V30 11 C 3.644704 -3.035588 -3.810850 0 CFG=2
M  V30 12 C 3.893658 -3.632305 -2.425609 0
M  V30 13 N 2.322841 -2.414749 -3.838344 0
M  V30 14 C 1.785125 -1.064373 -3.877139 0
M  V30 15 O 2.810046 -0.336225 -3.902952 0
M  V30 16 C 0.335993 -1.265566 -3.863829 0 CFG=1
M  V30 17 C -0.108815 -2.061954 -2.642003 0
M  V30 18 C -1.613410 -1.733692 -2.642494 0 CFG=2
M  V30 19 O -2.295003 -2.922088 -2.809336 0
M  V30 20 C -1.757911 -0.828740 -3.864241 0
M  V30 21 N -0.479223 -0.095117 -3.804216 0
M  V30 22 C -0.256350 1.293144 -3.717601 0
M  V30 23 O 0.973034 1.544373 -3.730724 0
M  V30 24 C -1.020865 2.563288 -3.617744 0 CFG=1
M  V30 25 N -2.425353 2.392046 -3.388112 0
M  V30 26 C -3.810257 2.255402 -3.595208 0
M  V30 27 O -3.985944 2.313103 -4.871572 0
M  V30 28 C -4.823038 2.066632 -2.487463 0
M  V30 29 C -5.858286 1.099875 -2.871204 0
M  V30 30 C -6.911110 0.845453 -1.880076 0
M  V30 31 C -6.500026 0.526295 -0.461040 0
M  V30 32 C -6.081660 1.686451 0.350689 0
M  V30 33 C -5.521753 1.297292 1.688543 0
M  V30 34 C -4.217045 0.528302 1.487656 0
M  V30 35 C -3.595346 0.272113 2.847823 0
M  V30 36 C -4.334513 -0.583028 3.772042 0
M  V30 37 C -4.494136 -2.022353 3.350566 0
M  V30 38 C -3.140384 -2.636982 3.261474 0
M  V30 39 O -2.055835 -2.011403 3.219527 0
M  V30 40 N -2.721883 -4.004764 3.212380 0
M  V30 41 C -1.286455 -4.332615 3.146097 0
M  V30 42 C -0.498334 -3.842339 4.309093 0
M  V30 43 N 0.930957 -4.144626 4.249351 0
M  V30 44 C 1.631036 -3.365120 5.297432 0
M  V30 45 C 1.669301 -1.904677 4.843373 0 CFG=1
M  V30 46 C 2.297672 -1.013057 5.820929 0
M  V30 47 O 2.790838 -1.227440 6.969137 0
M  V30 48 N 2.353402 0.365456 5.379087 0
M  V30 49 C 2.970128 1.345821 6.292053 0
M  V30 50 C 2.228872 2.662258 6.246715 0
M  V30 51 N 2.151135 3.194726 4.880046 0
M  V30 52 C 2.644982 4.297039 4.113453 0
M  V30 53 N 3.344408 3.853872 3.037441 0
M  V30 54 C 3.887205 4.747416 2.176124 0
M  V30 55 N 3.718824 6.073470 2.410592 0
M  V30 56 C 3.034438 6.554904 3.464063 0
M  V30 57 C 2.483907 5.638243 4.335843 0
M  V30 58 C 1.771664 6.272900 5.437657 0 CFG=2
M  V30 59 C 0.527062 5.571482 5.902835 0
M  V30 60 C 1.533471 7.657091 4.941299 0
M  V30 61 C 2.683335 7.898594 3.992071 0 CFG=1
M  V30 62 O 3.772583 8.506730 4.613707 0
M  V30 63 C 1.321219 2.261436 4.186049 0
M  V30 64 C 1.861560 0.859226 4.122527 0
M  V30 65 C 2.608188 -1.845295 3.630893 0
M  V30 66 C 3.982671 -1.690012 3.913467 0
M  V30 67 C 4.775889 -1.638324 2.802385 0
M  V30 68 C 4.388504 -1.718551 1.490808 0
M  V30 69 Cl 5.587677 -1.624922 0.228813 0
M  V30 70 C 3.017539 -1.874438 1.238426 0
M  V30 71 C 2.182497 -1.930784 2.331692 0
M  V30 72 C -0.359586 3.648268 -2.845431 0
M  V30 73 C -0.048789 3.308083 -1.411060 0
M  V30 74 C 0.906477 4.082329 -3.523171 0
M  V30 75 C -1.334849 4.840665 -2.880767 0
M  V30 76 C 3.594118 -3.890411 -6.221106 0
M  V30 77 C 3.813642 -4.960214 -7.054167 0
M  V30 78 H 4.396789 -10.499688 -6.601246 0
M  V30 79 H 5.541340 -9.262359 -5.983672 0
M  V30 80 H 3.722002 -9.129168 -5.748838 0
M  V30 81 H 4.486187 -9.067526 -10.949109 0
M  V30 82 H 4.813426 -7.252919 -4.992975 0
M  V30 83 H 4.496074 -5.569889 -3.396046 0
M  V30 84 H 4.464671 -2.273947 -3.919886 0
M  V30 85 H 3.281922 -4.515822 -2.215065 0
M  V30 86 H 3.689775 -2.799320 -1.723751 0
M  V30 87 H 4.966134 -3.869221 -2.387190 0
M  V30 88 H 1.796257 -3.347507 -3.809671 0
M  V30 89 H 0.024587 -1.884236 -4.760123 0
M  V30 90 H 0.064288 -3.134986 -2.783136 0
M  V30 91 H 0.301895 -1.618585 -1.729955 0
M  V30 92 H -1.923849 -1.166474 -1.765952 0
M  V30 93 H -2.483570 -3.031000 -3.786047 0
M  V30 94 H -1.716805 -1.481828 -4.790059 0
M  V30 95 H -2.637515 -0.224745 -3.878869 0
M  V30 96 H -0.963987 2.945117 -4.716638 0
M  V30 97 H -2.232868 2.302270 -2.334948 0
M  V30 98 H -5.199274 3.059259 -2.224876 0
M  V30 99 H -4.209452 1.672598 -1.652022 0
M  V30 100 H -6.394092 1.546042 -3.784453 0
M  V30 101 H -5.433393 0.151686 -3.318413 0
M  V30 102 H -7.635804 1.721811 -1.814942 0
M  V30 103 H -7.594434 0.001037 -2.202273 0
M  V30 104 H -7.432690 0.111215 0.030625 0
M  V30 105 H -5.792109 -0.328473 -0.432913 0
M  V30 106 H -5.468195 2.471188 -0.071330 0
M  V30 107 H -7.052574 2.305919 0.616595 0
M  V30 108 H -6.210627 0.548012 2.170693 0
M  V30 109 H -5.312662 2.154988 2.340096 0
M  V30 110 H -3.518930 1.104689 0.862085 0
M  V30 111 H -4.385433 -0.441935 1.007906 0
M  V30 112 H -2.560644 -0.046218 2.671280 0
M  V30 113 H -3.445879 1.289873 3.368441 0
M  V30 114 H -3.923873 -0.561021 4.814802 0
M  V30 115 H -5.366470 -0.137377 3.907581 0
M  V30 116 H -4.990759 -1.968811 2.333810 0
M  V30 117 H -5.170616 -2.577341 4.020650 0
M  V30 118 H -3.549153 -4.688486 3.233726 0
M  V30 119 H -0.856541 -4.038620 2.173074 0
M  V30 120 H -1.197355 -5.463084 3.169122 0
M  V30 121 H -0.840087 -4.409450 5.256049 0
M  V30 122 H -0.693350 -2.818005 4.567937 0
M  V30 123 H 1.121732 -5.154303 4.468321 0
M  V30 124 H 2.629336 -3.780873 5.436971 0
M  V30 125 H 0.998515 -3.475301 6.199393 0
M  V30 126 H 0.702678 -1.625352 4.459201 0
M  V30 127 H 2.938838 0.968524 7.323233 0
M  V30 128 H 4.001265 1.498908 5.902854 0
M  V30 129 H 2.710676 3.354253 6.953890 0
M  V30 130 H 1.204089 2.478398 6.640849 0
M  V30 131 H 4.463518 4.583947 1.279232 0
M  V30 132 H 2.494288 6.318166 6.302841 0
M  V30 133 H 0.535086 5.447579 7.002703 0
M  V30 134 H -0.322843 6.296433 5.723714 0
M  V30 135 H 0.275011 4.664425 5.350575 0
M  V30 136 H 1.481375 8.436382 5.730792 0
M  V30 137 H 0.615512 7.664862 4.307935 0
M  V30 138 H 2.338386 8.488844 3.099070 0
M  V30 139 H 3.511837 9.447075 4.779463 0
M  V30 140 H 0.312825 2.255757 4.686570 0
M  V30 141 H 1.100382 2.632359 3.159699 0
M  V30 142 H 1.007805 0.222882 3.811700 0
M  V30 143 H 2.624002 0.761184 3.302310 0
M  V30 144 H 4.380496 -1.619144 4.917358 0
M  V30 145 H 5.846620 -1.516856 2.979051 0
M  V30 146 H 2.667541 -1.940051 0.233409 0
M  V30 147 H 1.108005 -2.053537 2.163373 0
M  V30 148 H 0.876171 3.804124 -1.119475 0
M  V30 149 H -0.864667 3.730130 -0.781614 0
M  V30 150 H 0.004493 2.234475 -1.186198 0
M  V30 151 H 1.803799 3.580427 -3.066962 0
M  V30 152 H 0.887070 3.993827 -4.619669 0
M  V30 153 H 1.050962 5.162486 -3.198199 0
M  V30 154 H -2.356996 4.529831 -3.173186 0
M  V30 155 H -1.000730 5.533105 -3.680170 0
M  V30 156 H -1.330565 5.325244 -1.883213 0
M  V30 157 H 3.259848 -2.929909 -6.531005 0
M  V30 158 H 3.601734 -4.711361 -8.093068 0
M  V30 END ATOM
M  V30 BEGIN BOND
M  V30 1 1 1 2
M  V30 2 1 2 3
M  V30 3 2 3 4
M  V30 4 1 4 5
M  V30 5 1 5 6
M  V30 6 1 6 7
M  V30 7 2 7 8
M  V30 8 1 8 9
M  V30 9 2 9 10
M  V30 10 1 10 11
M  V30 11 1 11 12
M  V30 12 1 11 13
M  V30 13 1 13 14
M  V30 14 2 14 15
M  V30 15 1 14 16
M  V30 16 1 16 17
M  V30 17 1 17 18
M  V30 18 1 18 19
M  V30 19 1 18 20
M  V30 20 1 20 21
M  V30 21 1 21 22
M  V30 22 2 22 23
M  V30 23 1 22 24
M  V30 24 1 24 25
M  V30 25 1 25 26
M  V30 26 2 26 27
M  V30 27 1 26 28
M  V30 28 1 28 29
M  V30 29 1 29 30
M  V30 30 1 30 31
M  V30 31 1 31 32
M  V30 32 1 32 33
M  V30 33 1 33 34
M  V30 34 1 34 35
M  V30 35 1 35 36
M  V30 36 1 36 37
M  V30 37 1 37 38
M  V30 38 2 38 39
M  V30 39 1 38 40
M  V30 40 1 40 41
M  V30 41 1 41 42
M  V30 42 1 42 43
M  V30 43 1 43 44
M  V30 44 1 44 45
M  V30 45 1 45 46
M  V30 46 2 46 47
M  V30 47 1 46 48
M  V30 48 1 48 49
M  V30 49 1 49 50
M  V30 50 1 50 51
M  V30 51 1 51 52
M  V30 52 2 52 53
M  V30 53 1 53 54
M  V30 54 2 54 55
M  V30 55 1 55 56
M  V30 56 2 56 57
M  V30 57 1 57 58
M  V30 58 1 58 59
M  V30 59 1 58 60
M  V30 60 1 60 61
M  V30 61 1 61 62
M  V30 62 1 51 63
M  V30 63 1 63 64
M  V30 64 1 45 65
M  V30 65 2 65 66
M  V30 66 1 66 67
M  V30 67 2 67 68
M  V30 68 1 68 69
M  V30 69 1 68 70
M  V30 70 2 70 71
M  V30 71 1 24 72
M  V30 72 1 72 73
M  V30 73 1 72 74
M  V30 74 1 72 75
M  V30 75 1 10 76
M  V30 76 2 76 77
M  V30 77 2 6 2
M  V30 78 1 77 7
M  V30 79 1 21 16
M  V30 80 1 64 48
M  V30 81 1 71 65
M  V30 82 1 57 52
M  V30 83 1 61 56
M  V30 84 1 1 78
M  V30 85 1 1 79
M  V30 86 1 1 80
M  V30 87 1 4 81
M  V30 88 1 8 82
M  V30 89 1 9 83
M  V30 90 1 11 84 CFG=3
M  V30 91 1 12 85
M  V30 92 1 12 86
M  V30 93 1 12 87
M  V30 94 1 13 88
M  V30 95 1 16 89 CFG=3
M  V30 96 1 17 90
M  V30 97 1 17 91
M  V30 98 1 18 92 CFG=1
M  V30 99 1 19 93
M  V30 100 1 20 94
M  V30 101 1 20 95
M  V30 102 1 24 96 CFG=3
M  V30 103 1 25 97
M  V30 104 1 28 98
M  V30 105 1 28 99
M  V30 106 1 29 100
M  V30 107 1 29 101
M  V30 108 1 30 102
M  V30 109 1 30 103
M  V30 110 1 31 104
M  V30 111 1 31 105
M  V30 112 1 32 106
M  V30 113 1 32 107
M  V30 114 1 33 108
M  V30 115 1 33 109
M  V30 116 1 34 110
M  V30 117 1 34 111
M  V30 118 1 35 112
M  V30 119 1 35 113
M  V30 120 1 36 114
M  V30 121 1 36 115
M  V30 122 1 37 116
M  V30 123 1 37 117
M  V30 124 1 40 118
M  V30 125 1 41 119
M  V30 126 1 41 120
M  V30 127 1 42 121
M  V30 128 1 42 122
M  V30 129 1 43 123
M  V30 130 1 44 124
M  V30 131 1 44 125
M  V30 132 1 45 126 CFG=3
M  V30 133 1 49 127
M  V30 134 1 49 128
M  V30 135 1 50 129
M  V30 136 1 50 130
M  V30 137 1 54 131
M  V30 138 1 58 132 CFG=1
M  V30 139 1 59 133
M  V30 140 1 59 134
M  V30 141 1 59 135
M  V30 142 1 60 136
M  V30 143 1 60 137
M  V30 144 1 61 138 CFG=3
M  V30 145 1 62 139
M  V30 146 1 63 140
M  V30 147 1 63 141
M  V30 148 1 64 142
M  V30 149 1 64 143
M  V30 150 1 66 144
M  V30 151 1 67 145
M  V30 152 1 70 146
M  V30 153 1 71 147
M  V30 154 1 73 148
M  V30 155 1 73 149
M  V30 156 1 73 150
M  V30 157 1 74 151
M  V30 158 1 74 152
M  V30 159 1 74 153
M  V30 160 1 75 154
M  V30 161 1 75 155
M  V30 162 1 75 156
M  V30 163 1 76 157
M  V30 164 1 77 158
M  V30 END BOND
M  V30 END CTAB
M  END
>  <Dataset>  (851) 
ChEMBL_Kinases

>  <Ligand_Instance>  (851) 
nan

>  <PDB_ID>  (851) 
nan

>  <Standardized_SMILES>  (851) 
Cc1ncsc1-c1ccc([C@H](C)NC(=O)[C@H]2C[C@H](O)CN2C(=O)[C@@H](NC(=O)CCCCCCCCCCC(=O)NCCNC[C@@H](C(=O)N2CCN(c3ncnc4c3[C@H](C)C[C@H]4O)CC2)c2ccc(Cl)cc2)C(C)(C)C)cc1

>  <Name>  (851) 
nan

>  <Pocket>  (851) 
nan

>  <ATP_Site>  (851) 
nan

>  <Peripheral>  (851) 
nan

>  <Num_H_Atoms_ProtBoundConf>  (851) 
nan

>  <Num_Resolved_Atoms>  (851) 
nan

>  <Num_Not_Resolved_Atoms>  (851) 
nan

$$$$
CHEMBL3793440
     RDKit          3D

  0  0  0  0  0  0  0  0  0  0999 V3000
M  V30 BEGIN CTAB
M  V30 COUNTS 45 48 0 0 0
M  V30 BEGIN ATOM
M  V30 1 N -0.694564 2.587271 3.227403 0
M  V30 2 C 0.357670 2.191166 2.378475 0
M  V30 3 C 1.604500 2.771013 2.518713 0
M  V30 4 C 2.621816 2.369939 1.678277 0
M  V30 5 C 2.486084 1.416804 0.690851 0
M  V30 6 C 3.578948 1.006031 -0.189941 0
M  V30 7 C 4.853913 1.525078 -0.126534 0
M  V30 8 C 5.856096 1.089649 -0.998253 0
M  V30 9 C 5.586714 0.122355 -1.948718 0
M  V30 10 C 4.300769 -0.396460 -2.007547 0
M  V30 11 C 3.300183 0.040565 -1.134727 0
M  V30 12 F 2.105036 -0.562002 -1.320889 0
M  V30 13 N 1.250469 0.889462 0.603508 0
M  V30 14 C 0.229163 1.253713 1.405307 0
M  V30 15 C -1.045048 0.608261 1.203959 0
M  V30 16 O -1.994052 0.944812 1.945549 0
M  V30 17 N -1.283078 -0.378027 0.221958 0
M  V30 18 C -2.392966 -1.103528 -0.131615 0
M  V30 19 C -3.189332 -0.518777 -1.111169 0
M  V30 20 N -4.321239 -1.144254 -1.545207 0
M  V30 21 C -4.679382 -2.347463 -1.021201 0
M  V30 22 C -3.873532 -2.900407 -0.055489 0
M  V30 23 C -2.710171 -2.303112 0.420599 0
M  V30 24 C -1.912116 -2.929120 1.428792 0
M  V30 25 C -2.705678 -3.423648 2.475291 0
M  V30 26 C -2.125840 -4.076479 3.569464 0
M  V30 27 N -0.786741 -4.237137 3.627503 0
M  V30 28 C -0.015356 -3.771425 2.637693 0
M  V30 29 C -0.544144 -3.122456 1.541550 0
M  V30 30 H -1.460929 3.106452 2.746094 0
M  V30 31 H -0.811710 2.434098 4.262019 0
M  V30 32 H 1.778978 3.529902 3.278661 0
M  V30 33 H 3.576691 2.853773 1.829210 0
M  V30 34 H 5.084470 2.271609 0.598018 0
M  V30 35 H 6.847306 1.511427 -0.928920 0
M  V30 36 H 6.354487 -0.221984 -2.628254 0
M  V30 37 H 4.132087 -1.150654 -2.764882 0
M  V30 38 H -0.417853 -0.598322 -0.362184 0
M  V30 39 H -2.970551 0.445898 -1.582251 0
M  V30 40 H -5.556903 -2.905304 -1.309732 0
M  V30 41 H -4.134623 -3.869233 0.386883 0
M  V30 42 H -3.783243 -3.360382 2.549635 0
M  V30 43 H -2.712062 -4.467512 4.389710 0
M  V30 44 H 1.062737 -3.844781 2.581797 0
M  V30 45 H -0.018172 -2.709816 0.690740 0
M  V30 END ATOM
M  V30 BEGIN BOND
M  V30 1 1 1 2
M  V30 2 2 2 3
M  V30 3 1 3 4
M  V30 4 2 4 5
M  V30 5 1 5 6
M  V30 6 2 6 7
M  V30 7 1 7 8
M  V30 8 2 8 9
M  V30 9 1 9 10
M  V30 10 2 10 11
M  V30 11 1 11 12
M  V30 12 1 5 13
M  V30 13 2 13 14
M  V30 14 1 14 15
M  V30 15 2 15 16
M  V30 16 1 15 17
M  V30 17 1 17 18
M  V30 18 2 18 19
M  V30 19 1 19 20
M  V30 20 2 20 21
M  V30 21 1 21 22
M  V30 22 2 22 23
M  V30 23 1 23 24
M  V30 24 2 24 25
M  V30 25 1 25 26
M  V30 26 2 26 27
M  V30 27 1 27 28
M  V30 28 2 28 29
M  V30 29 1 14 2
M  V30 30 1 23 18
M  V30 31 1 29 24
M  V30 32 1 11 6
M  V30 33 1 1 30
M  V30 34 1 1 31
M  V30 35 1 3 32
M  V30 36 1 4 33
M  V30 37 1 7 34
M  V30 38 1 8 35
M  V30 39 1 9 36
M  V30 40 1 10 37
M  V30 41 1 17 38
M  V30 42 1 19 39
M  V30 43 1 21 40
M  V30 44 1 22 41
M  V30 45 1 25 42
M  V30 46 1 26 43
M  V30 47 1 28 44
M  V30 48 1 29 45
M  V30 END BOND
M  V30 END CTAB
M  END
>  <Dataset>  (852) 
ChEMBL_Kinases

>  <Ligand_Instance>  (852) 
nan

>  <PDB_ID>  (852) 
nan

>  <Standardized_SMILES>  (852) 
Nc1ccc(-c2ccccc2F)nc1C(=O)Nc1cnccc1-c1ccncc1

>  <Name>  (852) 
nan

>  <Pocket>  (852) 
nan

>  <ATP_Site>  (852) 
nan

>  <Peripheral>  (852) 
nan

>  <Num_H_Atoms_ProtBoundConf>  (852) 
nan

>  <Num_Resolved_Atoms>  (852) 
nan

>  <Num_Not_Resolved_Atoms>  (852) 
nan

$$$$
CHEMBL576387
     RDKit          3D

  0  0  0  0  0  0  0  0  0  0999 V3000
M  V30 BEGIN CTAB
M  V30 COUNTS 42 45 0 0 0
M  V30 BEGIN ATOM
M  V30 1 C -0.760692 -5.320292 -1.056581 0
M  V30 2 N -0.053350 -4.927975 0.143976 0
M  V30 3 C -0.167609 -5.869172 1.205829 0
M  V30 4 C 1.269482 -4.458622 -0.109517 0
M  V30 5 C 1.155666 -3.257526 -1.020299 0
M  V30 6 N 1.040934 -2.078847 -0.404132 0
M  V30 7 C 0.929835 -0.910448 -1.057476 0
M  V30 8 C 0.950970 -1.100287 -2.426285 0
M  V30 9 S 0.794768 0.537361 -3.125287 0
M  V30 10 C 0.710376 1.378860 -1.512869 0
M  V30 11 C 0.579158 2.736508 -1.246191 0
M  V30 12 C 0.539131 3.124212 0.073081 0
M  V30 13 C 0.633793 2.120640 1.004496 0
M  V30 14 C 0.593060 2.514166 2.409503 0
M  V30 15 C 0.473734 3.737739 2.842679 0
M  V30 16 C 0.435549 4.104898 4.271812 0
M  V30 17 C -0.794612 3.768925 5.085539 0
M  V30 18 C 0.526179 3.134472 5.364832 0
M  V30 19 C 0.762160 0.792918 0.713795 0
M  V30 20 C 0.805348 0.372609 -0.603491 0
M  V30 21 C 1.070883 -2.331762 -3.085467 0
M  V30 22 O 1.071298 -2.309019 -4.322493 0
M  V30 23 N 1.176125 -3.441435 -2.346622 0
M  V30 24 H -0.110758 -6.066724 -1.564453 0
M  V30 25 H -1.755552 -5.722150 -0.857055 0
M  V30 26 H -0.887693 -4.464166 -1.748685 0
M  V30 27 H -0.189186 -6.923670 0.865799 0
M  V30 28 H 0.695026 -5.776388 1.902898 0
M  V30 29 H -1.098196 -5.650108 1.771534 0
M  V30 30 H 1.732390 -4.172877 0.843525 0
M  V30 31 H 1.835772 -5.227808 -0.661446 0
M  V30 32 H 0.516925 3.400831 -2.081115 0
M  V30 33 H 0.436919 4.185166 0.209796 0
M  V30 34 H 0.661813 1.787913 3.206170 0
M  V30 35 H 0.393919 4.562237 2.152081 0
M  V30 36 H 0.856756 5.122304 4.528773 0
M  V30 37 H -1.532991 3.119580 4.534111 0
M  V30 38 H -1.183026 4.505467 5.819541 0
M  V30 39 H 1.008851 3.442771 6.336884 0
M  V30 40 H 0.647452 2.043111 5.219041 0
M  V30 41 H 0.827977 0.091245 1.562494 0
M  V30 42 H 1.266309 -4.367199 -2.807010 0
M  V30 END ATOM
M  V30 BEGIN BOND
M  V30 1 1 1 2
M  V30 2 1 2 3
M  V30 3 1 2 4
M  V30 4 1 4 5
M  V30 5 2 5 6
M  V30 6 1 6 7
M  V30 7 2 7 8
M  V30 8 1 8 9
M  V30 9 1 9 10
M  V30 10 2 10 11
M  V30 11 1 11 12
M  V30 12 2 12 13
M  V30 13 1 13 14
M  V30 14 2 14 15
M  V30 15 1 15 16
M  V30 16 1 16 17
M  V30 17 1 17 18
M  V30 18 1 13 19
M  V30 19 2 19 20
M  V30 20 1 8 21
M  V30 21 2 21 22
M  V30 22 1 21 23
M  V30 23 1 23 5
M  V30 24 1 20 7
M  V30 25 1 20 10
M  V30 26 1 18 16
M  V30 27 1 1 24
M  V30 28 1 1 25
M  V30 29 1 1 26
M  V30 30 1 3 27
M  V30 31 1 3 28
M  V30 32 1 3 29
M  V30 33 1 4 30
M  V30 34 1 4 31
M  V30 35 1 11 32
M  V30 36 1 12 33
M  V30 37 1 14 34
M  V30 38 1 15 35
M  V30 39 1 16 36
M  V30 40 1 17 37
M  V30 41 1 17 38
M  V30 42 1 18 39
M  V30 43 1 18 40
M  V30 44 1 19 41
M  V30 45 1 23 42
M  V30 END BOND
M  V30 END CTAB
M  END
>  <Dataset>  (853) 
ChEMBL_Kinases

>  <Ligand_Instance>  (853) 
nan

>  <PDB_ID>  (853) 
nan

>  <Standardized_SMILES>  (853) 
CN(C)Cc1nc2c(sc3ccc(/C=C/C4CC4)cc32)c(=O)[nH]1

>  <Name>  (853) 
nan

>  <Pocket>  (853) 
nan

>  <ATP_Site>  (853) 
nan

>  <Peripheral>  (853) 
nan

>  <Num_H_Atoms_ProtBoundConf>  (853) 
nan

>  <Num_Resolved_Atoms>  (853) 
nan

>  <Num_Not_Resolved_Atoms>  (853) 
nan

$$$$
CHEMBL3793267
     RDKit          3D

  0  0  0  0  0  0  0  0  0  0999 V3000
M  V30 BEGIN CTAB
M  V30 COUNTS 46 49 0 0 0
M  V30 BEGIN ATOM
M  V30 1 N 5.711343 -3.257449 2.988145 0
M  V30 2 C 4.454512 -2.851286 2.451813 0
M  V30 3 N 3.337110 -3.548632 2.691330 0
M  V30 4 C 2.185746 -3.106825 2.152710 0
M  V30 5 C 2.242973 -1.968223 1.393921 0
M  V30 6 C 3.355218 -1.220508 1.119694 0
M  V30 7 C 3.521293 -0.026671 0.330248 0
M  V30 8 C 4.775010 0.497203 0.170158 0
M  V30 9 C 5.032211 1.613735 -0.586084 0
M  V30 10 N 4.044705 2.263683 -1.221672 0
M  V30 11 C 2.766990 1.809151 -1.114685 0
M  V30 12 C 2.566752 0.686184 -0.343490 0
M  V30 13 N 1.204313 0.303289 -0.285331 0
M  V30 14 C 0.621183 1.058148 0.805649 0
M  V30 15 O 1.305800 1.848045 1.469796 0
M  V30 16 C -0.816798 0.893242 1.144489 0
M  V30 17 N -1.608962 0.058889 0.467517 0
M  V30 18 C -2.922513 -0.128471 0.734378 0
M  V30 19 C -3.725416 -1.062728 -0.054855 0
M  V30 20 C -4.380072 -0.583273 -1.196071 0
M  V30 21 F -4.286860 0.716129 -1.581941 0
M  V30 22 C -5.142613 -1.451233 -1.953405 0
M  V30 23 C -5.291069 -2.791400 -1.631242 0
M  V30 24 C -4.636161 -3.243955 -0.500451 0
M  V30 25 C -3.859355 -2.411069 0.291629 0
M  V30 26 F -3.210391 -2.856250 1.410877 0
M  V30 27 C -3.461926 0.609759 1.790848 0
M  V30 28 C -2.623015 1.480876 2.493303 0
M  V30 29 C -1.281705 1.652160 2.197510 0
M  V30 30 N -0.486421 2.544268 2.940363 0
M  V30 31 N 4.441607 -1.746624 1.701608 0
M  V30 32 H 6.488752 -2.933038 3.588929 0
M  V30 33 H 5.974408 -4.229056 2.686077 0
M  V30 34 H 1.250648 -3.624863 2.308728 0
M  V30 35 H 1.311296 -1.647323 0.971127 0
M  V30 36 H 5.640636 0.034440 0.650779 0
M  V30 37 H 6.040781 1.981379 -0.676602 0
M  V30 38 H 1.986545 2.340954 -1.630043 0
M  V30 39 H 0.606638 -0.368619 -0.857616 0
M  V30 40 H -5.686632 -1.157670 -2.859692 0
M  V30 41 H -5.885606 -3.464215 -2.223293 0
M  V30 42 H -4.711436 -4.283138 -0.192877 0
M  V30 43 H -4.507599 0.495814 2.044227 0
M  V30 44 H -3.088540 2.040317 3.314888 0
M  V30 45 H 0.344742 2.404587 3.529584 0
M  V30 46 H -0.709827 3.583800 2.956927 0
M  V30 END ATOM
M  V30 BEGIN BOND
M  V30 1 1 1 2
M  V30 2 2 2 3
M  V30 3 1 3 4
M  V30 4 2 4 5
M  V30 5 1 5 6
M  V30 6 1 6 7
M  V30 7 2 7 8
M  V30 8 1 8 9
M  V30 9 2 9 10
M  V30 10 1 10 11
M  V30 11 2 11 12
M  V30 12 1 12 13
M  V30 13 1 13 14
M  V30 14 2 14 15
M  V30 15 1 14 16
M  V30 16 2 16 17
M  V30 17 1 17 18
M  V30 18 1 18 19
M  V30 19 2 19 20
M  V30 20 1 20 21
M  V30 21 1 20 22
M  V30 22 2 22 23
M  V30 23 1 23 24
M  V30 24 2 24 25
M  V30 25 1 25 26
M  V30 26 2 18 27
M  V30 27 1 27 28
M  V30 28 2 28 29
M  V30 29 1 29 30
M  V30 30 2 6 31
M  V30 31 1 31 2
M  V30 32 1 12 7
M  V30 33 1 29 16
M  V30 34 1 25 19
M  V30 35 1 1 32
M  V30 36 1 1 33
M  V30 37 1 4 34
M  V30 38 1 5 35
M  V30 39 1 8 36
M  V30 40 1 9 37
M  V30 41 1 11 38
M  V30 42 1 13 39
M  V30 43 1 22 40
M  V30 44 1 23 41
M  V30 45 1 24 42
M  V30 46 1 27 43
M  V30 47 1 28 44
M  V30 48 1 30 45
M  V30 49 1 30 46
M  V30 END BOND
M  V30 END CTAB
M  END
>  <Dataset>  (854) 
ChEMBL_Kinases

>  <Ligand_Instance>  (854) 
nan

>  <PDB_ID>  (854) 
nan

>  <Standardized_SMILES>  (854) 
Nc1nccc(-c2ccncc2NC(=O)c2nc(-c3c(F)cccc3F)ccc2N)n1

>  <Name>  (854) 
nan

>  <Pocket>  (854) 
nan

>  <ATP_Site>  (854) 
nan

>  <Peripheral>  (854) 
nan

>  <Num_H_Atoms_ProtBoundConf>  (854) 
nan

>  <Num_Resolved_Atoms>  (854) 
nan

>  <Num_Not_Resolved_Atoms>  (854) 
nan

$$$$
CHEMBL5069422
     RDKit          3D

  0  0  0  0  0  0  0  0  0  0999 V3000
M  V30 BEGIN CTAB
M  V30 COUNTS 140 147 0 0 0
M  V30 BEGIN ATOM
M  V30 1 N 4.389103 -2.266725 1.704379 0
M  V30 2 C 3.657846 -2.995646 0.665981 0
M  V30 3 C 3.986873 -2.406181 -0.606864 0
M  V30 4 O 3.846408 -3.269272 -1.594881 0
M  V30 5 N 4.406465 -1.292655 -1.312074 0
M  V30 6 C 4.659103 -0.896245 -2.677743 0 CFG=1
M  V30 7 C 4.752195 0.545154 -2.756208 0
M  V30 8 C 3.422079 1.227050 -2.369914 0
M  V30 9 N 2.437613 0.919277 -3.319855 0
M  V30 10 C 2.539617 1.480397 -4.619011 0
M  V30 11 C 1.225508 1.666504 -5.341523 0
M  V30 12 N 0.322692 0.587498 -5.039684 0
M  V30 13 C -1.066758 0.355097 -5.033114 0
M  V30 14 O -0.417776 1.446858 -5.251248 0
M  V30 15 C -2.548338 0.703976 -5.141834 0
M  V30 16 C -3.016507 0.746811 -3.677535 0
M  V30 17 O -2.877319 -0.505702 -3.063795 0
M  V30 18 C -2.521453 -0.265593 -1.699810 0
M  V30 19 C -2.315116 -1.582195 -1.002735 0
M  V30 20 O -3.465836 -2.361475 -0.874043 0
M  V30 21 C -4.313651 -1.728363 0.102786 0
M  V30 22 C -3.593837 -1.815956 1.442517 0
M  V30 23 O -3.460247 -3.178230 1.776363 0
M  V30 24 C -4.691893 -3.598812 2.373372 0
M  V30 25 C -4.633120 -3.317436 3.855208 0
M  V30 26 O -4.408472 -2.004877 4.245143 0
M  V30 27 C -4.215774 -2.072052 5.640046 0
M  V30 28 C -3.575039 -0.755384 6.151804 0
M  V30 29 O -4.321653 0.339389 5.978666 0
M  V30 30 C -3.687315 1.574150 6.338733 0
M  V30 31 C -2.581786 1.743896 5.457397 0
M  V30 32 N -1.610397 2.697110 5.203817 0
M  V30 33 C -0.578593 3.706223 4.941691 0
M  V30 34 C 0.572500 3.987869 5.582881 0
M  V30 35 C 1.399516 4.700365 4.772164 0
M  V30 36 C 1.114290 5.092644 3.478429 0
M  V30 37 C -0.081689 4.750389 2.945733 0
M  V30 38 C -1.092439 3.994131 3.636297 0
M  V30 39 C -2.236265 3.872246 2.693808 0
M  V30 40 O -3.206374 3.279639 3.081572 0
M  V30 41 N -1.852926 4.569334 1.457834 0
M  V30 42 C -3.009312 4.490328 0.533914 0
M  V30 43 C -4.054303 5.458961 1.177565 0
M  V30 44 C -5.412254 4.955423 0.950742 0
M  V30 45 C -5.796552 3.686918 1.696637 0
M  V30 46 O -6.142905 2.711043 2.338416 0
M  V30 47 N -4.962492 2.739270 0.752536 0
M  V30 48 C -3.618978 3.177240 0.408769 0
M  V30 49 O -2.571086 2.597053 -0.097918 0
M  V30 50 C -0.534382 5.115284 1.582047 0
M  V30 51 O -0.138796 5.701757 0.579631 0
M  V30 52 C 1.042391 -0.583033 -4.485114 0
M  V30 53 C 1.424384 -0.001912 -3.093496 0
M  V30 54 C 5.719330 -1.735771 -3.247091 0
M  V30 55 C 7.081357 -1.554759 -3.046499 0
M  V30 56 C 8.035183 -2.418757 -3.617709 0
M  V30 57 C 7.585569 -3.493827 -4.407602 0
M  V30 58 Cl 8.775020 -4.574000 -5.123083 0
M  V30 59 C 6.268674 -3.751231 -4.655994 0
M  V30 60 C 5.442208 -2.839160 -4.047608 0
M  V30 61 C 2.193661 -2.785747 1.044159 0
M  V30 62 C 1.466891 -4.138421 1.085712 0
M  V30 63 N 1.779706 -4.754526 -0.199125 0
M  V30 64 C 1.082603 -4.887735 -1.449098 0
M  V30 65 N 1.499639 -4.283420 -2.522690 0
M  V30 66 C 1.098317 -4.198782 -3.755608 0
M  V30 67 N -0.008735 -4.905492 -3.960226 0
M  V30 68 C -0.636666 -5.623659 -2.975266 0
M  V30 69 N -1.727281 -6.395968 -2.932715 0
M  V30 70 C -1.857060 -6.866967 -1.669492 0
M  V30 71 C -0.821160 -6.382880 -0.870640 0
M  V30 72 C -0.050018 -5.588780 -1.730848 0
M  V30 73 C 3.124231 -5.341241 -0.043164 0
M  V30 74 C 4.046230 -4.438951 0.752809 0
M  V30 75 H 4.118807 -2.717625 2.599312 0
M  V30 76 H 5.403352 -2.557384 1.569554 0
M  V30 77 H 4.544261 -0.565357 -0.517550 0
M  V30 78 H 3.730877 -1.281111 -3.217908 0
M  V30 79 H 5.450110 0.931730 -1.925635 0
M  V30 80 H 5.062901 1.021879 -3.672446 0
M  V30 81 H 3.585529 2.319536 -2.303465 0
M  V30 82 H 3.091767 0.884843 -1.373978 0
M  V30 83 H 3.000433 2.507804 -4.501505 0
M  V30 84 H 3.258287 0.905701 -5.254110 0
M  V30 85 H 0.842189 2.689988 -5.157808 0
M  V30 86 H 1.440627 1.639705 -6.426742 0
M  V30 87 H -2.668400 1.647267 -5.638579 0
M  V30 88 H -3.066817 -0.105625 -5.701517 0
M  V30 89 H -2.369629 1.517531 -3.164026 0
M  V30 90 H -4.046390 1.088454 -3.628369 0
M  V30 91 H -3.349454 0.338588 -1.247753 0
M  V30 92 H -1.606924 0.346143 -1.652275 0
M  V30 93 H -1.655896 -1.540970 -0.150560 0
M  V30 94 H -1.706132 -2.198742 -1.790475 0
M  V30 95 H -4.528015 -0.697829 -0.137954 0
M  V30 96 H -5.242827 -2.346463 0.081932 0
M  V30 97 H -4.166359 -1.243840 2.206418 0
M  V30 98 H -2.628466 -1.368016 1.384960 0
M  V30 99 H -5.530462 -3.092866 1.940434 0
M  V30 100 H -4.763371 -4.671638 2.218145 0
M  V30 101 H -5.668395 -3.602571 4.235859 0
M  V30 102 H -3.949807 -4.033268 4.384089 0
M  V30 103 H -3.603307 -2.908846 5.929328 0
M  V30 104 H -5.251862 -2.140570 6.070267 0
M  V30 105 H -2.629727 -0.695480 5.497034 0
M  V30 106 H -3.248865 -0.908756 7.173434 0
M  V30 107 H -4.462403 2.369757 6.282602 0
M  V30 108 H -3.326957 1.389874 7.389509 0
M  V30 109 H -2.874826 1.218917 4.443423 0
M  V30 110 H -1.875458 0.761559 5.758876 0
M  V30 111 H -1.415190 2.638453 6.294119 0
M  V30 112 H 0.615655 3.601911 6.556061 0
M  V30 113 H 2.357784 4.959593 5.263430 0
M  V30 114 H 1.873433 5.662260 2.943968 0
M  V30 115 H -2.729648 4.940174 -0.406982 0
M  V30 116 H -3.858091 5.531850 2.257892 0
M  V30 117 H -3.939465 6.403969 0.655401 0
M  V30 118 H -6.104237 5.714168 1.512420 0
M  V30 119 H -5.707663 4.980351 -0.096808 0
M  V30 120 H -5.077611 1.773887 0.257144 0
M  V30 121 H 1.960472 -0.688858 -5.054361 0
M  V30 122 H 0.439950 -1.468507 -4.396013 0
M  V30 123 H 0.517011 0.525434 -2.716936 0
M  V30 124 H 1.625298 -0.799508 -2.394080 0
M  V30 125 H 7.362594 -0.711483 -2.429136 0
M  V30 126 H 9.077977 -2.228760 -3.431906 0
M  V30 127 H 5.891078 -4.578999 -5.261425 0
M  V30 128 H 4.365031 -3.060484 -4.247348 0
M  V30 129 H 1.645368 -2.157877 0.320000 0
M  V30 130 H 2.065575 -2.307053 2.015468 0
M  V30 131 H 0.367522 -3.859687 1.140233 0
M  V30 132 H 1.734279 -4.771047 1.935244 0
M  V30 133 H 1.690234 -3.578024 -4.454580 0
M  V30 134 H -2.260634 -6.506128 -3.835550 0
M  V30 135 H -2.663144 -7.519443 -1.408078 0
M  V30 136 H -0.659199 -6.555650 0.164285 0
M  V30 137 H 2.986999 -6.275629 0.549945 0
M  V30 138 H 3.624024 -5.557922 -0.995729 0
M  V30 139 H 4.060869 -4.787386 1.835510 0
M  V30 140 H 5.061983 -4.575455 0.349535 0
M  V30 END ATOM
M  V30 BEGIN BOND
M  V30 1 1 1 2
M  V30 2 1 2 3
M  V30 3 2 3 4
M  V30 4 1 3 5
M  V30 5 1 5 6
M  V30 6 1 6 7
M  V30 7 1 7 8
M  V30 8 1 8 9
M  V30 9 1 9 10
M  V30 10 1 10 11
M  V30 11 1 11 12
M  V30 12 1 12 13
M  V30 13 2 13 14
M  V30 14 1 13 15
M  V30 15 1 15 16
M  V30 16 1 16 17
M  V30 17 1 17 18
M  V30 18 1 18 19
M  V30 19 1 19 20
M  V30 20 1 20 21
M  V30 21 1 21 22
M  V30 22 1 22 23
M  V30 23 1 23 24
M  V30 24 1 24 25
M  V30 25 1 25 26
M  V30 26 1 26 27
M  V30 27 1 27 28
M  V30 28 1 28 29
M  V30 29 1 29 30
M  V30 30 1 30 31
M  V30 31 1 31 32
M  V30 32 1 32 33
M  V30 33 2 33 34
M  V30 34 1 34 35
M  V30 35 2 35 36
M  V30 36 1 36 37
M  V30 37 2 37 38
M  V30 38 1 38 39
M  V30 39 2 39 40
M  V30 40 1 39 41
M  V30 41 1 41 42
M  V30 42 1 42 43
M  V30 43 1 43 44
M  V30 44 1 44 45
M  V30 45 2 45 46
M  V30 46 1 45 47
M  V30 47 1 47 48
M  V30 48 2 48 49
M  V30 49 1 41 50
M  V30 50 2 50 51
M  V30 51 1 12 52
M  V30 52 1 52 53
M  V30 53 1 6 54
M  V30 54 2 54 55
M  V30 55 1 55 56
M  V30 56 2 56 57
M  V30 57 1 57 58
M  V30 58 1 57 59
M  V30 59 2 59 60
M  V30 60 1 2 61
M  V30 61 1 61 62
M  V30 62 1 62 63
M  V30 63 1 63 64
M  V30 64 2 64 65
M  V30 65 1 65 66
M  V30 66 2 66 67
M  V30 67 1 67 68
M  V30 68 1 68 69
M  V30 69 1 69 70
M  V30 70 2 70 71
M  V30 71 1 71 72
M  V30 72 1 63 73
M  V30 73 1 73 74
M  V30 74 1 74 2
M  V30 75 1 53 9
M  V30 76 1 60 54
M  V30 77 1 72 64
M  V30 78 1 38 33
M  V30 79 1 48 42
M  V30 80 2 72 68
M  V30 81 1 50 37
M  V30 82 1 1 75
M  V30 83 1 1 76
M  V30 84 1 5 77
M  V30 85 1 6 78 CFG=3
M  V30 86 1 7 79
M  V30 87 1 7 80
M  V30 88 1 8 81
M  V30 89 1 8 82
M  V30 90 1 10 83
M  V30 91 1 10 84
M  V30 92 1 11 85
M  V30 93 1 11 86
M  V30 94 1 15 87
M  V30 95 1 15 88
M  V30 96 1 16 89
M  V30 97 1 16 90
M  V30 98 1 18 91
M  V30 99 1 18 92
M  V30 100 1 19 93
M  V30 101 1 19 94
M  V30 102 1 21 95
M  V30 103 1 21 96
M  V30 104 1 22 97
M  V30 105 1 22 98
M  V30 106 1 24 99
M  V30 107 1 24 100
M  V30 108 1 25 101
M  V30 109 1 25 102
M  V30 110 1 27 103
M  V30 111 1 27 104
M  V30 112 1 28 105
M  V30 113 1 28 106
M  V30 114 1 30 107
M  V30 115 1 30 108
M  V30 116 1 31 109
M  V30 117 1 31 110
M  V30 118 1 32 111
M  V30 119 1 34 112
M  V30 120 1 35 113
M  V30 121 1 36 114
M  V30 122 1 42 115
M  V30 123 1 43 116
M  V30 124 1 43 117
M  V30 125 1 44 118
M  V30 126 1 44 119
M  V30 127 1 47 120
M  V30 128 1 52 121
M  V30 129 1 52 122
M  V30 130 1 53 123
M  V30 131 1 53 124
M  V30 132 1 55 125
M  V30 133 1 56 126
M  V30 134 1 59 127
M  V30 135 1 60 128
M  V30 136 1 61 129
M  V30 137 1 61 130
M  V30 138 1 62 131
M  V30 139 1 62 132
M  V30 140 1 66 133
M  V30 141 1 69 134
M  V30 142 1 70 135
M  V30 143 1 71 136
M  V30 144 1 73 137
M  V30 145 1 73 138
M  V30 146 1 74 139
M  V30 147 1 74 140
M  V30 END BOND
M  V30 END CTAB
M  END
>  <Dataset>  (855) 
ChEMBL_Kinases

>  <Ligand_Instance>  (855) 
nan

>  <PDB_ID>  (855) 
nan

>  <Standardized_SMILES>  (855) 
NC1(C(=O)N[C@@H](CCN2CCN(C(=O)CCOCCOCCOCCOCCOCCNc3cccc4c3C(=O)N(C3CCC(=O)NC3=O)C4=O)CC2)c2ccc(Cl)cc2)CCN(c2ncnc3[nH]ccc23)CC1

>  <Name>  (855) 
nan

>  <Pocket>  (855) 
nan

>  <ATP_Site>  (855) 
nan

>  <Peripheral>  (855) 
nan

>  <Num_H_Atoms_ProtBoundConf>  (855) 
nan

>  <Num_Resolved_Atoms>  (855) 
nan

>  <Num_Not_Resolved_Atoms>  (855) 
nan

$$$$
CHEMBL3680586
     RDKit          3D

  0  0  0  0  0  0  0  0  0  0999 V3000
M  V30 BEGIN CTAB
M  V30 COUNTS 57 60 0 0 0
M  V30 BEGIN ATOM
M  V30 1 C 2.767376 -1.347200 1.656386 0
M  V30 2 C 1.312325 -0.897518 1.541035 0
M  V30 3 N 1.264710 0.535195 1.621220 0
M  V30 4 C 2.163205 1.371531 0.870229 0
M  V30 5 N 3.130259 0.885616 0.075403 0
M  V30 6 C 3.991219 1.649315 -0.614476 0
M  V30 7 N 3.943131 2.991530 -0.555393 0
M  V30 8 C 2.998562 3.572845 0.222501 0
M  V30 9 C 2.922276 4.945676 0.304588 0
M  V30 10 C 3.884745 5.755262 -0.466972 0
M  V30 11 N 4.870778 5.142995 -1.278374 0
M  V30 12 O 3.841809 7.010359 -0.413803 0
M  V30 13 C 1.987215 5.573238 1.074974 0
M  V30 14 C 1.115055 4.763015 1.773231 0
M  V30 15 C 1.207993 3.399524 1.677734 0
M  V30 16 C 2.141930 2.748982 0.907958 0
M  V30 17 C 0.611112 -1.501209 0.392807 0
M  V30 18 C -0.448028 -2.266461 0.660880 0
M  V30 19 C -1.262327 -2.947395 -0.311913 0
M  V30 20 N -2.389883 -3.755011 -0.016005 0
M  V30 21 C -3.569362 -3.345896 0.648617 0
M  V30 22 O -3.596848 -2.152769 0.999509 0
M  V30 23 C -4.520589 -4.478070 0.770245 0
M  V30 24 C -5.815356 -4.136733 1.468785 0
M  V30 25 F -5.483724 -3.705021 2.748413 0
M  V30 26 F -6.486229 -3.118547 0.849847 0
M  V30 27 F -6.576606 -5.277879 1.627096 0
M  V30 28 C -3.820586 -5.622176 1.475515 0
M  V30 29 C -4.462486 -6.553662 0.467299 0
M  V30 30 C -4.641821 -5.351281 -0.432229 0
M  V30 31 C -0.847184 -2.743167 -1.550349 0
M  V30 32 C 0.290132 -1.948864 -2.060302 0
M  V30 33 C 1.062632 -1.238376 -0.998244 0
M  V30 34 H 3.273918 -0.598410 2.264090 0
M  V30 35 H 3.273192 -1.416902 0.685093 0
M  V30 36 H 2.769334 -2.379351 2.073897 0
M  V30 37 H 0.839938 -1.285493 2.494222 0
M  V30 38 H 0.553024 0.949181 2.242813 0
M  V30 39 H 4.761586 1.215572 -1.248392 0
M  V30 40 H 5.070325 5.172170 -2.315289 0
M  V30 41 H 4.995395 5.230075 -2.318537 0
M  V30 42 H 1.989328 6.652664 1.088979 0
M  V30 43 H 0.372160 5.289610 2.385549 0
M  V30 44 H 0.465312 2.893983 2.274396 0
M  V30 45 H -0.775921 -2.427997 1.700216 0
M  V30 46 H -2.135535 -4.711184 -0.405011 0
M  V30 47 H -2.707947 -5.595445 1.438041 0
M  V30 48 H -4.234378 -5.867151 2.480027 0
M  V30 49 H -3.682899 -7.274392 0.114472 0
M  V30 50 H -5.388994 -7.058136 0.801037 0
M  V30 51 H -3.920660 -5.222678 -1.248984 0
M  V30 52 H -5.696728 -5.344847 -0.787848 0
M  V30 53 H -1.397560 -3.216125 -2.381674 0
M  V30 54 H 1.021445 -2.603426 -2.623517 0
M  V30 55 H -0.094466 -1.263196 -2.850197 0
M  V30 56 H 2.137300 -1.467017 -1.071818 0
M  V30 57 H 0.989406 -0.143105 -1.236688 0
M  V30 END ATOM
M  V30 BEGIN BOND
M  V30 1 1 1 2
M  V30 2 1 2 3
M  V30 3 1 3 4
M  V30 4 2 4 5
M  V30 5 1 5 6
M  V30 6 2 6 7
M  V30 7 1 7 8
M  V30 8 2 8 9
M  V30 9 1 9 10
M  V30 10 1 10 11
M  V30 11 2 10 12
M  V30 12 1 9 13
M  V30 13 2 13 14
M  V30 14 1 14 15
M  V30 15 2 15 16
M  V30 16 1 2 17
M  V30 17 2 17 18
M  V30 18 1 18 19
M  V30 19 1 19 20
M  V30 20 1 20 21
M  V30 21 2 21 22
M  V30 22 1 21 23
M  V30 23 1 23 24
M  V30 24 1 24 25
M  V30 25 1 24 26
M  V30 26 1 24 27
M  V30 27 1 23 28
M  V30 28 1 28 29
M  V30 29 1 29 30
M  V30 30 2 19 31
M  V30 31 1 31 32
M  V30 32 1 32 33
M  V30 33 1 16 4
M  V30 34 1 33 17
M  V30 35 1 16 8
M  V30 36 1 30 23
M  V30 37 1 1 34
M  V30 38 1 1 35
M  V30 39 1 1 36
M  V30 40 1 2 37
M  V30 41 1 3 38
M  V30 42 1 6 39
M  V30 43 1 11 40
M  V30 44 1 11 41
M  V30 45 1 13 42
M  V30 46 1 14 43
M  V30 47 1 15 44
M  V30 48 1 18 45
M  V30 49 1 20 46
M  V30 50 1 28 47
M  V30 51 1 28 48
M  V30 52 1 29 49
M  V30 53 1 29 50
M  V30 54 1 30 51
M  V30 55 1 30 52
M  V30 56 1 31 53
M  V30 57 1 32 54
M  V30 58 1 32 55
M  V30 59 1 33 56
M  V30 60 1 33 57
M  V30 END BOND
M  V30 END CTAB
M  END
>  <Dataset>  (856) 
ChEMBL_Kinases

>  <Ligand_Instance>  (856) 
nan

>  <PDB_ID>  (856) 
nan

>  <Standardized_SMILES>  (856) 
CC(Nc1ncnc2c(C(N)=O)cccc12)C1=CC(NC(=O)C2(C(F)(F)F)CCC2)=CCC1

>  <Name>  (856) 
nan

>  <Pocket>  (856) 
nan

>  <ATP_Site>  (856) 
nan

>  <Peripheral>  (856) 
nan

>  <Num_H_Atoms_ProtBoundConf>  (856) 
nan

>  <Num_Resolved_Atoms>  (856) 
nan

>  <Num_Not_Resolved_Atoms>  (856) 
nan

$$$$
CHEMBL510730
     RDKit          3D

  0  0  0  0  0  0  0  0  0  0999 V3000
M  V30 BEGIN CTAB
M  V30 COUNTS 78 82 0 0 0
M  V30 BEGIN ATOM
M  V30 1 O 3.402538 -3.143107 -1.797842 0
M  V30 2 C 3.903162 -3.569535 -0.733674 0
M  V30 3 N 4.500845 -2.387813 -0.258790 0
M  V30 4 C 3.860443 -1.076343 -0.077027 0
M  V30 5 C 4.695963 -0.266202 0.883117 0
M  V30 6 C 4.402156 1.170069 0.829026 0
M  V30 7 C 5.353309 2.044450 1.298771 0
M  V30 8 C 5.206306 3.408473 1.306031 0
M  V30 9 Br 6.518406 4.630618 1.955132 0
M  V30 10 C 4.023148 3.912463 0.806506 0
M  V30 11 O 3.830972 5.302169 0.794987 0
M  V30 12 C 3.050574 3.056973 0.328253 0
M  V30 13 C 3.223818 1.687605 0.332386 0
M  V30 14 O 1.896873 3.649718 -0.153483 0
M  V30 15 C 0.624978 3.377065 0.318779 0
M  V30 16 C 0.423348 3.086162 1.650983 0
M  V30 17 Br 1.900153 3.059478 2.846614 0
M  V30 18 C -0.843442 2.816045 2.114288 0
M  V30 19 C -1.919433 2.834783 1.247858 0
M  V30 20 C -1.722030 3.125494 -0.086415 0
M  V30 21 C -0.450234 3.396100 -0.548591 0
M  V30 22 Br -0.178215 3.797884 -2.394436 0
M  V30 23 C -3.287432 2.542522 1.751400 0
M  V30 24 C -3.606354 1.073834 1.678037 0
M  V30 25 N -4.610938 0.877611 0.622867 0
M  V30 26 C -5.980765 0.465703 0.506005 0
M  V30 27 O -6.418346 1.285090 1.354364 0
M  V30 28 C -6.431783 -0.591668 -0.391019 0
M  V30 29 N -7.341868 -1.449559 -0.134806 0
M  V30 30 O -7.733552 -2.437719 -1.027020 0
M  V30 31 C -5.737082 -0.627217 -1.704225 0
M  V30 32 C -4.354158 -1.090524 -1.527462 0
M  V30 33 C -3.525033 -0.763273 -2.579588 0
M  V30 34 C -2.181990 -1.126639 -2.573311 0
M  V30 35 Br -0.981398 -0.714071 -3.979419 0
M  V30 36 C -1.774770 -1.821997 -1.451036 0
M  V30 37 O -0.420199 -2.202463 -1.417984 0
M  V30 38 C -2.578574 -2.164191 -0.383336 0
M  V30 39 C -3.903801 -1.786464 -0.426272 0
M  V30 40 O -2.086103 -2.867469 0.710261 0
M  V30 41 C -0.880383 -3.527287 0.707535 0
M  V30 42 C 0.260549 -2.916723 1.189900 0
M  V30 43 Br 0.153279 -1.136422 1.866437 0
M  V30 44 C 1.475319 -3.574616 1.189670 0
M  V30 45 C 1.539153 -4.875380 0.692175 0
M  V30 46 C 0.397287 -5.484754 0.210137 0
M  V30 47 C -0.808439 -4.815547 0.216778 0
M  V30 48 Br -2.368267 -5.681190 -0.454734 0
M  V30 49 C 2.849109 -5.577908 0.695055 0
M  V30 50 C 3.808999 -4.942064 -0.250344 0
M  V30 51 N 4.748421 -5.664472 -0.774599 0
M  V30 52 O 4.911450 -7.005329 -0.503231 0
M  V30 53 H 5.511087 -2.520103 -0.026704 0
M  V30 54 H 3.901187 -0.572544 -1.068604 0
M  V30 55 H 2.815165 -1.162028 0.214012 0
M  V30 56 H 4.504020 -0.661025 1.902058 0
M  V30 57 H 5.761207 -0.497986 0.655429 0
M  V30 58 H 6.296228 1.679700 1.698752 0
M  V30 59 H 3.320223 5.812717 1.473734 0
M  V30 60 H 2.423689 1.073511 -0.056527 0
M  V30 61 H -1.003730 2.587082 3.161294 0
M  V30 62 H -2.557940 3.140555 -0.762411 0
M  V30 63 H -4.024372 3.147504 1.189358 0
M  V30 64 H -3.377098 2.837580 2.826672 0
M  V30 65 H -2.693577 0.555938 1.305099 0
M  V30 66 H -3.975787 0.662594 2.629360 0
M  V30 67 H -4.269980 1.090810 -0.360882 0
M  V30 68 H -7.138517 -3.180567 -1.339928 0
M  V30 69 H -5.781418 0.393222 -2.175655 0
M  V30 70 H -6.309247 -1.273531 -2.409914 0
M  V30 71 H -3.841320 -0.212069 -3.472644 0
M  V30 72 H -0.144881 -2.895250 -2.089416 0
M  V30 73 H -4.614931 -2.005565 0.357881 0
M  V30 74 H 2.349175 -3.092125 1.565057 0
M  V30 75 H 0.469559 -6.492631 -0.170383 0
M  V30 76 H 2.665987 -6.616529 0.353125 0
M  V30 77 H 3.271475 -5.656446 1.718010 0
M  V30 78 H 4.142681 -7.605644 -0.769564 0
M  V30 END ATOM
M  V30 BEGIN BOND
M  V30 1 2 1 2
M  V30 2 1 2 3
M  V30 3 1 3 4
M  V30 4 1 4 5
M  V30 5 1 5 6
M  V30 6 2 6 7
M  V30 7 1 7 8
M  V30 8 1 8 9
M  V30 9 2 8 10
M  V30 10 1 10 11
M  V30 11 1 10 12
M  V30 12 2 12 13
M  V30 13 1 12 14
M  V30 14 1 14 15
M  V30 15 2 15 16
M  V30 16 1 16 17
M  V30 17 1 16 18
M  V30 18 2 18 19
M  V30 19 1 19 20
M  V30 20 2 20 21
M  V30 21 1 21 22
M  V30 22 1 19 23
M  V30 23 1 23 24
M  V30 24 1 24 25
M  V30 25 1 25 26
M  V30 26 2 26 27
M  V30 27 1 26 28
M  V30 28 2 28 29
M  V30 29 1 29 30
M  V30 30 1 28 31
M  V30 31 1 31 32
M  V30 32 1 32 33
M  V30 33 2 33 34
M  V30 34 1 34 35
M  V30 35 1 34 36
M  V30 36 1 36 37
M  V30 37 2 36 38
M  V30 38 1 38 39
M  V30 39 1 38 40
M  V30 40 1 40 41
M  V30 41 2 41 42
M  V30 42 1 42 43
M  V30 43 1 42 44
M  V30 44 2 44 45
M  V30 45 1 45 46
M  V30 46 2 46 47
M  V30 47 1 47 48
M  V30 48 1 45 49
M  V30 49 1 49 50
M  V30 50 2 50 51
M  V30 51 1 51 52
M  V30 52 1 50 2
M  V30 53 1 13 6
M  V30 54 1 21 15
M  V30 55 2 39 32
M  V30 56 1 47 41
M  V30 57 1 3 53
M  V30 58 1 4 54
M  V30 59 1 4 55
M  V30 60 1 5 56
M  V30 61 1 5 57
M  V30 62 1 7 58
M  V30 63 1 11 59
M  V30 64 1 13 60
M  V30 65 1 18 61
M  V30 66 1 20 62
M  V30 67 1 23 63
M  V30 68 1 23 64
M  V30 69 1 24 65
M  V30 70 1 24 66
M  V30 71 1 25 67
M  V30 72 1 30 68
M  V30 73 1 31 69
M  V30 74 1 31 70
M  V30 75 1 33 71
M  V30 76 1 37 72
M  V30 77 1 39 73
M  V30 78 1 44 74
M  V30 79 1 46 75
M  V30 80 1 49 76
M  V30 81 1 49 77
M  V30 82 1 52 78
M  V30 END BOND
M  V30 END CTAB
M  END
>  <Dataset>  (857) 
ChEMBL_Kinases

>  <Ligand_Instance>  (857) 
nan

>  <PDB_ID>  (857) 
nan

>  <Standardized_SMILES>  (857) 
O=C1NCCc2cc(Br)c(O)c(c2)Oc2c(Br)cc(cc2Br)CCNC(=O)/C(=N/O)Cc2cc(Br)c(O)c(c2)Oc2c(Br)cc(cc2Br)C/C1=N\O

>  <Name>  (857) 
BASTADIN 6

>  <Pocket>  (857) 
nan

>  <ATP_Site>  (857) 
nan

>  <Peripheral>  (857) 
nan

>  <Num_H_Atoms_ProtBoundConf>  (857) 
nan

>  <Num_Resolved_Atoms>  (857) 
nan

>  <Num_Not_Resolved_Atoms>  (857) 
nan

$$$$
CHEMBL373937
     RDKit          3D

  0  0  0  0  0  0  0  0  0  0999 V3000
M  V30 BEGIN CTAB
M  V30 COUNTS 15 16 0 0 0
M  V30 BEGIN ATOM
M  V30 1 Br -1.444850 -2.862358 0.578754 0
M  V30 2 C -0.136224 -1.513299 0.870083 0
M  V30 3 C 1.099002 -1.764866 1.421317 0
M  V30 4 Br 1.500188 -3.581925 1.914713 0
M  V30 5 C 2.076588 -0.819549 1.650265 0
M  V30 6 Br 3.757779 -1.220139 2.411069 0
M  V30 7 C 1.716635 0.460338 1.271057 0
M  V30 8 N 2.382780 1.644353 1.329269 0
M  V30 9 C 1.659136 2.659682 0.849103 0
M  V30 10 N 0.493734 2.109651 0.471664 0
M  V30 11 C 0.480919 0.778995 0.707468 0
M  V30 12 C -0.442779 -0.237037 0.513391 0
M  V30 13 Br -2.123548 0.234386 -0.260066 0
M  V30 14 H 3.363053 1.716078 1.717572 0
M  V30 15 H 1.908349 3.694529 0.763659 0
M  V30 END ATOM
M  V30 BEGIN BOND
M  V30 1 1 1 2
M  V30 2 2 2 3
M  V30 3 1 3 4
M  V30 4 1 3 5
M  V30 5 1 5 6
M  V30 6 2 5 7
M  V30 7 1 7 8
M  V30 8 1 8 9
M  V30 9 2 9 10
M  V30 10 1 10 11
M  V30 11 2 11 12
M  V30 12 1 12 13
M  V30 13 1 12 2
M  V30 14 1 11 7
M  V30 15 1 8 14
M  V30 16 1 9 15
M  V30 END BOND
M  V30 END CTAB
M  END
>  <Dataset>  (858) 
ChEMBL_Kinases

>  <Ligand_Instance>  (858) 
nan

>  <PDB_ID>  (858) 
nan

>  <Standardized_SMILES>  (858) 
Brc1c(Br)c(Br)c2[nH]cnc2c1Br

>  <Name>  (858) 
nan

>  <Pocket>  (858) 
nan

>  <ATP_Site>  (858) 
nan

>  <Peripheral>  (858) 
nan

>  <Num_H_Atoms_ProtBoundConf>  (858) 
nan

>  <Num_Resolved_Atoms>  (858) 
nan

>  <Num_Not_Resolved_Atoms>  (858) 
nan

$$$$
CHEMBL3680582
     RDKit          3D

  0  0  0  0  0  0  0  0  0  0999 V3000
M  V30 BEGIN CTAB
M  V30 COUNTS 65 69 0 0 0
M  V30 BEGIN ATOM
M  V30 1 N 5.833921 -3.125896 5.790440 0
M  V30 2 C 5.424146 -2.436357 4.643131 0
M  V30 3 O 4.425630 -3.188137 4.388727 0
M  V30 4 C 5.836373 -1.280504 3.864527 0
M  V30 5 C 6.941256 -0.542571 4.241903 0
M  V30 6 C 7.248056 0.538114 3.431727 0
M  V30 7 C 6.474426 0.824042 2.329054 0
M  V30 8 C 5.383933 0.063816 1.990016 0
M  V30 9 C 4.654249 0.395035 0.886417 0
M  V30 10 N 4.915976 1.469012 0.024761 0
M  V30 11 C 4.212457 1.910597 -1.161517 0
M  V30 12 C 2.841049 2.315292 -0.761153 0
M  V30 13 C 2.730577 3.629757 -0.284925 0
M  V30 14 C 1.540387 4.198959 0.124047 0
M  V30 15 C 0.382657 3.452944 0.070492 0
M  V30 16 C 0.470410 2.172494 -0.390169 0
M  V30 17 N -0.692368 1.359168 -0.464699 0
M  V30 18 C -1.689792 1.094907 -1.424737 0
M  V30 19 O -1.496140 1.748582 -2.483811 0
M  V30 20 C -2.760792 0.168641 -1.127561 0
M  V30 21 C -2.859978 -0.473890 0.060387 0
M  V30 22 C -3.951680 -1.336720 0.188451 0
M  V30 23 C -4.884971 -1.529142 -0.838992 0
M  V30 24 N -5.924254 -2.436260 -0.493568 0
M  V30 25 C -7.351991 -2.483765 -0.245364 0
M  V30 26 C -7.949828 -3.486854 -1.207980 0
M  V30 27 O -7.449226 -4.748565 -0.957257 0
M  V30 28 C -6.374612 -4.800064 -0.109194 0
M  V30 29 C -5.317868 -3.751510 -0.351513 0
M  V30 30 C -4.730942 -0.849260 -2.021578 0
M  V30 31 C -5.705731 -1.066887 -3.085505 0
M  V30 32 F -6.961860 -0.712809 -2.660590 0
M  V30 33 F -5.635755 -2.326377 -3.643042 0
M  V30 34 F -5.430553 -0.199557 -4.153362 0
M  V30 35 C -3.654145 0.007494 -2.159472 0
M  V30 36 C 1.667103 1.621899 -0.794176 0
M  V30 37 N 3.596168 -0.364084 0.580905 0
M  V30 38 C 3.295464 -1.408596 1.359697 0
M  V30 39 N 3.975571 -1.781660 2.455316 0
M  V30 40 C 5.048912 -1.018149 2.772090 0
M  V30 41 H 5.580095 -3.023953 6.798852 0
M  V30 42 H 6.520079 -3.922494 5.819824 0
M  V30 43 H 7.506849 -0.828141 5.128051 0
M  V30 44 H 8.122175 1.112604 3.740353 0
M  V30 45 H 6.810949 1.677028 1.788537 0
M  V30 46 H 5.737805 2.066355 0.238922 0
M  V30 47 H 4.704207 2.768782 -1.619624 0
M  V30 48 H 4.114681 1.078186 -1.904430 0
M  V30 49 H 3.606513 4.289333 -0.211555 0
M  V30 50 H 1.505302 5.218265 0.484229 0
M  V30 51 H -0.559043 3.879628 0.385822 0
M  V30 52 H -0.642205 0.935483 0.486669 0
M  V30 53 H -2.166287 -0.346796 0.856902 0
M  V30 54 H -4.021920 -1.849456 1.150568 0
M  V30 55 H -7.853006 -1.504173 -0.279113 0
M  V30 56 H -7.558207 -2.889460 0.785722 0
M  V30 57 H -7.746076 -3.262223 -2.272242 0
M  V30 58 H -9.072749 -3.471572 -1.137360 0
M  V30 59 H -5.864722 -5.785187 -0.220929 0
M  V30 60 H -6.701602 -4.720370 0.960425 0
M  V30 61 H -4.710341 -3.710050 0.600370 0
M  V30 62 H -4.649496 -4.019049 -1.195499 0
M  V30 63 H -3.595741 0.516727 -3.132162 0
M  V30 64 H 1.740745 0.613943 -1.170217 0
M  V30 65 H 2.434697 -2.054353 1.140753 0
M  V30 END ATOM
M  V30 BEGIN BOND
M  V30 1 1 1 2
M  V30 2 2 2 3
M  V30 3 1 2 4
M  V30 4 2 4 5
M  V30 5 1 5 6
M  V30 6 2 6 7
M  V30 7 1 7 8
M  V30 8 2 8 9
M  V30 9 1 9 10
M  V30 10 1 10 11
M  V30 11 1 11 12
M  V30 12 2 12 13
M  V30 13 1 13 14
M  V30 14 2 14 15
M  V30 15 1 15 16
M  V30 16 1 16 17
M  V30 17 1 17 18
M  V30 18 2 18 19
M  V30 19 1 18 20
M  V30 20 2 20 21
M  V30 21 1 21 22
M  V30 22 2 22 23
M  V30 23 1 23 24
M  V30 24 1 24 25
M  V30 25 1 25 26
M  V30 26 1 26 27
M  V30 27 1 27 28
M  V30 28 1 28 29
M  V30 29 1 23 30
M  V30 30 1 30 31
M  V30 31 1 31 32
M  V30 32 1 31 33
M  V30 33 1 31 34
M  V30 34 2 30 35
M  V30 35 2 16 36
M  V30 36 1 9 37
M  V30 37 2 37 38
M  V30 38 1 38 39
M  V30 39 2 39 40
M  V30 40 1 40 4
M  V30 41 1 40 8
M  V30 42 1 36 12
M  V30 43 1 35 20
M  V30 44 1 29 24
M  V30 45 1 1 41
M  V30 46 1 1 42
M  V30 47 1 5 43
M  V30 48 1 6 44
M  V30 49 1 7 45
M  V30 50 1 10 46
M  V30 51 1 11 47
M  V30 52 1 11 48
M  V30 53 1 13 49
M  V30 54 1 14 50
M  V30 55 1 15 51
M  V30 56 1 17 52
M  V30 57 1 21 53
M  V30 58 1 22 54
M  V30 59 1 25 55
M  V30 60 1 25 56
M  V30 61 1 26 57
M  V30 62 1 26 58
M  V30 63 1 28 59
M  V30 64 1 28 60
M  V30 65 1 29 61
M  V30 66 1 29 62
M  V30 67 1 35 63
M  V30 68 1 36 64
M  V30 69 1 38 65
M  V30 END BOND
M  V30 END CTAB
M  END
>  <Dataset>  (859) 
ChEMBL_Kinases

>  <Ligand_Instance>  (859) 
nan

>  <PDB_ID>  (859) 
nan

>  <Standardized_SMILES>  (859) 
NC(=O)c1cccc2c(NCc3cccc(NC(=O)c4ccc(N5CCOCC5)c(C(F)(F)F)c4)c3)ncnc12

>  <Name>  (859) 
nan

>  <Pocket>  (859) 
nan

>  <ATP_Site>  (859) 
nan

>  <Peripheral>  (859) 
nan

>  <Num_H_Atoms_ProtBoundConf>  (859) 
nan

>  <Num_Resolved_Atoms>  (859) 
nan

>  <Num_Not_Resolved_Atoms>  (859) 
nan

$$$$
CHEMBL373751
     RDKit          3D

  0  0  0  0  0  0  0  0  0  0999 V3000
M  V30 BEGIN CTAB
M  V30 COUNTS 51 54 0 0 0
M  V30 BEGIN ATOM
M  V30 1 C 1.707014 -5.939198 5.049504 0
M  V30 2 O 0.722545 -5.201157 4.348534 0
M  V30 3 C 1.148672 -4.459667 3.254255 0
M  V30 4 C 2.460826 -4.412622 2.830701 0
M  V30 5 C 2.900156 -3.681392 1.746342 0
M  V30 6 N 4.078302 -3.465726 1.137408 0
M  V30 7 C 3.865211 -2.624219 0.087354 0
M  V30 8 N 2.579263 -2.289724 0.001057 0
M  V30 9 C 1.987291 -1.461768 -0.927700 0
M  V30 10 C 1.619639 -0.134524 -0.838172 0
M  V30 11 C 1.037295 0.540859 -1.865197 0
M  V30 12 O 0.587654 1.816503 -2.041574 0
M  V30 13 C 0.568942 2.894484 -1.195217 0
M  V30 14 C -0.222642 2.667032 0.014952 0
M  V30 15 C 0.240535 2.438393 1.279228 0
M  V30 16 C -0.523787 2.239033 2.408606 0
M  V30 17 C -1.885371 2.278546 2.219135 0
M  V30 18 C -2.398292 2.506266 0.961393 0
M  V30 19 C -1.606397 2.707051 -0.176846 0
M  V30 20 S -2.341112 2.989241 -1.734871 0
M  V30 21 C -4.118319 2.971827 -1.499232 0
M  V30 22 O -1.937296 1.924424 -2.720626 0
M  V30 23 O -1.993370 4.322873 -2.311671 0
M  V30 24 C 0.852190 -0.290129 -3.049296 0
M  V30 25 C 0.275839 0.021858 -4.358550 0
M  V30 26 N -0.184535 0.266449 -5.356896 0
M  V30 27 S 1.519243 -1.893957 -2.552791 0
M  V30 28 C 1.974487 -2.937499 1.021289 0
M  V30 29 C 0.663513 -2.985042 1.445228 0
M  V30 30 C 0.222901 -3.715832 2.529493 0
M  V30 31 O -1.096652 -3.763148 2.955477 0
M  V30 32 C -2.163448 -3.091119 2.363987 0
M  V30 33 H 2.605873 -5.332493 5.286371 0
M  V30 34 H 1.261416 -6.205944 6.031886 0
M  V30 35 H 1.972245 -6.896162 4.532287 0
M  V30 36 H 3.207921 -4.977096 3.367753 0
M  V30 37 H 4.640211 -2.282780 -0.576394 0
M  V30 38 H 1.812085 0.378940 0.090786 0
M  V30 39 H 0.244588 3.792189 -1.766152 0
M  V30 40 H 1.644261 3.109487 -0.912424 0
M  V30 41 H 1.338567 2.425531 1.325503 0
M  V30 42 H -0.008524 2.070660 3.335574 0
M  V30 43 H -2.516635 2.126530 3.081400 0
M  V30 44 H -3.493865 2.522903 0.893135 0
M  V30 45 H -4.401312 3.952254 -1.092592 0
M  V30 46 H -4.437404 2.121014 -0.870305 0
M  V30 47 H -4.540752 2.896741 -2.522578 0
M  V30 48 H -0.058143 -2.408350 0.883935 0
M  V30 49 H -1.890643 -2.209133 1.756465 0
M  V30 50 H -2.786703 -3.761685 1.723983 0
M  V30 51 H -2.885781 -2.687425 3.130721 0
M  V30 END ATOM
M  V30 BEGIN BOND
M  V30 1 1 1 2
M  V30 2 1 2 3
M  V30 3 2 3 4
M  V30 4 1 4 5
M  V30 5 1 5 6
M  V30 6 2 6 7
M  V30 7 1 7 8
M  V30 8 1 8 9
M  V30 9 2 9 10
M  V30 10 1 10 11
M  V30 11 1 11 12
M  V30 12 1 12 13
M  V30 13 1 13 14
M  V30 14 2 14 15
M  V30 15 1 15 16
M  V30 16 2 16 17
M  V30 17 1 17 18
M  V30 18 2 18 19
M  V30 19 1 19 20
M  V30 20 1 20 21
M  V30 21 2 20 22
M  V30 22 2 20 23
M  V30 23 2 11 24
M  V30 24 1 24 25
M  V30 25 3 25 26
M  V30 26 1 24 27
M  V30 27 1 8 28
M  V30 28 1 28 29
M  V30 29 2 29 30
M  V30 30 1 30 31
M  V30 31 1 31 32
M  V30 32 1 30 3
M  V30 33 2 28 5
M  V30 34 1 27 9
M  V30 35 1 19 14
M  V30 36 1 1 33
M  V30 37 1 1 34
M  V30 38 1 1 35
M  V30 39 1 4 36
M  V30 40 1 7 37
M  V30 41 1 10 38
M  V30 42 1 13 39
M  V30 43 1 13 40
M  V30 44 1 15 41
M  V30 45 1 16 42
M  V30 46 1 17 43
M  V30 47 1 18 44
M  V30 48 1 21 45
M  V30 49 1 21 46
M  V30 50 1 21 47
M  V30 51 1 29 48
M  V30 52 1 32 49
M  V30 53 1 32 50
M  V30 54 1 32 51
M  V30 END BOND
M  V30 END CTAB
M  END
>  <Dataset>  (860) 
ChEMBL_Kinases

>  <Ligand_Instance>  (860) 
nan

>  <PDB_ID>  (860) 
nan

>  <Standardized_SMILES>  (860) 
COc1cc2ncn(-c3cc(OCc4ccccc4S(C)(=O)=O)c(C#N)s3)c2cc1OC

>  <Name>  (860) 
GSK-319347A

>  <Pocket>  (860) 
nan

>  <ATP_Site>  (860) 
nan

>  <Peripheral>  (860) 
nan

>  <Num_H_Atoms_ProtBoundConf>  (860) 
nan

>  <Num_Resolved_Atoms>  (860) 
nan

>  <Num_Not_Resolved_Atoms>  (860) 
nan

$$$$
CHEMBL3680577
     RDKit          3D

  0  0  0  0  0  0  0  0  0  0999 V3000
M  V30 BEGIN CTAB
M  V30 COUNTS 50 53 0 0 0
M  V30 BEGIN ATOM
M  V30 1 N 3.218931 -5.344232 -1.802279 0
M  V30 2 C 4.105654 -4.704613 -1.401500 0
M  V30 3 C 5.214300 -3.894540 -0.893964 0
M  V30 4 C 4.811874 -2.472669 -0.737919 0
M  V30 5 C 4.268449 -2.043519 0.474711 0
M  V30 6 C 3.888656 -0.711460 0.628310 0
M  V30 7 C 4.051864 0.186715 -0.426548 0
M  V30 8 N 3.603478 1.482149 -0.056837 0
M  V30 9 C 2.252506 1.875689 -0.253590 0
M  V30 10 C 1.866523 3.152384 0.154824 0
M  V30 11 C 0.551496 3.518717 -0.040583 0
M  V30 12 C -0.346140 2.650340 -0.619545 0
M  V30 13 C -0.016104 1.397064 -1.032898 0
M  V30 14 C -0.859803 0.363449 -1.651073 0
M  V30 15 N -1.402194 -0.563563 -0.674246 0
M  V30 16 C -2.259745 -0.232153 0.403522 0
M  V30 17 N -2.691497 1.007790 0.664854 0
M  V30 18 C -3.504004 1.337543 1.680413 0
M  V30 19 N -3.941654 0.384360 2.523042 0
M  V30 20 C -3.553316 -0.867608 2.323808 0
M  V30 21 C -4.015372 -1.826352 3.200870 0
M  V30 22 C -4.899045 -1.519076 4.319688 0
M  V30 23 N -5.408396 -0.240966 4.677168 0
M  V30 24 O -5.333099 -2.354124 5.126550 0
M  V30 25 C -3.661089 -3.151411 3.066481 0
M  V30 26 C -2.819079 -3.507902 2.017938 0
M  V30 27 C -2.381467 -2.514875 1.165219 0
M  V30 28 C -2.718918 -1.196776 1.278401 0
M  V30 29 C 1.323188 1.048546 -0.824405 0
M  V30 30 N 4.576984 -0.259173 -1.577434 0
M  V30 31 C 4.949035 -1.540445 -1.743598 0
M  V30 32 H 5.441203 -4.276860 0.127962 0
M  V30 33 H 6.131034 -4.027822 -1.500977 0
M  V30 34 H 4.160020 -2.776843 1.266589 0
M  V30 35 H 3.482337 -0.500244 1.607593 0
M  V30 36 H 4.295140 2.120732 0.357458 0
M  V30 37 H 2.613925 3.789650 0.602210 0
M  V30 38 H 0.239605 4.505306 0.271690 0
M  V30 39 H -1.361801 2.950724 -0.771400 0
M  V30 40 H -0.320889 -0.104710 -2.475547 0
M  V30 41 H -1.729310 0.917236 -2.113664 0
M  V30 42 H -1.079557 -1.522896 -0.861995 0
M  V30 43 H -3.749345 2.396476 1.736321 0
M  V30 44 H -5.421877 0.748709 4.348637 0
M  V30 45 H -5.431218 0.767498 4.356845 0
M  V30 46 H -4.024386 -3.907190 3.756718 0
M  V30 47 H -2.537265 -4.556633 1.909698 0
M  V30 48 H -1.745486 -2.866256 0.395033 0
M  V30 49 H 1.703360 0.068787 -1.116284 0
M  V30 50 H 5.364016 -1.826394 -2.697004 0
M  V30 END ATOM
M  V30 BEGIN BOND
M  V30 1 3 1 2
M  V30 2 1 2 3
M  V30 3 1 3 4
M  V30 4 2 4 5
M  V30 5 1 5 6
M  V30 6 2 6 7
M  V30 7 1 7 8
M  V30 8 1 8 9
M  V30 9 2 9 10
M  V30 10 1 10 11
M  V30 11 2 11 12
M  V30 12 1 12 13
M  V30 13 1 13 14
M  V30 14 1 14 15
M  V30 15 1 15 16
M  V30 16 2 16 17
M  V30 17 1 17 18
M  V30 18 2 18 19
M  V30 19 1 19 20
M  V30 20 2 20 21
M  V30 21 1 21 22
M  V30 22 1 22 23
M  V30 23 2 22 24
M  V30 24 1 21 25
M  V30 25 2 25 26
M  V30 26 1 26 27
M  V30 27 2 27 28
M  V30 28 2 13 29
M  V30 29 1 7 30
M  V30 30 2 30 31
M  V30 31 1 31 4
M  V30 32 1 29 9
M  V30 33 1 28 16
M  V30 34 1 28 20
M  V30 35 1 3 32
M  V30 36 1 3 33
M  V30 37 1 5 34
M  V30 38 1 6 35
M  V30 39 1 8 36
M  V30 40 1 10 37
M  V30 41 1 11 38
M  V30 42 1 12 39
M  V30 43 1 14 40
M  V30 44 1 14 41
M  V30 45 1 15 42
M  V30 46 1 18 43
M  V30 47 1 23 44
M  V30 48 1 23 45
M  V30 49 1 25 46
M  V30 50 1 26 47
M  V30 51 1 27 48
M  V30 52 1 29 49
M  V30 53 1 31 50
M  V30 END BOND
M  V30 END CTAB
M  END
>  <Dataset>  (861) 
ChEMBL_Kinases

>  <Ligand_Instance>  (861) 
nan

>  <PDB_ID>  (861) 
nan

>  <Standardized_SMILES>  (861) 
N#CCc1ccc(Nc2cccc(CNc3ncnc4c(C(N)=O)cccc34)c2)nc1

>  <Name>  (861) 
nan

>  <Pocket>  (861) 
nan

>  <ATP_Site>  (861) 
nan

>  <Peripheral>  (861) 
nan

>  <Num_H_Atoms_ProtBoundConf>  (861) 
nan

>  <Num_Resolved_Atoms>  (861) 
nan

>  <Num_Not_Resolved_Atoms>  (861) 
nan

$$$$
CHEMBL3680574
     RDKit          3D

  0  0  0  0  0  0  0  0  0  0999 V3000
M  V30 BEGIN CTAB
M  V30 COUNTS 52 55 0 0 0
M  V30 BEGIN ATOM
M  V30 1 C -0.887108 0.363353 2.740559 0
M  V30 2 C -1.334436 0.809694 1.370677 0
M  V30 3 N -0.125405 0.970698 0.556951 0
M  V30 4 C 0.839241 1.914822 1.000682 0
M  V30 5 N 0.652606 2.633565 2.121418 0
M  V30 6 C 1.526850 3.534433 2.583122 0
M  V30 7 N 2.692256 3.802806 1.950586 0
M  V30 8 C 2.937457 3.114688 0.820996 0
M  V30 9 C 4.115622 3.337788 0.116773 0
M  V30 10 C 5.063281 4.322344 0.628085 0
M  V30 11 N 4.795119 5.043917 1.822684 0
M  V30 12 O 6.153893 4.593208 0.061954 0
M  V30 13 C 4.413737 2.658499 -1.046254 0
M  V30 14 C 3.487321 1.726656 -1.505030 0
M  V30 15 C 2.319147 1.509476 -0.801417 0
M  V30 16 C 2.026841 2.188121 0.355817 0
M  V30 17 C -2.276900 -0.154831 0.752322 0
M  V30 18 C -3.614617 0.137737 0.681326 0
M  V30 19 C -4.497164 -0.761873 0.103733 0
M  V30 20 C -3.975657 -1.949935 -0.390278 0
M  V30 21 C -2.609948 -2.234837 -0.311088 0
M  V30 22 N -2.326313 -3.505338 -0.883148 0
M  V30 23 C -2.421095 -4.530813 0.126606 0
M  V30 24 O -2.727807 -4.107175 1.282356 0
M  V30 25 C -2.187672 -5.969610 -0.123246 0
M  V30 26 C -0.839898 -6.360261 -0.631778 0
M  V30 27 C -0.438817 -6.817421 0.747247 0
M  V30 28 F 0.417749 -5.934861 1.404195 0
M  V30 29 F 0.051998 -8.108413 0.792530 0
M  V30 30 C -1.880716 -6.683375 1.176370 0
M  V30 31 C -1.756301 -1.322081 0.268278 0
M  V30 32 H -1.087762 1.187996 3.446889 0
M  V30 33 H 0.212053 0.193065 2.788918 0
M  V30 34 H -1.370104 -0.587875 3.049505 0
M  V30 35 H -1.811503 1.827761 1.413562 0
M  V30 36 H -0.069381 0.380986 -0.280668 0
M  V30 37 H 1.219456 4.015383 3.488415 0
M  V30 38 H 5.192786 4.472484 2.616809 0
M  V30 39 H 4.285839 5.944368 1.673163 0
M  V30 40 H 5.325191 2.830097 -1.592366 0
M  V30 41 H 3.740299 1.211985 -2.409268 0
M  V30 42 H 1.661569 0.785205 -1.211251 0
M  V30 43 H -3.974387 1.090514 1.086853 0
M  V30 44 H -5.544253 -0.502863 0.062706 0
M  V30 45 H -4.749654 -2.587993 -0.823463 0
M  V30 46 H -2.077111 -3.826293 -1.834631 0
M  V30 47 H -3.044114 -6.486355 -0.613126 0
M  V30 48 H -0.838605 -7.203985 -1.364104 0
M  V30 49 H -0.216649 -5.499739 -0.933639 0
M  V30 50 H -2.382251 -7.681598 1.291814 0
M  V30 51 H -1.959332 -6.041388 2.078586 0
M  V30 52 H -0.741008 -1.639277 0.275960 0
M  V30 END ATOM
M  V30 BEGIN BOND
M  V30 1 1 1 2
M  V30 2 1 2 3
M  V30 3 1 3 4
M  V30 4 2 4 5
M  V30 5 1 5 6
M  V30 6 2 6 7
M  V30 7 1 7 8
M  V30 8 2 8 9
M  V30 9 1 9 10
M  V30 10 1 10 11
M  V30 11 2 10 12
M  V30 12 1 9 13
M  V30 13 2 13 14
M  V30 14 1 14 15
M  V30 15 2 15 16
M  V30 16 1 2 17
M  V30 17 2 17 18
M  V30 18 1 18 19
M  V30 19 2 19 20
M  V30 20 1 20 21
M  V30 21 1 21 22
M  V30 22 1 22 23
M  V30 23 2 23 24
M  V30 24 1 23 25
M  V30 25 1 25 26
M  V30 26 1 26 27
M  V30 27 1 27 28
M  V30 28 1 27 29
M  V30 29 1 27 30
M  V30 30 2 21 31
M  V30 31 1 16 4
M  V30 32 1 31 17
M  V30 33 1 16 8
M  V30 34 1 30 25
M  V30 35 1 1 32
M  V30 36 1 1 33
M  V30 37 1 1 34
M  V30 38 1 2 35
M  V30 39 1 3 36
M  V30 40 1 6 37
M  V30 41 1 11 38
M  V30 42 1 11 39
M  V30 43 1 13 40
M  V30 44 1 14 41
M  V30 45 1 15 42
M  V30 46 1 18 43
M  V30 47 1 19 44
M  V30 48 1 20 45
M  V30 49 1 22 46
M  V30 50 1 25 47
M  V30 51 1 26 48
M  V30 52 1 26 49
M  V30 53 1 30 50
M  V30 54 1 30 51
M  V30 55 1 31 52
M  V30 END BOND
M  V30 END CTAB
M  END
>  <Dataset>  (862) 
ChEMBL_Kinases

>  <Ligand_Instance>  (862) 
nan

>  <PDB_ID>  (862) 
nan

>  <Standardized_SMILES>  (862) 
CC(Nc1ncnc2c(C(N)=O)cccc12)c1cccc(NC(=O)C2CC(F)(F)C2)c1

>  <Name>  (862) 
nan

>  <Pocket>  (862) 
nan

>  <ATP_Site>  (862) 
nan

>  <Peripheral>  (862) 
nan

>  <Num_H_Atoms_ProtBoundConf>  (862) 
nan

>  <Num_Resolved_Atoms>  (862) 
nan

>  <Num_Not_Resolved_Atoms>  (862) 
nan

$$$$
CHEMBL3680572
     RDKit          3D

  0  0  0  0  0  0  0  0  0  0999 V3000
M  V30 BEGIN CTAB
M  V30 COUNTS 49 52 0 0 0
M  V30 BEGIN ATOM
M  V30 1 C -2.696044 1.315140 -5.132910 0
M  V30 2 C -3.505928 1.447451 -3.895580 0
M  V30 3 C -3.923352 2.673212 -3.431827 0
M  V30 4 C -4.685802 2.756386 -2.262324 0
M  V30 5 N -4.976537 1.600009 -1.638216 0
M  V30 6 C -4.562179 0.385213 -2.098506 0
M  V30 7 N -5.043980 -0.632502 -1.199298 0
M  V30 8 C -4.218085 -0.979062 -0.095307 0
M  V30 9 C -4.612206 -1.862774 0.893965 0
M  V30 10 C -3.832341 -2.213438 1.975178 0
M  V30 11 C -2.554858 -1.650861 2.100635 0
M  V30 12 C -2.136328 -0.765744 1.126478 0
M  V30 13 C -0.802854 -0.121389 1.190864 0
M  V30 14 N 0.170066 -1.011649 0.545050 0
M  V30 15 C 1.512008 -0.534989 0.468294 0
M  V30 16 N 1.858570 0.663693 0.966860 0
M  V30 17 C 3.120962 1.142738 0.913159 0
M  V30 18 N 4.110107 0.431077 0.348077 0
M  V30 19 C 3.854564 -0.768051 -0.171455 0
M  V30 20 C 4.814056 -1.538521 -0.758292 0
M  V30 21 C 6.191337 -1.072683 -0.843160 0
M  V30 22 N 6.732833 0.152469 -0.373201 0
M  V30 23 O 7.132893 -1.721136 -1.368212 0
M  V30 24 C 4.575233 -2.782412 -1.303297 0
M  V30 25 C 3.270136 -3.259166 -1.239059 0
M  V30 26 C 2.306569 -2.472477 -0.643471 0
M  V30 27 C 2.552101 -1.229764 -0.100540 0
M  V30 28 C -2.959155 -0.454636 0.070888 0
M  V30 29 C -3.809638 0.271278 -3.248211 0
M  V30 30 H -2.238718 0.327000 -5.250681 0
M  V30 31 H -3.271639 1.650675 -6.042208 0
M  V30 32 H -1.832210 2.043549 -5.104402 0
M  V30 33 H -3.654439 3.579624 -3.983019 0
M  V30 34 H -5.002579 3.730895 -1.913773 0
M  V30 35 H -5.952516 -1.125666 -1.307781 0
M  V30 36 H -5.582940 -2.327162 0.852380 0
M  V30 37 H -4.134933 -2.896424 2.741162 0
M  V30 38 H -1.922153 -1.906799 2.937059 0
M  V30 39 H -0.835368 0.828081 0.625146 0
M  V30 40 H -0.442526 0.055048 2.220653 0
M  V30 41 H -0.165579 -1.925411 0.185126 0
M  V30 42 H 3.233058 2.121704 1.359234 0
M  V30 43 H 6.755735 1.187295 -0.411144 0
M  V30 44 H 6.681622 1.184260 -0.481326 0
M  V30 45 H 5.383348 -3.353511 -1.761146 0
M  V30 46 H 3.089876 -4.234771 -1.667984 0
M  V30 47 H 1.330424 -2.922841 -0.640113 0
M  V30 48 H -2.617220 0.241292 -0.685052 0
M  V30 49 H -3.555883 -0.740519 -3.488683 0
M  V30 END ATOM
M  V30 BEGIN BOND
M  V30 1 1 1 2
M  V30 2 2 2 3
M  V30 3 1 3 4
M  V30 4 2 4 5
M  V30 5 1 5 6
M  V30 6 1 6 7
M  V30 7 1 7 8
M  V30 8 2 8 9
M  V30 9 1 9 10
M  V30 10 2 10 11
M  V30 11 1 11 12
M  V30 12 1 12 13
M  V30 13 1 13 14
M  V30 14 1 14 15
M  V30 15 2 15 16
M  V30 16 1 16 17
M  V30 17 2 17 18
M  V30 18 1 18 19
M  V30 19 2 19 20
M  V30 20 1 20 21
M  V30 21 1 21 22
M  V30 22 2 21 23
M  V30 23 1 20 24
M  V30 24 2 24 25
M  V30 25 1 25 26
M  V30 26 2 26 27
M  V30 27 2 12 28
M  V30 28 2 6 29
M  V30 29 1 29 2
M  V30 30 1 28 8
M  V30 31 1 27 15
M  V30 32 1 27 19
M  V30 33 1 1 30
M  V30 34 1 1 31
M  V30 35 1 1 32
M  V30 36 1 3 33
M  V30 37 1 4 34
M  V30 38 1 7 35
M  V30 39 1 9 36
M  V30 40 1 10 37
M  V30 41 1 11 38
M  V30 42 1 13 39
M  V30 43 1 13 40
M  V30 44 1 14 41
M  V30 45 1 17 42
M  V30 46 1 22 43
M  V30 47 1 22 44
M  V30 48 1 24 45
M  V30 49 1 25 46
M  V30 50 1 26 47
M  V30 51 1 28 48
M  V30 52 1 29 49
M  V30 END BOND
M  V30 END CTAB
M  END
>  <Dataset>  (863) 
ChEMBL_Kinases

>  <Ligand_Instance>  (863) 
nan

>  <PDB_ID>  (863) 
nan

>  <Standardized_SMILES>  (863) 
Cc1ccnc(Nc2cccc(CNc3ncnc4c(C(N)=O)cccc34)c2)c1

>  <Name>  (863) 
nan

>  <Pocket>  (863) 
nan

>  <ATP_Site>  (863) 
nan

>  <Peripheral>  (863) 
nan

>  <Num_H_Atoms_ProtBoundConf>  (863) 
nan

>  <Num_Resolved_Atoms>  (863) 
nan

>  <Num_Not_Resolved_Atoms>  (863) 
nan

$$$$
CHEMBL520954
     RDKit          3D

  0  0  0  0  0  0  0  0  0  0999 V3000
M  V30 BEGIN CTAB
M  V30 COUNTS 44 46 0 0 0
M  V30 BEGIN ATOM
M  V30 1 C -1.022175 -5.283786 -1.420512 0
M  V30 2 N -0.274467 -4.022751 -1.302628 0
M  V30 3 C -0.412272 -3.599071 0.077874 0
M  V30 4 C -0.928835 -3.113479 -2.219867 0
M  V30 5 C -0.289204 -1.742596 -2.237251 0
M  V30 6 N 1.102491 -1.824624 -2.639294 0
M  V30 7 S 1.795236 -0.221559 -2.644047 0
M  V30 8 O 0.982206 0.630269 -3.561274 0
M  V30 9 O 3.188573 -0.249598 -3.148195 0
M  V30 10 C 1.696564 0.387192 -1.007070 0
M  V30 11 C 2.649443 0.241212 -0.021021 0
M  V30 12 C 2.448683 0.772517 1.237485 0
M  V30 13 C 1.281355 1.474806 1.562881 0
M  V30 14 C 1.233089 1.967894 2.933808 0
M  V30 15 C 2.332657 2.604611 3.518851 0
M  V30 16 C 2.294728 3.074671 4.815298 0
M  V30 17 N 1.182871 2.930585 5.561015 0
M  V30 18 C 0.103473 2.331372 5.055856 0
M  V30 19 N -1.111227 2.072405 5.599574 0
M  V30 20 C -1.878472 1.435317 4.676039 0
M  V30 21 C -1.096581 1.310942 3.547227 0
M  V30 22 C 0.137299 1.861994 3.765433 0
M  V30 23 C 0.344349 1.611033 0.571739 0
M  V30 24 C 0.550271 1.079434 -0.679934 0
M  V30 25 H -1.889242 -5.253756 -0.732984 0
M  V30 26 H -1.449526 -5.378325 -2.459226 0
M  V30 27 H -0.321623 -6.101151 -1.210617 0
M  V30 28 H 0.513544 -3.125190 0.483515 0
M  V30 29 H -1.293160 -2.921096 0.190206 0
M  V30 30 H -0.620963 -4.473112 0.726272 0
M  V30 31 H -0.885139 -3.564664 -3.225185 0
M  V30 32 H -1.975856 -3.057316 -1.926313 0
M  V30 33 H -0.844367 -1.164338 -3.017059 0
M  V30 34 H -0.450794 -1.196355 -1.291306 0
M  V30 35 H 1.652376 -2.350155 -1.924949 0
M  V30 36 H 3.535873 -0.306229 -0.309552 0
M  V30 37 H 3.289302 0.577980 1.914754 0
M  V30 38 H 3.254871 2.740439 2.943998 0
M  V30 39 H 3.193246 3.567026 5.218604 0
M  V30 40 H -1.490766 2.282161 6.547237 0
M  V30 41 H -2.898907 1.084147 4.775331 0
M  V30 42 H -1.450271 0.837752 2.641931 0
M  V30 43 H -0.533388 2.154434 0.860106 0
M  V30 44 H -0.247381 1.248140 -1.369166 0
M  V30 END ATOM
M  V30 BEGIN BOND
M  V30 1 1 1 2
M  V30 2 1 2 3
M  V30 3 1 2 4
M  V30 4 1 4 5
M  V30 5 1 5 6
M  V30 6 1 6 7
M  V30 7 2 7 8
M  V30 8 2 7 9
M  V30 9 1 7 10
M  V30 10 2 10 11
M  V30 11 1 11 12
M  V30 12 2 12 13
M  V30 13 1 13 14
M  V30 14 2 14 15
M  V30 15 1 15 16
M  V30 16 2 16 17
M  V30 17 1 17 18
M  V30 18 1 18 19
M  V30 19 1 19 20
M  V30 20 2 20 21
M  V30 21 1 21 22
M  V30 22 1 13 23
M  V30 23 2 23 24
M  V30 24 1 24 10
M  V30 25 1 22 14
M  V30 26 2 22 18
M  V30 27 1 1 25
M  V30 28 1 1 26
M  V30 29 1 1 27
M  V30 30 1 3 28
M  V30 31 1 3 29
M  V30 32 1 3 30
M  V30 33 1 4 31
M  V30 34 1 4 32
M  V30 35 1 5 33
M  V30 36 1 5 34
M  V30 37 1 6 35
M  V30 38 1 11 36
M  V30 39 1 12 37
M  V30 40 1 15 38
M  V30 41 1 16 39
M  V30 42 1 19 40
M  V30 43 1 20 41
M  V30 44 1 21 42
M  V30 45 1 23 43
M  V30 46 1 24 44
M  V30 END BOND
M  V30 END CTAB
M  END
>  <Dataset>  (864) 
ChEMBL_Kinases

>  <Ligand_Instance>  (864) 
nan

>  <PDB_ID>  (864) 
nan

>  <Standardized_SMILES>  (864) 
CN(C)CCNS(=O)(=O)c1ccc(-c2ccnc3[nH]ccc23)cc1

>  <Name>  (864) 
nan

>  <Pocket>  (864) 
nan

>  <ATP_Site>  (864) 
nan

>  <Peripheral>  (864) 
nan

>  <Num_H_Atoms_ProtBoundConf>  (864) 
nan

>  <Num_Resolved_Atoms>  (864) 
nan

>  <Num_Not_Resolved_Atoms>  (864) 
nan

$$$$
CHEMBL3680567
     RDKit          3D

  0  0  0  0  0  0  0  0  0  0999 V3000
M  V30 BEGIN CTAB
M  V30 COUNTS 57 60 0 0 0
M  V30 BEGIN ATOM
M  V30 1 C 7.434763 -4.728527 2.011097 0
M  V30 2 O 7.669953 -3.720871 1.032248 0
M  V30 3 C 6.672566 -2.751452 0.906762 0
M  V30 4 C 5.556084 -2.803869 1.693944 0
M  V30 5 C 4.534858 -1.853791 1.600266 0
M  V30 6 C 4.697464 -0.846362 0.670489 0
M  V30 7 C 3.612435 0.127803 0.599618 0
M  V30 8 O 2.620068 0.001775 1.362247 0
M  V30 9 N 3.552741 1.246848 -0.271079 0
M  V30 10 C 2.310347 1.941274 -0.009737 0
M  V30 11 C 2.293237 2.939072 0.945270 0
M  V30 12 C 1.098605 3.597159 1.188146 0
M  V30 13 C -0.047100 3.259280 0.488200 0
M  V30 14 C 0.027918 2.251825 -0.457158 0
M  V30 15 C -1.210522 1.901612 -1.198671 0
M  V30 16 N -1.961185 0.857589 -0.508490 0
M  V30 17 C -3.174925 0.411542 -1.097456 0
M  V30 18 N -3.616496 0.932054 -2.249075 0
M  V30 19 C -4.743211 0.572965 -2.871466 0
M  V30 20 N -5.532977 -0.395544 -2.323714 0
M  V30 21 C -5.165154 -0.979983 -1.157288 0
M  V30 22 C -5.926468 -1.967454 -0.555231 0
M  V30 23 C -7.154962 -2.358021 -1.235562 0
M  V30 24 N -8.034214 -3.355514 -0.735634 0
M  V30 25 O -7.515611 -1.830034 -2.318641 0
M  V30 26 C -5.571075 -2.563735 0.615269 0
M  V30 27 C -4.383267 -2.148360 1.220857 0
M  V30 28 C -3.959810 -2.785038 2.514249 0
M  V30 29 O -4.494680 -2.059627 3.575244 0
M  V30 30 C -3.638397 -1.164233 0.607098 0
M  V30 31 C -3.995471 -0.559451 -0.576692 0
M  V30 32 C 1.189207 1.560142 -0.743330 0
M  V30 33 C 5.801461 -0.742907 -0.150014 0
M  V30 34 C 6.771775 -1.723818 0.002741 0
M  V30 35 H 7.288541 -4.315135 3.030444 0
M  V30 36 H 8.348960 -5.361328 2.050578 0
M  V30 37 H 6.546254 -5.355668 1.727773 0
M  V30 38 H 5.415541 -3.589799 2.428388 0
M  V30 39 H 3.673853 -1.946708 2.250229 0
M  V30 40 H 4.368885 1.382237 -0.924037 0
M  V30 41 H 3.176551 3.215151 1.499986 0
M  V30 42 H 1.024379 4.388066 1.925328 0
M  V30 43 H -1.003597 3.767377 0.664724 0
M  V30 44 H -1.007056 1.601932 -2.236056 0
M  V30 45 H -1.887403 2.777917 -1.242347 0
M  V30 46 H -1.547651 0.512269 0.374574 0
M  V30 47 H -5.001064 1.066972 -3.804793 0
M  V30 48 H -7.920781 -3.906006 0.124141 0
M  V30 49 H -7.965406 -3.936165 0.121635 0
M  V30 50 H -6.178509 -3.336791 1.075210 0
M  V30 51 H -2.835849 -2.860082 2.580676 0
M  V30 52 H -4.366654 -3.799510 2.562539 0
M  V30 53 H -3.844184 -1.337253 3.773723 0
M  V30 54 H -2.741033 -0.900488 1.133354 0
M  V30 55 H 1.225477 0.772132 -1.490021 0
M  V30 56 H 5.911829 0.052458 -0.872109 0
M  V30 57 H 7.662972 -1.667678 -0.637356 0
M  V30 END ATOM
M  V30 BEGIN BOND
M  V30 1 1 1 2
M  V30 2 1 2 3
M  V30 3 2 3 4
M  V30 4 1 4 5
M  V30 5 2 5 6
M  V30 6 1 6 7
M  V30 7 2 7 8
M  V30 8 1 7 9
M  V30 9 1 9 10
M  V30 10 2 10 11
M  V30 11 1 11 12
M  V30 12 2 12 13
M  V30 13 1 13 14
M  V30 14 1 14 15
M  V30 15 1 15 16
M  V30 16 1 16 17
M  V30 17 2 17 18
M  V30 18 1 18 19
M  V30 19 2 19 20
M  V30 20 1 20 21
M  V30 21 2 21 22
M  V30 22 1 22 23
M  V30 23 1 23 24
M  V30 24 2 23 25
M  V30 25 1 22 26
M  V30 26 2 26 27
M  V30 27 1 27 28
M  V30 28 1 28 29
M  V30 29 1 27 30
M  V30 30 2 30 31
M  V30 31 2 14 32
M  V30 32 1 6 33
M  V30 33 2 33 34
M  V30 34 1 34 3
M  V30 35 1 32 10
M  V30 36 1 31 17
M  V30 37 1 31 21
M  V30 38 1 1 35
M  V30 39 1 1 36
M  V30 40 1 1 37
M  V30 41 1 4 38
M  V30 42 1 5 39
M  V30 43 1 9 40
M  V30 44 1 11 41
M  V30 45 1 12 42
M  V30 46 1 13 43
M  V30 47 1 15 44
M  V30 48 1 15 45
M  V30 49 1 16 46
M  V30 50 1 19 47
M  V30 51 1 24 48
M  V30 52 1 24 49
M  V30 53 1 26 50
M  V30 54 1 28 51
M  V30 55 1 28 52
M  V30 56 1 29 53
M  V30 57 1 30 54
M  V30 58 1 32 55
M  V30 59 1 33 56
M  V30 60 1 34 57
M  V30 END BOND
M  V30 END CTAB
M  END
>  <Dataset>  (865) 
ChEMBL_Kinases

>  <Ligand_Instance>  (865) 
nan

>  <PDB_ID>  (865) 
nan

>  <Standardized_SMILES>  (865) 
COc1ccc(C(=O)Nc2cccc(CNc3ncnc4c(C(N)=O)cc(CO)cc34)c2)cc1

>  <Name>  (865) 
nan

>  <Pocket>  (865) 
nan

>  <ATP_Site>  (865) 
nan

>  <Peripheral>  (865) 
nan

>  <Num_H_Atoms_ProtBoundConf>  (865) 
nan

>  <Num_Resolved_Atoms>  (865) 
nan

>  <Num_Not_Resolved_Atoms>  (865) 
nan

$$$$
CHEMBL3675355
     RDKit          3D

  0  0  0  0  0  0  0  0  0  0999 V3000
M  V30 BEGIN CTAB
M  V30 COUNTS 38 40 0 0 0
M  V30 BEGIN ATOM
M  V30 1 N -2.043414 -4.807221 2.488440 0
M  V30 2 C -0.818780 -5.355435 2.030844 0
M  V30 3 O -0.494569 -6.508655 2.359557 0
M  V30 4 C 0.039798 -4.523297 1.167434 0
M  V30 5 C 1.229311 -5.042976 0.719058 0
M  V30 6 C 2.013298 -4.249570 -0.085943 0
M  V30 7 C 1.591663 -2.977655 -0.414954 0
M  V30 8 C 0.407072 -2.420341 0.013776 0
M  V30 9 C 0.029252 -1.147892 -0.340489 0
M  V30 10 N 0.832190 -0.333353 -1.170152 0
M  V30 11 C 0.493494 1.013977 -1.579165 0
M  V30 12 C 0.370696 1.970759 -0.452347 0
M  V30 13 C -0.704473 2.392267 0.299679 0
M  V30 14 C -0.530419 3.305440 1.319290 0
M  V30 15 C 0.714798 3.824941 1.619562 0
M  V30 16 C 0.764843 4.809333 2.750843 0
M  V30 17 F -0.073008 5.861111 2.430984 0
M  V30 18 F 2.027137 5.268443 2.995415 0
M  V30 19 F 0.246042 4.259879 3.917232 0
M  V30 20 C 1.808079 3.419800 0.881636 0
M  V30 21 C 1.633333 2.498786 -0.146625 0
M  V30 22 N -1.146032 -0.784639 0.170274 0
M  V30 23 C -1.914175 -1.553999 0.955563 0
M  V30 24 N -1.533165 -2.798547 1.295339 0
M  V30 25 C -0.344245 -3.249512 0.816187 0
M  V30 26 H -2.816782 -4.301703 2.947388 0
M  V30 27 H -2.725304 -5.329399 1.860029 0
M  V30 28 H 1.438499 -6.047378 1.050317 0
M  V30 29 H 2.939248 -4.682562 -0.422616 0
M  V30 30 H 2.269754 -2.447576 -1.041536 0
M  V30 31 H 1.734330 -0.628896 -1.557606 0
M  V30 32 H -0.514243 0.887643 -2.093805 0
M  V30 33 H 1.134599 1.410013 -2.391515 0
M  V30 34 H -1.618248 1.924899 -0.031077 0
M  V30 35 H -1.436417 3.573278 1.851994 0
M  V30 36 H 2.745488 3.860228 1.164920 0
M  V30 37 H 2.585779 2.281578 -0.631978 0
M  V30 38 H -2.860711 -1.192902 1.336227 0
M  V30 END ATOM
M  V30 BEGIN BOND
M  V30 1 1 1 2
M  V30 2 2 2 3
M  V30 3 1 2 4
M  V30 4 2 4 5
M  V30 5 1 5 6
M  V30 6 2 6 7
M  V30 7 1 7 8
M  V30 8 2 8 9
M  V30 9 1 9 10
M  V30 10 1 10 11
M  V30 11 1 11 12
M  V30 12 2 12 13
M  V30 13 1 13 14
M  V30 14 2 14 15
M  V30 15 1 15 16
M  V30 16 1 16 17
M  V30 17 1 16 18
M  V30 18 1 16 19
M  V30 19 1 15 20
M  V30 20 2 20 21
M  V30 21 1 9 22
M  V30 22 2 22 23
M  V30 23 1 23 24
M  V30 24 2 24 25
M  V30 25 1 25 4
M  V30 26 1 25 8
M  V30 27 1 21 12
M  V30 28 1 1 26
M  V30 29 1 1 27
M  V30 30 1 5 28
M  V30 31 1 6 29
M  V30 32 1 7 30
M  V30 33 1 10 31
M  V30 34 1 11 32
M  V30 35 1 11 33
M  V30 36 1 13 34
M  V30 37 1 14 35
M  V30 38 1 20 36
M  V30 39 1 21 37
M  V30 40 1 23 38
M  V30 END BOND
M  V30 END CTAB
M  END
>  <Dataset>  (866) 
ChEMBL_Kinases

>  <Ligand_Instance>  (866) 
nan

>  <PDB_ID>  (866) 
nan

>  <Standardized_SMILES>  (866) 
NC(=O)c1cccc2c(NCc3ccc(C(F)(F)F)cc3)ncnc12

>  <Name>  (866) 
nan

>  <Pocket>  (866) 
nan

>  <ATP_Site>  (866) 
nan

>  <Peripheral>  (866) 
nan

>  <Num_H_Atoms_ProtBoundConf>  (866) 
nan

>  <Num_Resolved_Atoms>  (866) 
nan

>  <Num_Not_Resolved_Atoms>  (866) 
nan

$$$$
CHEMBL3680557
     RDKit          3D

  0  0  0  0  0  0  0  0  0  0999 V3000
M  V30 BEGIN CTAB
M  V30 COUNTS 65 69 0 0 0
M  V30 BEGIN ATOM
M  V30 1 C 4.687677 -3.286979 3.892924 0
M  V30 2 C 3.796471 -2.853073 2.775478 0
M  V30 3 C 3.380926 -1.517531 2.674997 0
M  V30 4 C 2.559047 -1.079955 1.657854 0
M  V30 5 C 2.195207 0.331769 1.659541 0
M  V30 6 O 2.653493 1.048267 2.584184 0
M  V30 7 N 1.357055 0.835936 0.642392 0
M  V30 8 C 0.833082 2.128226 0.369005 0
M  V30 9 C 1.553675 2.980830 -0.426523 0
M  V30 10 C 1.032794 4.231630 -0.684847 0
M  V30 11 C -0.175392 4.557482 -0.134691 0
M  V30 12 C -0.940326 3.725646 0.676856 0
M  V30 13 C -2.220812 4.276841 1.179995 0
M  V30 14 N -3.330482 4.101283 0.272309 0
M  V30 15 C -3.849894 2.864567 -0.177943 0
M  V30 16 N -3.364079 1.678742 0.197736 0
M  V30 17 C -3.819256 0.489509 -0.195400 0
M  V30 18 N -4.870754 0.432132 -1.055349 0
M  V30 19 C -5.421311 1.583242 -1.484527 0
M  V30 20 C -6.484001 1.506810 -2.354404 0
M  V30 21 C -6.995200 0.209535 -2.794794 0
M  V30 22 N -6.411747 -1.000663 -2.337975 0
M  V30 23 O -7.959929 0.097995 -3.586148 0
M  V30 24 C -7.099091 2.641132 -2.837209 0
M  V30 25 C -6.597063 3.862830 -2.405323 0
M  V30 26 C -5.534457 3.891655 -1.536275 0
M  V30 27 C -4.904487 2.773426 -1.041074 0
M  V30 28 C -0.386419 2.484384 0.912383 0
M  V30 29 C 2.148576 -2.007918 0.724235 0
M  V30 30 C 2.562396 -3.317525 0.831914 0
M  V30 31 C 3.384340 -3.780095 1.839771 0
M  V30 32 N 3.771621 -5.151120 1.886561 0
M  V30 33 C 5.042354 -5.813188 1.844321 0
M  V30 34 C 5.149512 -6.901469 0.809867 0
M  V30 35 O 4.030924 -7.724025 0.768132 0
M  V30 36 C 2.847969 -6.990753 0.700124 0
M  V30 37 C 2.754125 -6.200601 2.001247 0
M  V30 38 H 4.566905 -4.342109 4.130772 0
M  V30 39 H 5.765337 -3.111015 3.652187 0
M  V30 40 H 4.379595 -2.728938 4.822006 0
M  V30 41 H 3.767917 -0.864510 3.473138 0
M  V30 42 H 0.954124 0.280199 -0.142521 0
M  V30 43 H 2.506616 2.657778 -0.831232 0
M  V30 44 H 1.592886 4.908366 -1.309084 0
M  V30 45 H -0.530272 5.550472 -0.373491 0
M  V30 46 H -2.456608 3.763953 2.165539 0
M  V30 47 H -2.016517 5.335479 1.428825 0
M  V30 48 H -3.727786 5.009889 -0.031932 0
M  V30 49 H -3.273457 -0.345098 0.235397 0
M  V30 50 H -6.605247 -1.856430 -1.771864 0
M  V30 51 H -5.459459 -1.380674 -2.502790 0
M  V30 52 H -7.926373 2.538083 -3.515431 0
M  V30 53 H -7.102296 4.730142 -2.803070 0
M  V30 54 H -5.232630 4.876345 -1.271797 0
M  V30 55 H -0.966230 1.830027 1.547713 0
M  V30 56 H 1.505120 -1.670842 -0.074274 0
M  V30 57 H 2.187889 -3.966612 0.053280 0
M  V30 58 H 5.903823 -5.125939 1.682984 0
M  V30 59 H 5.192425 -6.279989 2.860044 0
M  V30 60 H 5.425996 -6.477300 -0.176078 0
M  V30 61 H 6.005496 -7.554344 1.115692 0
M  V30 62 H 2.014445 -7.677627 0.538444 0
M  V30 63 H 2.855335 -6.261923 -0.131477 0
M  V30 64 H 1.740174 -5.726049 2.094745 0
M  V30 65 H 2.875181 -6.828115 2.889720 0
M  V30 END ATOM
M  V30 BEGIN BOND
M  V30 1 1 1 2
M  V30 2 2 2 3
M  V30 3 1 3 4
M  V30 4 1 4 5
M  V30 5 2 5 6
M  V30 6 1 5 7
M  V30 7 1 7 8
M  V30 8 2 8 9
M  V30 9 1 9 10
M  V30 10 2 10 11
M  V30 11 1 11 12
M  V30 12 1 12 13
M  V30 13 1 13 14
M  V30 14 1 14 15
M  V30 15 2 15 16
M  V30 16 1 16 17
M  V30 17 2 17 18
M  V30 18 1 18 19
M  V30 19 2 19 20
M  V30 20 1 20 21
M  V30 21 1 21 22
M  V30 22 2 21 23
M  V30 23 1 20 24
M  V30 24 2 24 25
M  V30 25 1 25 26
M  V30 26 2 26 27
M  V30 27 2 12 28
M  V30 28 2 4 29
M  V30 29 1 29 30
M  V30 30 2 30 31
M  V30 31 1 31 32
M  V30 32 1 32 33
M  V30 33 1 33 34
M  V30 34 1 34 35
M  V30 35 1 35 36
M  V30 36 1 36 37
M  V30 37 1 31 2
M  V30 38 1 37 32
M  V30 39 1 28 8
M  V30 40 1 27 15
M  V30 41 1 27 19
M  V30 42 1 1 38
M  V30 43 1 1 39
M  V30 44 1 1 40
M  V30 45 1 3 41
M  V30 46 1 7 42
M  V30 47 1 9 43
M  V30 48 1 10 44
M  V30 49 1 11 45
M  V30 50 1 13 46
M  V30 51 1 13 47
M  V30 52 1 14 48
M  V30 53 1 17 49
M  V30 54 1 22 50
M  V30 55 1 22 51
M  V30 56 1 24 52
M  V30 57 1 25 53
M  V30 58 1 26 54
M  V30 59 1 28 55
M  V30 60 1 29 56
M  V30 61 1 30 57
M  V30 62 1 33 58
M  V30 63 1 33 59
M  V30 64 1 34 60
M  V30 65 1 34 61
M  V30 66 1 36 62
M  V30 67 1 36 63
M  V30 68 1 37 64
M  V30 69 1 37 65
M  V30 END BOND
M  V30 END CTAB
M  END
>  <Dataset>  (867) 
ChEMBL_Kinases

>  <Ligand_Instance>  (867) 
nan

>  <PDB_ID>  (867) 
nan

>  <Standardized_SMILES>  (867) 
Cc1cc(C(=O)Nc2cccc(CNc3ncnc4c(C(N)=O)cccc34)c2)ccc1N1CCOCC1

>  <Name>  (867) 
nan

>  <Pocket>  (867) 
nan

>  <ATP_Site>  (867) 
nan

>  <Peripheral>  (867) 
nan

>  <Num_H_Atoms_ProtBoundConf>  (867) 
nan

>  <Num_Resolved_Atoms>  (867) 
nan

>  <Num_Not_Resolved_Atoms>  (867) 
nan

$$$$
CHEMBL3680551
     RDKit          3D

  0  0  0  0  0  0  0  0  0  0999 V3000
M  V30 BEGIN CTAB
M  V30 COUNTS 48 51 0 0 0
M  V30 BEGIN ATOM
M  V30 1 N 0.876553 -5.092175 5.012883 0
M  V30 2 C 2.011904 -5.632852 4.278591 0
M  V30 3 C 2.677169 -4.585793 3.440795 0
M  V30 4 C 3.692816 -3.711921 3.706768 0
M  V30 5 N 4.055744 -2.894895 2.721097 0
M  V30 6 C 3.605801 -2.837895 1.652395 0
M  V30 7 N 3.957643 -1.974975 0.544504 0
M  V30 8 C 3.405584 -0.680608 0.254987 0
M  V30 9 C 3.857225 0.005888 -0.856320 0
M  V30 10 C 3.313300 1.239559 -1.108230 0
M  V30 11 C 2.348556 1.810868 -0.307087 0
M  V30 12 C 1.892697 1.136724 0.799586 0
M  V30 13 C 0.862505 1.528651 1.805257 0
M  V30 14 N -0.457089 1.028803 1.471681 0
M  V30 15 C -1.186865 1.354296 0.321147 0
M  V30 16 N -0.794085 2.174392 -0.648929 0
M  V30 17 C -1.482523 2.494170 -1.749655 0
M  V30 18 N -2.685278 1.984662 -1.970015 0
M  V30 19 C -3.179516 1.134397 -1.039025 0
M  V30 20 C -4.430554 0.604198 -1.268312 0
M  V30 21 C -5.170245 0.974881 -2.493886 0
M  V30 22 N -4.575675 1.876891 -3.419683 0
M  V30 23 O -6.325048 0.483073 -2.702584 0
M  V30 24 C -5.012189 -0.269913 -0.374609 0
M  V30 25 C -4.300423 -0.598483 0.760229 0
M  V30 26 C -3.053205 -0.040903 0.942577 0
M  V30 27 C -2.432189 0.835334 0.079328 0
M  V30 28 C 2.437476 -0.114841 1.064473 0
M  V30 29 S 2.254247 -4.203265 1.731939 0
M  V30 30 H 1.233885 -4.247672 5.544375 0
M  V30 31 H 0.232084 -4.712379 4.283391 0
M  V30 32 H 2.716107 -6.144868 4.927124 0
M  V30 33 H 1.582150 -6.403402 3.603963 0
M  V30 34 H 4.118762 -3.767078 4.721430 0
M  V30 35 H 4.678197 -2.379672 -0.061371 0
M  V30 36 H 4.615622 -0.395158 -1.523187 0
M  V30 37 H 3.644674 1.802146 -1.968954 0
M  V30 38 H 1.895750 2.765634 -0.449790 0
M  V30 39 H 1.210217 1.280099 2.808579 0
M  V30 40 H 0.762745 2.641275 1.784379 0
M  V30 41 H -0.796525 0.394151 2.196454 0
M  V30 42 H -1.092990 3.178704 -2.506507 0
M  V30 43 H -4.499068 2.916606 -3.621322 0
M  V30 44 H -4.562608 2.914455 -3.530709 0
M  V30 45 H -5.984638 -0.656519 -0.593394 0
M  V30 46 H -4.753694 -1.281685 1.459892 0
M  V30 47 H -2.575210 -0.356265 1.855657 0
M  V30 48 H 2.154226 -0.743851 1.914816 0
M  V30 END ATOM
M  V30 BEGIN BOND
M  V30 1 1 1 2
M  V30 2 1 2 3
M  V30 3 2 3 4
M  V30 4 1 4 5
M  V30 5 2 5 6
M  V30 6 1 6 7
M  V30 7 1 7 8
M  V30 8 2 8 9
M  V30 9 1 9 10
M  V30 10 2 10 11
M  V30 11 1 11 12
M  V30 12 1 12 13
M  V30 13 1 13 14
M  V30 14 1 14 15
M  V30 15 2 15 16
M  V30 16 1 16 17
M  V30 17 2 17 18
M  V30 18 1 18 19
M  V30 19 2 19 20
M  V30 20 1 20 21
M  V30 21 1 21 22
M  V30 22 2 21 23
M  V30 23 1 20 24
M  V30 24 2 24 25
M  V30 25 1 25 26
M  V30 26 2 26 27
M  V30 27 2 12 28
M  V30 28 1 6 29
M  V30 29 1 29 3
M  V30 30 1 28 8
M  V30 31 1 27 15
M  V30 32 1 27 19
M  V30 33 1 1 30
M  V30 34 1 1 31
M  V30 35 1 2 32
M  V30 36 1 2 33
M  V30 37 1 4 34
M  V30 38 1 7 35
M  V30 39 1 9 36
M  V30 40 1 10 37
M  V30 41 1 11 38
M  V30 42 1 13 39
M  V30 43 1 13 40
M  V30 44 1 14 41
M  V30 45 1 17 42
M  V30 46 1 22 43
M  V30 47 1 22 44
M  V30 48 1 24 45
M  V30 49 1 25 46
M  V30 50 1 26 47
M  V30 51 1 28 48
M  V30 END BOND
M  V30 END CTAB
M  END
>  <Dataset>  (868) 
ChEMBL_Kinases

>  <Ligand_Instance>  (868) 
nan

>  <PDB_ID>  (868) 
nan

>  <Standardized_SMILES>  (868) 
NCc1cnc(Nc2cccc(CNc3ncnc4c(C(N)=O)cccc34)c2)s1

>  <Name>  (868) 
nan

>  <Pocket>  (868) 
nan

>  <ATP_Site>  (868) 
nan

>  <Peripheral>  (868) 
nan

>  <Num_H_Atoms_ProtBoundConf>  (868) 
nan

>  <Num_Resolved_Atoms>  (868) 
nan

>  <Num_Not_Resolved_Atoms>  (868) 
nan

$$$$
CHEMBL3680550
     RDKit          3D

  0  0  0  0  0  0  0  0  0  0999 V3000
M  V30 BEGIN CTAB
M  V30 COUNTS 63 66 0 0 0
M  V30 BEGIN ATOM
M  V30 1 C 3.703501 -0.790856 5.200050 0
M  V30 2 O 3.541523 -1.727993 4.213113 0
M  V30 3 C 2.549126 -1.470105 3.291877 0
M  V30 4 C 2.833028 -0.179440 2.592877 0
M  V30 5 C 1.788085 0.139803 1.542182 0 CFG=1
M  V30 6 N 2.067853 1.383201 0.872668 0
M  V30 7 C 1.417231 1.806173 -0.315685 0
M  V30 8 N 0.469822 0.944373 -0.802029 0
M  V30 9 C -0.228562 1.236577 -1.938691 0
M  V30 10 N 0.005527 2.393756 -2.609530 0
M  V30 11 C 0.933590 3.261099 -2.154724 0
M  V30 12 C 1.172140 4.425111 -2.838424 0
M  V30 13 C 0.506549 4.830790 -4.036307 0
M  V30 14 N 0.699108 5.975429 -4.821297 0
M  V30 15 O -0.382438 3.962085 -4.371751 0
M  V30 16 C 2.124892 5.279845 -2.349404 0
M  V30 17 C 2.852227 5.001735 -1.185706 0
M  V30 18 C 2.588985 3.821526 -0.519537 0
M  V30 19 C 1.639912 2.969805 -1.006710 0
M  V30 20 C 1.542082 -0.981208 0.605353 0
M  V30 21 C 2.298836 -1.310285 -0.492656 0
M  V30 22 C 1.984570 -2.374397 -1.305518 0
M  V30 23 C 0.894956 -3.182274 -1.083334 0
M  V30 24 C 0.073676 -2.913750 0.011318 0
M  V30 25 N -1.086470 -3.566861 0.470738 0
M  V30 26 C -1.574259 -4.565318 1.328297 0
M  V30 27 O -0.804369 -5.252242 2.047241 0
M  V30 28 C -3.017248 -4.746003 1.332561 0
M  V30 29 C -3.926472 -4.237412 0.433810 0
M  V30 30 C -5.291351 -4.396463 0.499127 0
M  V30 31 C -5.825713 -5.131181 1.551676 0
M  V30 32 O -7.192787 -5.316041 1.655879 0
M  V30 33 C -8.109695 -4.781379 0.720182 0
M  V30 34 C -4.956279 -5.661199 2.476617 0
M  V30 35 C -3.577448 -5.476748 2.375347 0
M  V30 36 C 0.442414 -1.818188 0.804709 0
M  V30 37 H 2.751840 -0.683523 5.772847 0
M  V30 38 H 4.111507 0.169917 4.884703 0
M  V30 39 H 4.423514 -1.184501 5.984551 0
M  V30 40 H 1.553109 -1.479770 3.786100 0
M  V30 41 H 2.623227 -2.278781 2.511445 0
M  V30 42 H 3.847811 -0.249850 2.120820 0
M  V30 43 H 2.902435 0.626668 3.345250 0
M  V30 44 H 0.850567 0.337304 2.158688 0
M  V30 45 H 2.789449 1.945964 1.338854 0
M  V30 46 H -0.972567 0.547055 -2.311204 0
M  V30 47 H 0.289240 6.860553 -4.434055 0
M  V30 48 H 0.259225 6.800424 -4.357797 0
M  V30 49 H 2.364076 6.228757 -2.845858 0
M  V30 50 H 3.598166 5.720501 -0.851579 0
M  V30 51 H 3.159370 3.629667 0.370282 0
M  V30 52 H 3.159573 -0.700255 -0.693922 0
M  V30 53 H 2.580124 -2.634795 -2.174428 0
M  V30 54 H 0.551111 -4.033363 -1.643849 0
M  V30 55 H -1.720010 -2.984437 -0.140362 0
M  V30 56 H -3.547775 -3.674585 -0.391557 0
M  V30 57 H -5.916466 -3.952304 -0.259811 0
M  V30 58 H -7.822868 -3.699748 0.592784 0
M  V30 59 H -9.114914 -4.812113 1.201855 0
M  V30 60 H -8.087912 -5.286856 -0.260405 0
M  V30 61 H -5.381056 -6.240418 3.310796 0
M  V30 62 H -2.902098 -5.906786 3.121332 0
M  V30 63 H -0.160686 -1.549258 1.690492 0
M  V30 END ATOM
M  V30 BEGIN BOND
M  V30 1 1 1 2
M  V30 2 1 2 3
M  V30 3 1 3 4
M  V30 4 1 4 5
M  V30 5 1 5 6
M  V30 6 1 6 7
M  V30 7 2 7 8
M  V30 8 1 8 9
M  V30 9 2 9 10
M  V30 10 1 10 11
M  V30 11 2 11 12
M  V30 12 1 12 13
M  V30 13 1 13 14
M  V30 14 2 13 15
M  V30 15 1 12 16
M  V30 16 2 16 17
M  V30 17 1 17 18
M  V30 18 2 18 19
M  V30 19 1 5 20
M  V30 20 2 20 21
M  V30 21 1 21 22
M  V30 22 2 22 23
M  V30 23 1 23 24
M  V30 24 1 24 25
M  V30 25 1 25 26
M  V30 26 2 26 27
M  V30 27 1 26 28
M  V30 28 2 28 29
M  V30 29 1 29 30
M  V30 30 2 30 31
M  V30 31 1 31 32
M  V30 32 1 32 33
M  V30 33 1 31 34
M  V30 34 2 34 35
M  V30 35 2 24 36
M  V30 36 1 19 7
M  V30 37 1 36 20
M  V30 38 1 19 11
M  V30 39 1 35 28
M  V30 40 1 1 37
M  V30 41 1 1 38
M  V30 42 1 1 39
M  V30 43 1 3 40
M  V30 44 1 3 41
M  V30 45 1 4 42
M  V30 46 1 4 43
M  V30 47 1 5 44 CFG=1
M  V30 48 1 6 45
M  V30 49 1 9 46
M  V30 50 1 14 47
M  V30 51 1 14 48
M  V30 52 1 16 49
M  V30 53 1 17 50
M  V30 54 1 18 51
M  V30 55 1 21 52
M  V30 56 1 22 53
M  V30 57 1 23 54
M  V30 58 1 25 55
M  V30 59 1 29 56
M  V30 60 1 30 57
M  V30 61 1 33 58
M  V30 62 1 33 59
M  V30 63 1 33 60
M  V30 64 1 34 61
M  V30 65 1 35 62
M  V30 66 1 36 63
M  V30 END BOND
M  V30 END CTAB
M  END
>  <Dataset>  (869) 
ChEMBL_Kinases

>  <Ligand_Instance>  (869) 
nan

>  <PDB_ID>  (869) 
nan

>  <Standardized_SMILES>  (869) 
COCC[C@@H](Nc1ncnc2c(C(N)=O)cccc12)c1cccc(NC(=O)c2ccc(OC)cc2)c1

>  <Name>  (869) 
nan

>  <Pocket>  (869) 
nan

>  <ATP_Site>  (869) 
nan

>  <Peripheral>  (869) 
nan

>  <Num_H_Atoms_ProtBoundConf>  (869) 
nan

>  <Num_Resolved_Atoms>  (869) 
nan

>  <Num_Not_Resolved_Atoms>  (869) 
nan

$$$$
CHEMBL3680387
     RDKit          3D

  0  0  0  0  0  0  0  0  0  0999 V3000
M  V30 BEGIN CTAB
M  V30 COUNTS 60 63 0 0 0
M  V30 BEGIN ATOM
M  V30 1 C 6.540981 -0.436527 4.768236 0
M  V30 2 N 6.615843 0.530795 3.661547 0
M  V30 3 C 7.923934 1.086863 3.458200 0
M  V30 4 C 8.052416 2.038675 2.316098 0
M  V30 5 O 7.747276 1.489105 1.078006 0
M  V30 6 C 5.361258 0.766578 2.982071 0
M  V30 7 C 4.276049 0.052620 3.411877 0
M  V30 8 C 3.066268 0.323952 2.747737 0
M  V30 9 C 2.944192 1.244330 1.723241 0
M  V30 10 C 1.674974 1.529079 1.068734 0
M  V30 11 O 1.707918 2.345600 0.079699 0
M  V30 12 N 0.447660 0.969648 1.459013 0
M  V30 13 C -0.797649 1.282660 0.790495 0
M  V30 14 C -1.387733 2.391634 1.337014 0
M  V30 15 C -2.602602 2.758805 0.738237 0
M  V30 16 C -3.085871 1.991042 -0.322475 0
M  V30 17 C -2.390269 0.871117 -0.796406 0
M  V30 18 C -3.085877 0.216365 -1.942706 0
M  V30 19 N -4.088613 -0.724282 -1.639728 0
M  V30 20 C -5.089508 -1.637642 -1.328590 0
M  V30 21 N -6.197484 -1.540738 -0.572823 0
M  V30 22 C -6.988642 -2.592750 -0.428716 0
M  V30 23 N -6.757487 -3.782752 -1.000006 0
M  V30 24 C -5.672170 -3.958464 -1.769512 0
M  V30 25 C -5.497817 -5.189579 -2.327414 0
M  V30 26 C -6.455971 -6.248918 -2.072318 0
M  V30 27 N -6.294860 -7.540807 -2.630777 0
M  V30 28 O -7.515938 -6.507099 -1.469511 0
M  V30 29 C -4.427349 -5.439865 -3.124659 0
M  V30 30 C -3.554658 -4.399697 -3.327158 0
M  V30 31 C -3.752193 -3.167174 -2.753103 0
M  V30 32 C -4.844482 -2.875978 -1.926323 0
M  V30 33 C -1.191794 0.470853 -0.238839 0
M  V30 34 C 4.113033 1.925254 1.351877 0
M  V30 35 N 5.288535 1.667139 1.991777 0
M  V30 36 H 5.717001 -0.094799 5.467915 0
M  V30 37 H 7.470523 -0.551849 5.316798 0
M  V30 38 H 6.213647 -1.392022 4.297459 0
M  V30 39 H 8.331776 1.552932 4.389203 0
M  V30 40 H 8.629753 0.239734 3.252811 0
M  V30 41 H 7.342240 2.890873 2.484183 0
M  V30 42 H 9.073858 2.507022 2.280199 0
M  V30 43 H 7.697779 0.513174 1.158622 0
M  V30 44 H 4.252535 -0.692388 4.200124 0
M  V30 45 H 2.184797 -0.241524 3.082816 0
M  V30 46 H 0.405142 0.299490 2.258370 0
M  V30 47 H -0.989641 2.965801 2.157072 0
M  V30 48 H -3.138719 3.611746 1.093980 0
M  V30 49 H -4.041155 2.338140 -0.741452 0
M  V30 50 H -3.384234 1.030243 -2.648544 0
M  V30 51 H -2.231043 -0.279481 -2.519739 0
M  V30 52 H -4.521286 0.103602 -1.103908 0
M  V30 53 H -7.865962 -2.431409 0.202896 0
M  V30 54 H -6.771701 -8.028518 -3.435161 0
M  V30 55 H -5.860756 -8.467883 -2.680544 0
M  V30 56 H -4.320376 -6.419410 -3.550386 0
M  V30 57 H -2.694712 -4.577731 -3.962994 0
M  V30 58 H -3.040683 -2.413511 -2.955859 0
M  V30 59 H -0.695391 -0.384341 -0.627570 0
M  V30 60 H 4.111914 2.667300 0.555783 0
M  V30 END ATOM
M  V30 BEGIN BOND
M  V30 1 1 1 2
M  V30 2 1 2 3
M  V30 3 1 3 4
M  V30 4 1 4 5
M  V30 5 1 2 6
M  V30 6 2 6 7
M  V30 7 1 7 8
M  V30 8 2 8 9
M  V30 9 1 9 10
M  V30 10 2 10 11
M  V30 11 1 10 12
M  V30 12 1 12 13
M  V30 13 2 13 14
M  V30 14 1 14 15
M  V30 15 2 15 16
M  V30 16 1 16 17
M  V30 17 1 17 18
M  V30 18 1 18 19
M  V30 19 1 19 20
M  V30 20 2 20 21
M  V30 21 1 21 22
M  V30 22 2 22 23
M  V30 23 1 23 24
M  V30 24 2 24 25
M  V30 25 1 25 26
M  V30 26 1 26 27
M  V30 27 2 26 28
M  V30 28 1 25 29
M  V30 29 2 29 30
M  V30 30 1 30 31
M  V30 31 2 31 32
M  V30 32 2 17 33
M  V30 33 1 9 34
M  V30 34 2 34 35
M  V30 35 1 35 6
M  V30 36 1 33 13
M  V30 37 1 32 20
M  V30 38 1 32 24
M  V30 39 1 1 36
M  V30 40 1 1 37
M  V30 41 1 1 38
M  V30 42 1 3 39
M  V30 43 1 3 40
M  V30 44 1 4 41
M  V30 45 1 4 42
M  V30 46 1 5 43
M  V30 47 1 7 44
M  V30 48 1 8 45
M  V30 49 1 12 46
M  V30 50 1 14 47
M  V30 51 1 15 48
M  V30 52 1 16 49
M  V30 53 1 18 50
M  V30 54 1 18 51
M  V30 55 1 19 52
M  V30 56 1 22 53
M  V30 57 1 27 54
M  V30 58 1 27 55
M  V30 59 1 29 56
M  V30 60 1 30 57
M  V30 61 1 31 58
M  V30 62 1 33 59
M  V30 63 1 34 60
M  V30 END BOND
M  V30 END CTAB
M  END
>  <Dataset>  (870) 
ChEMBL_Kinases

>  <Ligand_Instance>  (870) 
nan

>  <PDB_ID>  (870) 
nan

>  <Standardized_SMILES>  (870) 
CN(CCO)c1ccc(C(=O)Nc2cccc(CNc3ncnc4c(C(N)=O)cccc34)c2)cn1

>  <Name>  (870) 
nan

>  <Pocket>  (870) 
nan

>  <ATP_Site>  (870) 
nan

>  <Peripheral>  (870) 
nan

>  <Num_H_Atoms_ProtBoundConf>  (870) 
nan

>  <Num_Resolved_Atoms>  (870) 
nan

>  <Num_Not_Resolved_Atoms>  (870) 
nan

$$$$
CHEMBL3680539
     RDKit          3D

  0  0  0  0  0  0  0  0  0  0999 V3000
M  V30 BEGIN CTAB
M  V30 COUNTS 58 61 0 0 0
M  V30 BEGIN ATOM
M  V30 1 C 6.373015 -0.862467 6.545127 0
M  V30 2 O 4.984701 -0.601667 6.529861 0
M  V30 3 C 4.384304 -0.156847 5.381800 0
M  V30 4 C 5.008304 0.082375 4.164153 0
M  V30 5 C 4.305162 0.534891 3.052999 0
M  V30 6 C 2.970486 0.762567 3.114807 0
M  V30 7 C 2.164634 1.235493 1.994731 0
M  V30 8 O 0.906855 1.449641 2.045463 0
M  V30 9 N 2.690515 1.513341 0.711810 0
M  V30 10 C 1.704466 1.960406 -0.213115 0
M  V30 11 C 1.703737 3.112118 -0.837012 0
M  V30 12 C 0.682823 3.546900 -1.779503 0
M  V30 13 C -0.432573 2.609788 -2.057079 0
M  V30 14 C -0.401278 1.322206 -1.338561 0
M  V30 15 C -1.585066 0.537189 -1.738384 0 CFG=2
M  V30 16 C -2.859137 1.229211 -1.306074 0
M  V30 17 N -1.476904 -0.808939 -1.235100 0
M  V30 18 C -2.567566 -1.669197 -1.634637 0
M  V30 19 N -3.580461 -1.251350 -2.415392 0
M  V30 20 C -4.567144 -2.079386 -2.771091 0
M  V30 21 N -4.640329 -3.368126 -2.395407 0
M  V30 22 C -3.645388 -3.858061 -1.602748 0
M  V30 23 C -3.727044 -5.172101 -1.224053 0
M  V30 24 C -4.848042 -5.982430 -1.668824 0
M  V30 25 N -5.871152 -5.407803 -2.487934 0
M  V30 26 O -4.991445 -7.193113 -1.377927 0
M  V30 27 C -2.742073 -5.695022 -0.425896 0
M  V30 28 C -1.724976 -4.868902 -0.049844 0
M  V30 29 C -1.676512 -3.549998 -0.451806 0
M  V30 30 C -2.639522 -2.984962 -1.249374 0
M  V30 31 C 0.591628 1.075053 -0.510966 0
M  V30 32 C 2.290993 0.540487 4.309047 0
M  V30 33 C 3.026989 0.094052 5.378080 0
M  V30 34 F 2.338861 -0.116115 6.542203 0
M  V30 35 H 6.879917 0.117430 6.738989 0
M  V30 36 H 6.774761 -1.276382 5.618414 0
M  V30 37 H 6.630517 -1.608877 7.341046 0
M  V30 38 H 6.069752 -0.098330 4.114153 0
M  V30 39 H 4.832484 0.707625 2.123928 0
M  V30 40 H 3.723404 1.378354 0.537554 0
M  V30 41 H 2.511463 3.790903 -0.645838 0
M  V30 42 H 1.167856 3.813194 -2.767080 0
M  V30 43 H 0.318419 4.551015 -1.411391 0
M  V30 44 H -1.374768 3.128724 -1.788991 0
M  V30 45 H -0.549156 2.420594 -3.170888 0
M  V30 46 H -1.591535 0.419437 -2.861676 0
M  V30 47 H -2.604049 2.059884 -0.632324 0
M  V30 48 H -3.526339 0.482948 -0.824249 0
M  V30 49 H -3.353622 1.623669 -2.207036 0
M  V30 50 H -0.720154 -1.185281 -0.645740 0
M  V30 51 H -5.360985 -1.668866 -3.409653 0
M  V30 52 H -5.529128 -5.298573 -3.487188 0
M  V30 53 H -5.906397 -5.152892 -3.498987 0
M  V30 54 H -2.772775 -6.729204 -0.105957 0
M  V30 55 H -0.962066 -5.312403 0.582452 0
M  V30 56 H -0.835476 -3.017070 -0.091787 0
M  V30 57 H 0.551679 0.124983 -0.017892 0
M  V30 58 H 1.219945 0.712029 4.398051 0
M  V30 END ATOM
M  V30 BEGIN BOND
M  V30 1 1 1 2
M  V30 2 1 2 3
M  V30 3 2 3 4
M  V30 4 1 4 5
M  V30 5 2 5 6
M  V30 6 1 6 7
M  V30 7 2 7 8
M  V30 8 1 7 9
M  V30 9 1 9 10
M  V30 10 2 10 11
M  V30 11 1 11 12
M  V30 12 1 12 13
M  V30 13 1 13 14
M  V30 14 1 14 15
M  V30 15 1 15 16
M  V30 16 1 15 17
M  V30 17 1 17 18
M  V30 18 2 18 19
M  V30 19 1 19 20
M  V30 20 2 20 21
M  V30 21 1 21 22
M  V30 22 2 22 23
M  V30 23 1 23 24
M  V30 24 1 24 25
M  V30 25 2 24 26
M  V30 26 1 23 27
M  V30 27 2 27 28
M  V30 28 1 28 29
M  V30 29 2 29 30
M  V30 30 2 14 31
M  V30 31 1 6 32
M  V30 32 2 32 33
M  V30 33 1 33 34
M  V30 34 1 33 3
M  V30 35 1 31 10
M  V30 36 1 30 18
M  V30 37 1 30 22
M  V30 38 1 1 35
M  V30 39 1 1 36
M  V30 40 1 1 37
M  V30 41 1 4 38
M  V30 42 1 5 39
M  V30 43 1 9 40
M  V30 44 1 11 41
M  V30 45 1 12 42
M  V30 46 1 12 43
M  V30 47 1 13 44
M  V30 48 1 13 45
M  V30 49 1 15 46 CFG=3
M  V30 50 1 16 47
M  V30 51 1 16 48
M  V30 52 1 16 49
M  V30 53 1 17 50
M  V30 54 1 20 51
M  V30 55 1 25 52
M  V30 56 1 25 53
M  V30 57 1 27 54
M  V30 58 1 28 55
M  V30 59 1 29 56
M  V30 60 1 31 57
M  V30 61 1 32 58
M  V30 END BOND
M  V30 END CTAB
M  END
>  <Dataset>  (871) 
ChEMBL_Kinases

>  <Ligand_Instance>  (871) 
nan

>  <PDB_ID>  (871) 
nan

>  <Standardized_SMILES>  (871) 
COc1ccc(C(=O)NC2=CCCC([C@H](C)Nc3ncnc4c(C(N)=O)cccc34)=C2)cc1F

>  <Name>  (871) 
nan

>  <Pocket>  (871) 
nan

>  <ATP_Site>  (871) 
nan

>  <Peripheral>  (871) 
nan

>  <Num_H_Atoms_ProtBoundConf>  (871) 
nan

>  <Num_Resolved_Atoms>  (871) 
nan

>  <Num_Not_Resolved_Atoms>  (871) 
nan

$$$$
CHEMBL3680388
     RDKit          3D

  0  0  0  0  0  0  0  0  0  0999 V3000
M  V30 BEGIN CTAB
M  V30 COUNTS 52 55 0 0 0
M  V30 BEGIN ATOM
M  V30 1 C -0.735083 0.280332 2.319041 0
M  V30 2 C 0.035636 -0.098754 1.075847 0
M  V30 3 N 0.630113 1.136909 0.538260 0
M  V30 4 C 1.530109 1.862624 1.360280 0
M  V30 5 N 1.820347 1.421276 2.594503 0
M  V30 6 C 2.665986 2.078719 3.404466 0
M  V30 7 N 3.267956 3.217646 3.019686 0
M  V30 8 C 2.991885 3.678826 1.786854 0
M  V30 9 C 3.537942 4.825447 1.276403 0
M  V30 10 C 4.460815 5.581934 2.105125 0
M  V30 11 N 4.800676 5.163858 3.413521 0
M  V30 12 O 5.229980 6.503297 2.376945 0
M  V30 13 C 3.319085 5.375174 0.036407 0
M  V30 14 C 2.438468 4.686161 -0.801529 0
M  V30 15 C 1.865637 3.525646 -0.326982 0
M  V30 16 C 2.133186 3.040340 0.922105 0
M  V30 17 C -0.889589 -0.731129 0.126850 0
M  V30 18 C -1.781595 0.148289 -0.497446 0
M  V30 19 C -2.672855 -0.427646 -1.407431 0
M  V30 20 C -2.682424 -1.780077 -1.682166 0
M  V30 21 C -1.778946 -2.599096 -1.035857 0
M  V30 22 N -1.684537 -4.015678 -1.231985 0
M  V30 23 C -2.535183 -4.688452 -0.320958 0
M  V30 24 O -3.145185 -3.857649 0.416863 0
M  V30 25 C -2.656081 -6.143495 -0.279074 0
M  V30 26 C -1.972585 -7.013521 -1.097704 0
M  V30 27 C -2.188715 -8.366620 -0.944931 0
M  V30 28 C -3.045076 -8.941727 -0.027458 0
M  V30 29 C -3.705597 -8.020003 0.768946 0
M  V30 30 C -3.541487 -6.655294 0.674835 0
M  V30 31 C -0.874805 -2.090253 -0.127346 0
M  V30 32 H -1.723633 -0.227286 2.318355 0
M  V30 33 H -0.148026 0.019735 3.237342 0
M  V30 34 H -0.966708 1.366148 2.293007 0
M  V30 35 H 0.859998 -0.772449 1.391747 0
M  V30 36 H 0.324284 1.361495 -0.415315 0
M  V30 37 H 2.895204 1.717550 4.397359 0
M  V30 38 H 5.313452 4.261200 3.638927 0
M  V30 39 H 5.034853 4.885670 4.378497 0
M  V30 40 H 3.820592 6.296515 -0.244521 0
M  V30 41 H 2.236999 5.083101 -1.784634 0
M  V30 42 H 1.195840 3.044961 -1.024787 0
M  V30 43 H -1.785293 1.213165 -0.291185 0
M  V30 44 H -3.374466 0.232266 -1.904552 0
M  V30 45 H -3.367341 -2.236855 -2.384146 0
M  V30 46 H -1.098226 -4.570812 -1.925170 0
M  V30 47 H -1.296699 -6.598303 -1.824129 0
M  V30 48 H -1.611479 -8.989394 -1.629206 0
M  V30 49 H -3.175783 -10.011423 0.048972 0
M  V30 50 H -4.398305 -8.440082 1.513511 0
M  V30 51 H -4.083848 -5.991847 1.322340 0
M  V30 52 H -0.125151 -2.636984 0.435205 0
M  V30 END ATOM
M  V30 BEGIN BOND
M  V30 1 1 1 2
M  V30 2 1 2 3
M  V30 3 1 3 4
M  V30 4 2 4 5
M  V30 5 1 5 6
M  V30 6 2 6 7
M  V30 7 1 7 8
M  V30 8 2 8 9
M  V30 9 1 9 10
M  V30 10 1 10 11
M  V30 11 2 10 12
M  V30 12 1 9 13
M  V30 13 2 13 14
M  V30 14 1 14 15
M  V30 15 2 15 16
M  V30 16 1 2 17
M  V30 17 2 17 18
M  V30 18 1 18 19
M  V30 19 2 19 20
M  V30 20 1 20 21
M  V30 21 1 21 22
M  V30 22 1 22 23
M  V30 23 2 23 24
M  V30 24 1 23 25
M  V30 25 2 25 26
M  V30 26 1 26 27
M  V30 27 2 27 28
M  V30 28 1 28 29
M  V30 29 2 29 30
M  V30 30 2 21 31
M  V30 31 1 16 4
M  V30 32 1 31 17
M  V30 33 1 16 8
M  V30 34 1 30 25
M  V30 35 1 1 32
M  V30 36 1 1 33
M  V30 37 1 1 34
M  V30 38 1 2 35
M  V30 39 1 3 36
M  V30 40 1 6 37
M  V30 41 1 11 38
M  V30 42 1 11 39
M  V30 43 1 13 40
M  V30 44 1 14 41
M  V30 45 1 15 42
M  V30 46 1 18 43
M  V30 47 1 19 44
M  V30 48 1 20 45
M  V30 49 1 22 46
M  V30 50 1 26 47
M  V30 51 1 27 48
M  V30 52 1 28 49
M  V30 53 1 29 50
M  V30 54 1 30 51
M  V30 55 1 31 52
M  V30 END BOND
M  V30 END CTAB
M  END
>  <Dataset>  (872) 
ChEMBL_Kinases

>  <Ligand_Instance>  (872) 
nan

>  <PDB_ID>  (872) 
nan

>  <Standardized_SMILES>  (872) 
CC(Nc1ncnc2c(C(N)=O)cccc12)c1cccc(NC(=O)c2ccccc2)c1

>  <Name>  (872) 
nan

>  <Pocket>  (872) 
nan

>  <ATP_Site>  (872) 
nan

>  <Peripheral>  (872) 
nan

>  <Num_H_Atoms_ProtBoundConf>  (872) 
nan

>  <Num_Resolved_Atoms>  (872) 
nan

>  <Num_Not_Resolved_Atoms>  (872) 
nan

$$$$
CHEMBL3394072
     RDKit          3D

  0  0  0  0  0  0  0  0  0  0999 V3000
M  V30 BEGIN CTAB
M  V30 COUNTS 43 47 0 0 0
M  V30 BEGIN ATOM
M  V30 1 N 1.350202 -6.109614 3.028194 0
M  V30 2 C 0.766226 -5.348277 1.906874 0
M  V30 3 N 0.200269 -5.775415 0.996575 0
M  V30 4 N -0.325696 -5.139842 -0.005768 0
M  V30 5 C -0.270216 -3.936106 -0.092482 0
M  V30 6 C -0.709275 -2.856174 -1.012402 0
M  V30 7 C -1.404920 -3.155028 -2.165605 0
M  V30 8 C -1.802305 -2.134805 -3.004741 0
M  V30 9 C -1.530537 -0.808554 -2.737403 0
M  V30 10 N -1.836051 0.302743 -3.432075 0
M  V30 11 C -1.346018 1.351731 -2.746729 0
M  V30 12 C -0.718266 0.868695 -1.592056 0
M  V30 13 C -0.057699 1.684065 -0.577532 0
M  V30 14 C -0.021030 3.055831 -0.722407 0
M  V30 15 N 0.564445 3.897017 0.158804 0
M  V30 16 C 1.153131 3.361054 1.254419 0
M  V30 17 C 1.138475 1.993380 1.436606 0
M  V30 18 N 1.741407 1.376003 2.569170 0
M  V30 19 C 1.809391 -0.036372 2.900331 0
M  V30 20 C 1.322193 -0.002397 4.341244 0
M  V30 21 C 1.863174 1.308769 4.858489 0
M  V30 22 C 2.429439 2.053866 3.652159 0
M  V30 23 N 0.536472 1.175516 0.523379 0
M  V30 24 C -0.834871 -0.506070 -1.584714 0
M  V30 25 C -0.429719 -1.513498 -0.734136 0
M  V30 26 S 0.675918 -3.478773 1.468188 0
M  V30 27 H 2.279821 -6.532954 2.810579 0
M  V30 28 H 0.698329 -6.071056 3.836731 0
M  V30 29 H -1.583332 -4.211328 -2.312988 0
M  V30 30 H -2.339770 -2.495662 -3.876043 0
M  V30 31 H -2.358460 0.333253 -4.336707 0
M  V30 32 H -1.401098 2.407644 -3.001561 0
M  V30 33 H -0.473349 3.571917 -1.580039 0
M  V30 34 H 1.627893 4.014353 1.973361 0
M  V30 35 H 1.072218 -0.630366 2.322032 0
M  V30 36 H 2.832510 -0.440580 2.799439 0
M  V30 37 H 1.639548 -0.882011 4.925751 0
M  V30 38 H 0.217881 0.099573 4.282139 0
M  V30 39 H 2.588304 1.185477 5.667478 0
M  V30 40 H 1.037866 1.938132 5.300309 0
M  V30 41 H 2.237136 3.131212 3.708498 0
M  V30 42 H 3.520150 1.827886 3.518325 0
M  V30 43 H 0.115180 -1.252618 0.165102 0
M  V30 END ATOM
M  V30 BEGIN BOND
M  V30 1 1 1 2
M  V30 2 2 2 3
M  V30 3 1 3 4
M  V30 4 2 4 5
M  V30 5 1 5 6
M  V30 6 2 6 7
M  V30 7 1 7 8
M  V30 8 2 8 9
M  V30 9 1 9 10
M  V30 10 1 10 11
M  V30 11 2 11 12
M  V30 12 1 12 13
M  V30 13 2 13 14
M  V30 14 1 14 15
M  V30 15 2 15 16
M  V30 16 1 16 17
M  V30 17 1 17 18
M  V30 18 1 18 19
M  V30 19 1 19 20
M  V30 20 1 20 21
M  V30 21 1 21 22
M  V30 22 2 17 23
M  V30 23 1 12 24
M  V30 24 2 24 25
M  V30 25 1 5 26
M  V30 26 1 26 2
M  V30 27 1 25 6
M  V30 28 1 24 9
M  V30 29 1 23 13
M  V30 30 1 22 18
M  V30 31 1 1 27
M  V30 32 1 1 28
M  V30 33 1 7 29
M  V30 34 1 8 30
M  V30 35 1 10 31
M  V30 36 1 11 32
M  V30 37 1 14 33
M  V30 38 1 16 34
M  V30 39 1 19 35
M  V30 40 1 19 36
M  V30 41 1 20 37
M  V30 42 1 20 38
M  V30 43 1 21 39
M  V30 44 1 21 40
M  V30 45 1 22 41
M  V30 46 1 22 42
M  V30 47 1 25 43
M  V30 END BOND
M  V30 END CTAB
M  END
>  <Dataset>  (873) 
ChEMBL_Kinases

>  <Ligand_Instance>  (873) 
nan

>  <PDB_ID>  (873) 
nan

>  <Standardized_SMILES>  (873) 
Nc1nnc(-c2ccc3[nH]cc(-c4cncc(N5CCCC5)n4)c3c2)s1

>  <Name>  (873) 
nan

>  <Pocket>  (873) 
nan

>  <ATP_Site>  (873) 
nan

>  <Peripheral>  (873) 
nan

>  <Num_H_Atoms_ProtBoundConf>  (873) 
nan

>  <Num_Resolved_Atoms>  (873) 
nan

>  <Num_Not_Resolved_Atoms>  (873) 
nan

$$$$
CHEMBL3680390
     RDKit          3D

  0  0  0  0  0  0  0  0  0  0999 V3000
M  V30 BEGIN CTAB
M  V30 COUNTS 69 73 0 0 0
M  V30 BEGIN ATOM
M  V30 1 N 6.820108 1.680898 4.683074 0
M  V30 2 C 6.504161 0.375067 5.223539 0
M  V30 3 O 7.270770 -0.044889 6.162287 0
M  V30 4 C 5.373477 -0.435736 4.734562 0
M  V30 5 C 4.622512 0.051076 3.774724 0
M  V30 6 N 4.963773 1.292674 3.305863 0
M  V30 7 C 4.188856 1.818204 2.305509 0
M  V30 8 N 3.147265 1.121288 1.826474 0
M  V30 9 C 2.773214 -0.095130 2.250362 0
M  V30 10 N 1.678610 -0.780653 1.688770 0
M  V30 11 C 0.808627 -0.261089 0.621984 0
M  V30 12 C 0.143319 0.972758 1.129639 0
M  V30 13 C -0.773687 1.650301 0.159659 0
M  V30 14 N -1.868112 0.862642 -0.299037 0
M  V30 15 C -2.823812 0.597401 0.744455 0
M  V30 16 C -3.940570 1.594134 0.627485 0
M  V30 17 C -3.977826 1.825077 -0.868195 0
M  V30 18 C -2.566693 1.607100 -1.329831 0
M  V30 19 C -0.138326 -1.311255 0.169422 0
M  V30 20 C -0.748351 -2.041864 1.192765 0
M  V30 21 C -1.650555 -3.068579 0.962348 0
M  V30 22 C -1.973704 -3.398594 -0.337275 0
M  V30 23 C -1.366390 -2.670912 -1.339629 0
M  V30 24 N -1.727073 -3.052269 -2.664102 0
M  V30 25 C -2.902816 -2.280762 -2.958834 0
M  V30 26 O -3.229082 -1.531768 -1.975567 0
M  V30 27 C -3.716844 -2.262461 -4.185305 0
M  V30 28 C -4.798659 -1.416716 -4.128560 0
M  V30 29 C -5.565588 -1.415387 -5.302041 0
M  V30 30 C -5.304548 -2.172355 -6.437887 0
M  V30 31 Br -6.470343 -2.031118 -7.933237 0
M  V30 32 C -4.188763 -2.983555 -6.373793 0
M  V30 33 C -3.373687 -3.050135 -5.258645 0
M  V30 34 C -0.468965 -1.648981 -1.123684 0
M  V30 35 C 3.546221 -0.632700 3.257403 0
M  V30 36 C 3.292993 -1.802096 3.763276 0
M  V30 37 C 4.016908 -2.509303 4.838168 0
M  V30 38 C 5.181154 -1.750793 5.374467 0
M  V30 39 H 7.345402 1.167343 3.917144 0
M  V30 40 H 6.305877 2.194460 5.432489 0
M  V30 41 H 4.477189 2.798425 1.952033 0
M  V30 42 H 1.405789 -1.732041 1.999569 0
M  V30 43 H 1.433895 0.006604 -0.252405 0
M  V30 44 H -0.379498 0.766069 2.110567 0
M  V30 45 H 0.940393 1.725306 1.360597 0
M  V30 46 H -1.149023 2.585680 0.666617 0
M  V30 47 H -0.186295 2.038480 -0.703627 0
M  V30 48 H -3.188313 -0.428372 0.602845 0
M  V30 49 H -2.388247 0.682979 1.764981 0
M  V30 50 H -3.747786 2.540829 1.163626 0
M  V30 51 H -4.879774 1.137707 0.972091 0
M  V30 52 H -4.288120 2.858971 -1.112430 0
M  V30 53 H -4.688921 1.164967 -1.393768 0
M  V30 54 H -2.497143 1.086577 -2.307181 0
M  V30 55 H -2.049073 2.593885 -1.519299 0
M  V30 56 H -0.587387 -1.884219 2.253602 0
M  V30 57 H -2.127778 -3.640150 1.754389 0
M  V30 58 H -2.678766 -4.200377 -0.545482 0
M  V30 59 H -1.452222 -3.674981 -3.485640 0
M  V30 60 H -5.076821 -0.795310 -3.292423 0
M  V30 61 H -6.439115 -0.766444 -5.325277 0
M  V30 62 H -3.996049 -3.564638 -7.258012 0
M  V30 63 H -2.509406 -3.701165 -5.256128 0
M  V30 64 H 0.008105 -1.078013 -1.905406 0
M  V30 65 H 2.478798 -2.422710 3.438741 0
M  V30 66 H 3.280037 -2.598063 5.689413 0
M  V30 67 H 4.252877 -3.557949 4.570188 0
M  V30 68 H 6.115686 -2.334752 5.248081 0
M  V30 69 H 5.116951 -1.574396 6.483816 0
M  V30 END ATOM
M  V30 BEGIN BOND
M  V30 1 1 1 2
M  V30 2 2 2 3
M  V30 3 1 2 4
M  V30 4 2 4 5
M  V30 5 1 5 6
M  V30 6 2 6 7
M  V30 7 1 7 8
M  V30 8 2 8 9
M  V30 9 1 9 10
M  V30 10 1 10 11
M  V30 11 1 11 12
M  V30 12 1 12 13
M  V30 13 1 13 14
M  V30 14 1 14 15
M  V30 15 1 15 16
M  V30 16 1 16 17
M  V30 17 1 17 18
M  V30 18 1 11 19
M  V30 19 2 19 20
M  V30 20 1 20 21
M  V30 21 2 21 22
M  V30 22 1 22 23
M  V30 23 1 23 24
M  V30 24 1 24 25
M  V30 25 2 25 26
M  V30 26 1 25 27
M  V30 27 2 27 28
M  V30 28 1 28 29
M  V30 29 2 29 30
M  V30 30 1 30 31
M  V30 31 1 30 32
M  V30 32 2 32 33
M  V30 33 2 23 34
M  V30 34 1 9 35
M  V30 35 2 35 36
M  V30 36 1 36 37
M  V30 37 1 37 38
M  V30 38 1 38 4
M  V30 39 1 35 5
M  V30 40 1 18 14
M  V30 41 1 34 19
M  V30 42 1 33 27
M  V30 43 1 1 39
M  V30 44 1 1 40
M  V30 45 1 7 41
M  V30 46 1 10 42
M  V30 47 1 11 43
M  V30 48 1 12 44
M  V30 49 1 12 45
M  V30 50 1 13 46
M  V30 51 1 13 47
M  V30 52 1 15 48
M  V30 53 1 15 49
M  V30 54 1 16 50
M  V30 55 1 16 51
M  V30 56 1 17 52
M  V30 57 1 17 53
M  V30 58 1 18 54
M  V30 59 1 18 55
M  V30 60 1 20 56
M  V30 61 1 21 57
M  V30 62 1 22 58
M  V30 63 1 24 59
M  V30 64 1 28 60
M  V30 65 1 29 61
M  V30 66 1 32 62
M  V30 67 1 33 63
M  V30 68 1 34 64
M  V30 69 1 36 65
M  V30 70 1 37 66
M  V30 71 1 37 67
M  V30 72 1 38 68
M  V30 73 1 38 69
M  V30 END BOND
M  V30 END CTAB
M  END
>  <Dataset>  (874) 
ChEMBL_Kinases

>  <Ligand_Instance>  (874) 
nan

>  <PDB_ID>  (874) 
nan

>  <Standardized_SMILES>  (874) 
NC(=O)C1=c2ncnc(NC(CCN3CCCC3)c3cccc(NC(=O)c4ccc(Br)cc4)c3)c2=CCC1

>  <Name>  (874) 
nan

>  <Pocket>  (874) 
nan

>  <ATP_Site>  (874) 
nan

>  <Peripheral>  (874) 
nan

>  <Num_H_Atoms_ProtBoundConf>  (874) 
nan

>  <Num_Resolved_Atoms>  (874) 
nan

>  <Num_Not_Resolved_Atoms>  (874) 
nan

$$$$
CHEMBL3680391
     RDKit          3D

  0  0  0  0  0  0  0  0  0  0999 V3000
M  V30 BEGIN CTAB
M  V30 COUNTS 69 72 0 0 0
M  V30 BEGIN ATOM
M  V30 1 C 9.700657 0.828968 3.106166 0
M  V30 2 O 8.450275 0.395189 3.540733 0
M  V30 3 C 7.276266 0.349747 2.844856 0
M  V30 4 C 7.026576 0.716472 1.543442 0
M  V30 5 C 5.796242 0.629581 0.932641 0
M  V30 6 C 4.697650 0.138226 1.659412 0
M  V30 7 C 3.485632 0.130848 0.855467 0
M  V30 8 O 3.381137 0.470466 -0.347087 0
M  V30 9 N 2.268158 -0.273622 1.372803 0
M  V30 10 C 0.972574 -0.337475 0.718945 0
M  V30 11 C 0.328742 -1.456551 0.455394 0
M  V30 12 C -0.941445 -1.256702 -0.198942 0
M  V30 13 C -1.829893 -2.359514 -0.635838 0
M  V30 14 C -1.291519 -3.212271 -1.719573 0
M  V30 15 C -0.983773 -2.508988 -2.996710 0
M  V30 16 N -0.010911 -1.467533 -2.932938 0
M  V30 17 C 0.077742 -0.904357 -4.287343 0
M  V30 18 C 1.336154 -2.030667 -2.709020 0
M  V30 19 N -3.196503 -1.918338 -0.796154 0
M  V30 20 C -3.862240 -1.468519 0.405181 0
M  V30 21 N -3.216064 -1.505564 1.575457 0
M  V30 22 C -3.741976 -1.126763 2.748641 0
M  V30 23 N -5.008490 -0.675319 2.751713 0
M  V30 24 C -5.693902 -0.620515 1.600048 0
M  V30 25 C -6.989786 -0.157902 1.514993 0
M  V30 26 C -7.615121 0.251958 2.733242 0
M  V30 27 N -7.199071 0.176217 4.109138 0
M  V30 28 O -8.474909 0.736998 3.537342 0
M  V30 29 C -7.757928 -0.056192 0.378144 0
M  V30 30 C -7.162357 -0.466780 -0.819450 0
M  V30 31 C -5.875288 -0.931893 -0.761106 0
M  V30 32 C -5.162561 -1.009526 0.388374 0
M  V30 33 C -1.422267 -0.039391 -0.508077 0
M  V30 34 C -0.730118 1.225564 -0.226494 0
M  V30 35 C 0.579376 1.061990 0.467952 0
M  V30 36 C 4.958490 -0.226067 2.960163 0
M  V30 37 F 3.869264 -0.693963 3.605881 0
M  V30 38 C 6.193611 -0.133066 3.554300 0
M  V30 39 H 10.284208 1.428590 3.822467 0
M  V30 40 H 9.694414 1.323724 2.107927 0
M  V30 41 H 10.314514 -0.102845 2.941541 0
M  V30 42 H 7.888874 1.096227 1.002716 0
M  V30 43 H 5.767205 0.960795 -0.109118 0
M  V30 44 H 2.070804 -0.610797 2.335556 0
M  V30 45 H 0.729682 -2.418985 0.711633 0
M  V30 46 H -1.868367 -3.039313 0.279829 0
M  V30 47 H -0.415726 -3.780910 -1.319441 0
M  V30 48 H -2.054485 -4.000795 -1.916156 0
M  V30 49 H -1.925036 -2.184280 -3.484109 0
M  V30 50 H -0.566884 -3.289443 -3.697986 0
M  V30 51 H -0.282226 -1.619400 -5.056523 0
M  V30 52 H 1.103097 -0.599174 -4.549351 0
M  V30 53 H -0.551830 0.007583 -4.398297 0
M  V30 54 H 1.296289 -2.849407 -1.963123 0
M  V30 55 H 2.024900 -1.262823 -2.332747 0
M  V30 56 H 1.764065 -2.444240 -3.646088 0
M  V30 57 H -3.556905 -1.969849 -1.749553 0
M  V30 58 H -3.126425 -1.199488 3.638325 0
M  V30 59 H -6.431243 -0.361873 4.608227 0
M  V30 60 H -6.448752 -0.335067 4.663718 0
M  V30 61 H -8.772096 0.317035 0.376702 0
M  V30 62 H -7.768134 -0.388262 -1.727103 0
M  V30 63 H -5.439369 -1.241338 -1.688665 0
M  V30 64 H -2.375068 0.130957 -0.999276 0
M  V30 65 H -0.633934 1.764931 -1.215623 0
M  V30 66 H -1.433179 1.852332 0.371935 0
M  V30 67 H 0.544591 1.654570 1.427709 0
M  V30 68 H 1.346173 1.554564 -0.153060 0
M  V30 69 H 6.197256 -0.473546 4.600559 0
M  V30 END ATOM
M  V30 BEGIN BOND
M  V30 1 1 1 2
M  V30 2 1 2 3
M  V30 3 2 3 4
M  V30 4 1 4 5
M  V30 5 2 5 6
M  V30 6 1 6 7
M  V30 7 2 7 8
M  V30 8 1 7 9
M  V30 9 1 9 10
M  V30 10 2 10 11
M  V30 11 1 11 12
M  V30 12 1 12 13
M  V30 13 1 13 14
M  V30 14 1 14 15
M  V30 15 1 15 16
M  V30 16 1 16 17
M  V30 17 1 16 18
M  V30 18 1 13 19
M  V30 19 1 19 20
M  V30 20 2 20 21
M  V30 21 1 21 22
M  V30 22 2 22 23
M  V30 23 1 23 24
M  V30 24 2 24 25
M  V30 25 1 25 26
M  V30 26 1 26 27
M  V30 27 2 26 28
M  V30 28 1 25 29
M  V30 29 2 29 30
M  V30 30 1 30 31
M  V30 31 2 31 32
M  V30 32 2 12 33
M  V30 33 1 33 34
M  V30 34 1 34 35
M  V30 35 1 6 36
M  V30 36 1 36 37
M  V30 37 2 36 38
M  V30 38 1 38 3
M  V30 39 1 35 10
M  V30 40 1 32 20
M  V30 41 1 32 24
M  V30 42 1 1 39
M  V30 43 1 1 40
M  V30 44 1 1 41
M  V30 45 1 4 42
M  V30 46 1 5 43
M  V30 47 1 9 44
M  V30 48 1 11 45
M  V30 49 1 13 46
M  V30 50 1 14 47
M  V30 51 1 14 48
M  V30 52 1 15 49
M  V30 53 1 15 50
M  V30 54 1 17 51
M  V30 55 1 17 52
M  V30 56 1 17 53
M  V30 57 1 18 54
M  V30 58 1 18 55
M  V30 59 1 18 56
M  V30 60 1 19 57
M  V30 61 1 22 58
M  V30 62 1 27 59
M  V30 63 1 27 60
M  V30 64 1 29 61
M  V30 65 1 30 62
M  V30 66 1 31 63
M  V30 67 1 33 64
M  V30 68 1 34 65
M  V30 69 1 34 66
M  V30 70 1 35 67
M  V30 71 1 35 68
M  V30 72 1 38 69
M  V30 END BOND
M  V30 END CTAB
M  END
>  <Dataset>  (875) 
ChEMBL_Kinases

>  <Ligand_Instance>  (875) 
nan

>  <PDB_ID>  (875) 
nan

>  <Standardized_SMILES>  (875) 
COc1ccc(C(=O)NC2=CC(C(CCN(C)C)Nc3ncnc4c(C(N)=O)cccc34)=CCC2)c(F)c1

>  <Name>  (875) 
nan

>  <Pocket>  (875) 
nan

>  <ATP_Site>  (875) 
nan

>  <Peripheral>  (875) 
nan

>  <Num_H_Atoms_ProtBoundConf>  (875) 
nan

>  <Num_Resolved_Atoms>  (875) 
nan

>  <Num_Not_Resolved_Atoms>  (875) 
nan

$$$$
CHEMBL3680392
     RDKit          3D

  0  0  0  0  0  0  0  0  0  0999 V3000
M  V30 BEGIN CTAB
M  V30 COUNTS 60 64 0 0 0
M  V30 BEGIN ATOM
M  V30 1 N 6.078028 -1.005067 -0.353421 0
M  V30 2 C 6.689333 0.123136 0.265503 0
M  V30 3 O 7.894766 0.172693 0.624813 0
M  V30 4 C 5.889649 1.318812 0.510970 0
M  V30 5 C 6.506109 2.411072 1.100842 0
M  V30 6 C 5.739513 3.553428 1.331814 0
M  V30 7 C 4.413717 3.540849 0.965686 0
M  V30 8 C 3.789866 2.470506 0.382894 0
M  V30 9 C 2.437853 2.528856 0.037978 0
M  V30 10 N 1.653620 3.680925 0.257486 0
M  V30 11 C 0.250697 3.834281 -0.061570 0
M  V30 12 C -0.604854 2.906012 0.712026 0
M  V30 13 C -0.996714 3.273151 1.999067 0
M  V30 14 C -1.806742 2.514958 2.836506 0
M  V30 15 C -2.240813 1.294496 2.306985 0
M  V30 16 C -1.863987 0.911377 1.032234 0
M  V30 17 N -2.427909 -0.355598 0.730165 0
M  V30 18 C -3.712792 -0.524655 0.147551 0
M  V30 19 O -4.477844 0.433661 -0.163707 0
M  V30 20 C -4.244321 -1.851335 -0.132027 0
M  V30 21 C -5.521949 -2.007421 -0.631398 0
M  V30 22 C -6.057535 -3.271196 -0.900059 0
M  V30 23 N -5.306364 -4.358554 -0.665127 0
M  V30 24 C -4.053885 -4.304313 -0.181403 0
M  V30 25 N -3.244106 -5.440641 0.082490 0
M  V30 26 C -1.796607 -5.364435 0.354100 0
M  V30 27 C -1.279703 -6.735883 -0.048434 0
M  V30 28 C -2.419448 -7.664964 0.314889 0
M  V30 29 C -3.662267 -6.819122 0.142407 0
M  V30 30 C -3.589460 -3.046226 0.059879 0
M  V30 31 C -1.062439 1.698599 0.248245 0
M  V30 32 N 1.926598 1.430232 -0.523193 0
M  V30 33 C 2.659184 0.336304 -0.744687 0
M  V30 34 N 3.977847 0.302903 -0.400512 0
M  V30 35 C 4.570350 1.365604 0.169719 0
M  V30 36 H 5.473346 -1.498372 0.364435 0
M  V30 37 H 6.152804 -1.359801 -1.330142 0
M  V30 38 H 7.556516 2.411276 1.389343 0
M  V30 39 H 6.237205 4.394077 1.789719 0
M  V30 40 H 3.917980 4.458205 1.183820 0
M  V30 41 H 2.044353 4.547501 0.682924 0
M  V30 42 H 0.050765 3.584842 -1.133763 0
M  V30 43 H -0.098045 4.878438 0.056662 0
M  V30 44 H -0.635641 4.224498 2.367561 0
M  V30 45 H -2.058266 2.887862 3.821160 0
M  V30 46 H -2.872168 0.750117 3.017882 0
M  V30 47 H -1.810374 -1.153947 0.973647 0
M  V30 48 H -6.161646 -1.151194 -0.832657 0
M  V30 49 H -7.081978 -3.348526 -1.298977 0
M  V30 50 H -1.702676 -5.170245 1.438367 0
M  V30 51 H -1.340382 -4.535684 -0.177944 0
M  V30 52 H -1.100801 -6.712575 -1.136735 0
M  V30 53 H -0.373471 -6.927481 0.553780 0
M  V30 54 H -2.404391 -8.538505 -0.365991 0
M  V30 55 H -2.286822 -8.046224 1.341045 0
M  V30 56 H -4.180039 -7.151212 -0.766226 0
M  V30 57 H -4.349852 -7.029538 0.991272 0
M  V30 58 H -2.565897 -2.972938 0.458143 0
M  V30 59 H -0.820580 1.326595 -0.731894 0
M  V30 60 H 2.259344 -0.564579 -1.199271 0
M  V30 END ATOM
M  V30 BEGIN BOND
M  V30 1 1 1 2
M  V30 2 2 2 3
M  V30 3 1 2 4
M  V30 4 2 4 5
M  V30 5 1 5 6
M  V30 6 2 6 7
M  V30 7 1 7 8
M  V30 8 2 8 9
M  V30 9 1 9 10
M  V30 10 1 10 11
M  V30 11 1 11 12
M  V30 12 2 12 13
M  V30 13 1 13 14
M  V30 14 2 14 15
M  V30 15 1 15 16
M  V30 16 1 16 17
M  V30 17 1 17 18
M  V30 18 2 18 19
M  V30 19 1 18 20
M  V30 20 2 20 21
M  V30 21 1 21 22
M  V30 22 2 22 23
M  V30 23 1 23 24
M  V30 24 1 24 25
M  V30 25 1 25 26
M  V30 26 1 26 27
M  V30 27 1 27 28
M  V30 28 1 28 29
M  V30 29 2 24 30
M  V30 30 2 16 31
M  V30 31 1 9 32
M  V30 32 2 32 33
M  V30 33 1 33 34
M  V30 34 2 34 35
M  V30 35 1 35 4
M  V30 36 1 35 8
M  V30 37 1 31 12
M  V30 38 1 30 20
M  V30 39 1 29 25
M  V30 40 1 1 36
M  V30 41 1 1 37
M  V30 42 1 5 38
M  V30 43 1 6 39
M  V30 44 1 7 40
M  V30 45 1 10 41
M  V30 46 1 11 42
M  V30 47 1 11 43
M  V30 48 1 13 44
M  V30 49 1 14 45
M  V30 50 1 15 46
M  V30 51 1 17 47
M  V30 52 1 21 48
M  V30 53 1 22 49
M  V30 54 1 26 50
M  V30 55 1 26 51
M  V30 56 1 27 52
M  V30 57 1 27 53
M  V30 58 1 28 54
M  V30 59 1 28 55
M  V30 60 1 29 56
M  V30 61 1 29 57
M  V30 62 1 30 58
M  V30 63 1 31 59
M  V30 64 1 33 60
M  V30 END BOND
M  V30 END CTAB
M  END
>  <Dataset>  (876) 
ChEMBL_Kinases

>  <Ligand_Instance>  (876) 
nan

>  <PDB_ID>  (876) 
nan

>  <Standardized_SMILES>  (876) 
NC(=O)c1cccc2c(NCc3cccc(NC(=O)c4ccnc(N5CCCC5)c4)c3)ncnc12

>  <Name>  (876) 
nan

>  <Pocket>  (876) 
nan

>  <ATP_Site>  (876) 
nan

>  <Peripheral>  (876) 
nan

>  <Num_H_Atoms_ProtBoundConf>  (876) 
nan

>  <Num_Resolved_Atoms>  (876) 
nan

>  <Num_Not_Resolved_Atoms>  (876) 
nan

$$$$
CHEMBL3732736
     RDKit          3D

  0  0  0  0  0  0  0  0  0  0999 V3000
M  V30 BEGIN CTAB
M  V30 COUNTS 33 34 0 0 0
M  V30 BEGIN ATOM
M  V30 1 O -0.482921 -1.332411 -0.138716 0
M  V30 2 C -0.499062 -1.905069 0.980892 0
M  V30 3 C 0.002166 -3.131241 1.662211 0
M  V30 4 N 0.753806 -3.884938 0.677009 0
M  V30 5 C 1.905505 -3.387409 0.050736 0
M  V30 6 C 2.441204 -2.146141 0.312811 0
M  V30 7 C 3.569969 -1.660578 -0.305955 0
M  V30 8 C 4.229234 -2.428824 -1.245473 0
M  V30 9 C 3.716632 -3.663305 -1.521788 0
M  V30 10 Cl 4.506031 -4.693290 -2.707132 0
M  V30 11 C 2.583025 -4.116011 -0.881237 0
M  V30 12 N -1.264026 -1.060745 1.856132 0
M  V30 13 N -1.818023 0.139002 1.393090 0
M  V30 14 C -1.759089 1.260945 1.984719 0
M  V30 15 C -2.425643 2.349986 1.273744 0
M  V30 16 C -1.607232 3.048691 0.379924 0
M  V30 17 Cl 0.076571 2.644110 0.139651 0
M  V30 18 C -2.093942 4.102124 -0.363355 0
M  V30 19 N -3.376686 4.468066 -0.230413 0
M  V30 20 C -4.190656 3.817012 0.620485 0
M  V30 21 C -3.745733 2.753532 1.387164 0
M  V30 22 Cl -4.703987 1.839771 2.516762 0
M  V30 23 H -0.814412 -3.725068 2.106087 0
M  V30 24 H 0.680428 -2.849291 2.467431 0
M  V30 25 H 0.406110 -4.834114 0.438956 0
M  V30 26 H 1.984385 -1.490047 1.035168 0
M  V30 27 H 3.968094 -0.670148 -0.073999 0
M  V30 28 H 5.119809 -2.094276 -1.760365 0
M  V30 29 H 2.217297 -5.110431 -1.140842 0
M  V30 30 H -1.513165 -1.182614 2.881179 0
M  V30 31 H -1.222907 1.243358 2.929235 0
M  V30 32 H -1.467096 4.657227 -1.065240 0
M  V30 33 H -5.234707 4.060055 0.776236 0
M  V30 END ATOM
M  V30 BEGIN BOND
M  V30 1 2 1 2
M  V30 2 1 2 3
M  V30 3 1 3 4
M  V30 4 1 4 5
M  V30 5 2 5 6
M  V30 6 1 6 7
M  V30 7 2 7 8
M  V30 8 1 8 9
M  V30 9 1 9 10
M  V30 10 2 9 11
M  V30 11 1 2 12
M  V30 12 1 12 13
M  V30 13 2 13 14
M  V30 14 1 14 15
M  V30 15 2 15 16
M  V30 16 1 16 17
M  V30 17 1 16 18
M  V30 18 2 18 19
M  V30 19 1 19 20
M  V30 20 2 20 21
M  V30 21 1 21 22
M  V30 22 1 11 5
M  V30 23 1 21 15
M  V30 24 1 3 23
M  V30 25 1 3 24
M  V30 26 1 4 25
M  V30 27 1 6 26
M  V30 28 1 7 27
M  V30 29 1 8 28
M  V30 30 1 11 29
M  V30 31 1 12 30
M  V30 32 1 14 31
M  V30 33 1 18 32
M  V30 34 1 20 33
M  V30 END BOND
M  V30 END CTAB
M  END
>  <Dataset>  (877) 
ChEMBL_Kinases

>  <Ligand_Instance>  (877) 
nan

>  <PDB_ID>  (877) 
nan

>  <Standardized_SMILES>  (877) 
O=C(CNc1cccc(Cl)c1)N/N=C/c1c(Cl)cncc1Cl

>  <Name>  (877) 
nan

>  <Pocket>  (877) 
nan

>  <ATP_Site>  (877) 
nan

>  <Peripheral>  (877) 
nan

>  <Num_H_Atoms_ProtBoundConf>  (877) 
nan

>  <Num_Resolved_Atoms>  (877) 
nan

>  <Num_Not_Resolved_Atoms>  (877) 
nan

$$$$
CHEMBL3729970
     RDKit          3D

  0  0  0  0  0  0  0  0  0  0999 V3000
M  V30 BEGIN CTAB
M  V30 COUNTS 37 38 0 0 0
M  V30 BEGIN ATOM
M  V30 1 C -0.245816 -4.192587 2.253850 0
M  V30 2 S -0.013094 -4.679847 0.509876 0
M  V30 3 C 1.527312 -4.000965 -0.109417 0
M  V30 4 C 2.686390 -4.742303 0.014276 0
M  V30 5 C 3.865357 -4.211160 -0.465166 0
M  V30 6 C 3.885185 -2.964404 -1.056143 0
M  V30 7 C 2.747778 -2.186119 -1.201429 0
M  V30 8 N 2.751874 -0.900865 -1.809335 0
M  V30 9 C 1.564619 -0.079799 -1.960319 0
M  V30 10 C 0.975887 0.245633 -0.607794 0
M  V30 11 O 1.144165 0.060553 0.626466 0
M  V30 12 N -0.195576 1.054582 -0.758329 0
M  V30 13 N -0.906319 1.475797 0.373402 0
M  V30 14 C -1.493330 2.623659 0.426404 0
M  V30 15 C -2.099484 2.639082 1.770524 0
M  V30 16 C -1.417461 3.130092 2.879636 0
M  V30 17 Cl 0.200645 3.730551 2.598682 0
M  V30 18 C -2.037331 3.119753 4.120264 0
M  V30 19 N -3.284278 2.636635 4.231134 0
M  V30 20 C -3.944195 2.163022 3.165524 0
M  V30 21 C -3.388167 2.139243 1.882185 0
M  V30 22 Cl -4.310446 1.505153 0.536264 0
M  V30 23 C 1.595160 -2.759136 -0.707453 0
M  V30 24 H 0.609333 -3.551378 2.553876 0
M  V30 25 H -0.347363 -5.065264 2.917639 0
M  V30 26 H -1.154093 -3.556539 2.287792 0
M  V30 27 H 2.737980 -5.712019 0.460877 0
M  V30 28 H 4.803728 -4.775175 -0.382142 0
M  V30 29 H 4.821563 -2.555342 -1.430907 0
M  V30 30 H 3.700297 -0.564697 -2.157260 0
M  V30 31 H 0.785918 -0.599500 -2.567455 0
M  V30 32 H 1.879066 0.894352 -2.378707 0
M  V30 33 H -0.621168 1.397292 -1.672642 0
M  V30 34 H -1.441244 3.287417 -0.422186 0
M  V30 35 H -1.478429 3.510077 4.966937 0
M  V30 36 H -4.957375 1.782292 3.316594 0
M  V30 37 H 0.650558 -2.254510 -0.762549 0
M  V30 END ATOM
M  V30 BEGIN BOND
M  V30 1 1 1 2
M  V30 2 1 2 3
M  V30 3 2 3 4
M  V30 4 1 4 5
M  V30 5 2 5 6
M  V30 6 1 6 7
M  V30 7 1 7 8
M  V30 8 1 8 9
M  V30 9 1 9 10
M  V30 10 2 10 11
M  V30 11 1 10 12
M  V30 12 1 12 13
M  V30 13 2 13 14
M  V30 14 1 14 15
M  V30 15 2 15 16
M  V30 16 1 16 17
M  V30 17 1 16 18
M  V30 18 2 18 19
M  V30 19 1 19 20
M  V30 20 2 20 21
M  V30 21 1 21 22
M  V30 22 2 7 23
M  V30 23 1 23 3
M  V30 24 1 21 15
M  V30 25 1 1 24
M  V30 26 1 1 25
M  V30 27 1 1 26
M  V30 28 1 4 27
M  V30 29 1 5 28
M  V30 30 1 6 29
M  V30 31 1 8 30
M  V30 32 1 9 31
M  V30 33 1 9 32
M  V30 34 1 12 33
M  V30 35 1 14 34
M  V30 36 1 18 35
M  V30 37 1 20 36
M  V30 38 1 23 37
M  V30 END BOND
M  V30 END CTAB
M  END
>  <Dataset>  (878) 
ChEMBL_Kinases

>  <Ligand_Instance>  (878) 
nan

>  <PDB_ID>  (878) 
nan

>  <Standardized_SMILES>  (878) 
CSc1cccc(NCC(=O)N/N=C/c2c(Cl)cncc2Cl)c1

>  <Name>  (878) 
nan

>  <Pocket>  (878) 
nan

>  <ATP_Site>  (878) 
nan

>  <Peripheral>  (878) 
nan

>  <Num_H_Atoms_ProtBoundConf>  (878) 
nan

>  <Num_Resolved_Atoms>  (878) 
nan

>  <Num_Not_Resolved_Atoms>  (878) 
nan

$$$$
CHEMBL3675538
     RDKit          3D

  0  0  0  0  0  0  0  0  0  0999 V3000
M  V30 BEGIN CTAB
M  V30 COUNTS 59 62 0 0 0
M  V30 BEGIN ATOM
M  V30 1 C 3.537594 -1.849129 5.217979 0
M  V30 2 O 2.503021 -2.442534 4.471132 0
M  V30 3 C 2.987838 -3.164980 3.408103 0
M  V30 4 C 1.871686 -3.808774 2.596163 0
M  V30 5 C 0.938610 -2.724981 2.043207 0
M  V30 6 N 1.547965 -1.776670 1.196868 0
M  V30 7 C 2.164246 -0.874155 0.329308 0
M  V30 8 N 2.822753 -1.029124 -0.830017 0
M  V30 9 C 3.359517 -0.041690 -1.546574 0
M  V30 10 N 3.215159 1.183031 -1.048204 0
M  V30 11 C 2.588708 1.495894 0.088495 0
M  V30 12 C 2.545608 2.823119 0.433529 0
M  V30 13 C 3.149608 3.865757 -0.388009 0
M  V30 14 N 3.810968 3.473013 -1.603047 0
M  V30 15 O 3.084156 5.067579 -0.028852 0
M  V30 16 C 1.897805 3.137990 1.606332 0
M  V30 17 C 1.330695 2.142646 2.373203 0
M  V30 18 C 1.421093 0.848542 1.953992 0
M  V30 19 C 2.050996 0.440669 0.792804 0
M  V30 20 C -0.256872 -3.409055 1.427565 0
M  V30 21 C -0.632551 -4.733037 1.370359 0
M  V30 22 C -1.804881 -5.055496 0.726200 0
M  V30 23 C -2.616091 -4.109120 0.137452 0
M  V30 24 C -2.246915 -2.762174 0.188180 0
M  V30 25 N -3.111570 -1.820322 -0.431683 0
M  V30 26 C -3.141535 -1.305509 -1.756724 0
M  V30 27 O -2.235083 -1.787511 -2.471483 0
M  V30 28 C -4.165615 -0.329926 -2.113164 0
M  V30 29 C -5.172439 0.183417 -1.300220 0
M  V30 30 C -6.045061 1.105100 -1.834553 0
M  V30 31 C -5.969380 1.545120 -3.138969 0
M  V30 32 F -6.883922 2.455778 -3.554787 0
M  V30 33 C -4.973059 1.044603 -3.962862 0
M  V30 34 F -4.905541 1.480329 -5.237659 0
M  V30 35 C -4.092947 0.112284 -3.417106 0
M  V30 36 C -1.063577 -2.426523 0.837135 0
M  V30 37 H 3.020374 -1.301906 6.038079 0
M  V30 38 H 4.168166 -1.182164 4.597758 0
M  V30 39 H 4.199192 -2.595741 5.671600 0
M  V30 40 H 3.709437 -3.946097 3.711959 0
M  V30 41 H 3.534015 -2.494527 2.692236 0
M  V30 42 H 2.287673 -4.364581 1.736876 0
M  V30 43 H 1.324017 -4.509854 3.238995 0
M  V30 44 H 0.521746 -2.148223 2.941726 0
M  V30 45 H 1.772135 -2.640686 0.620962 0
M  V30 46 H 3.854888 -0.344441 -2.457105 0
M  V30 47 H 3.521891 3.290116 -2.594787 0
M  V30 48 H 3.033155 3.434025 -2.323046 0
M  V30 49 H 1.849916 4.171833 1.899012 0
M  V30 50 H 0.828168 2.395499 3.284736 0
M  V30 51 H 0.966651 0.107326 2.579612 0
M  V30 52 H 0.095977 -5.352418 1.869745 0
M  V30 53 H -2.017114 -6.125208 0.733143 0
M  V30 54 H -3.525596 -4.461555 -0.349969 0
M  V30 55 H -3.775908 -1.553910 0.328376 0
M  V30 56 H -5.169973 -0.204838 -0.295759 0
M  V30 57 H -6.784892 1.436347 -1.118818 0
M  V30 58 H -3.353780 -0.219932 -4.130627 0
M  V30 59 H -0.902258 -1.358164 0.800750 0
M  V30 END ATOM
M  V30 BEGIN BOND
M  V30 1 1 1 2
M  V30 2 1 2 3
M  V30 3 1 3 4
M  V30 4 1 4 5
M  V30 5 1 5 6
M  V30 6 1 6 7
M  V30 7 2 7 8
M  V30 8 1 8 9
M  V30 9 2 9 10
M  V30 10 1 10 11
M  V30 11 2 11 12
M  V30 12 1 12 13
M  V30 13 1 13 14
M  V30 14 2 13 15
M  V30 15 1 12 16
M  V30 16 2 16 17
M  V30 17 1 17 18
M  V30 18 2 18 19
M  V30 19 1 5 20
M  V30 20 2 20 21
M  V30 21 1 21 22
M  V30 22 2 22 23
M  V30 23 1 23 24
M  V30 24 1 24 25
M  V30 25 1 25 26
M  V30 26 2 26 27
M  V30 27 1 26 28
M  V30 28 2 28 29
M  V30 29 1 29 30
M  V30 30 2 30 31
M  V30 31 1 31 32
M  V30 32 1 31 33
M  V30 33 1 33 34
M  V30 34 2 33 35
M  V30 35 2 24 36
M  V30 36 1 19 7
M  V30 37 1 36 20
M  V30 38 1 19 11
M  V30 39 1 35 28
M  V30 40 1 1 37
M  V30 41 1 1 38
M  V30 42 1 1 39
M  V30 43 1 3 40
M  V30 44 1 3 41
M  V30 45 1 4 42
M  V30 46 1 4 43
M  V30 47 1 5 44
M  V30 48 1 6 45
M  V30 49 1 9 46
M  V30 50 1 14 47
M  V30 51 1 14 48
M  V30 52 1 16 49
M  V30 53 1 17 50
M  V30 54 1 18 51
M  V30 55 1 21 52
M  V30 56 1 22 53
M  V30 57 1 23 54
M  V30 58 1 25 55
M  V30 59 1 29 56
M  V30 60 1 30 57
M  V30 61 1 35 58
M  V30 62 1 36 59
M  V30 END BOND
M  V30 END CTAB
M  END
>  <Dataset>  (879) 
ChEMBL_Kinases

>  <Ligand_Instance>  (879) 
nan

>  <PDB_ID>  (879) 
nan

>  <Standardized_SMILES>  (879) 
COCCC(Nc1ncnc2c(C(N)=O)cccc12)c1cccc(NC(=O)c2ccc(F)c(F)c2)c1

>  <Name>  (879) 
nan

>  <Pocket>  (879) 
nan

>  <ATP_Site>  (879) 
nan

>  <Peripheral>  (879) 
nan

>  <Num_H_Atoms_ProtBoundConf>  (879) 
nan

>  <Num_Resolved_Atoms>  (879) 
nan

>  <Num_Not_Resolved_Atoms>  (879) 
nan

$$$$
CHEMBL3730250
     RDKit          3D

  0  0  0  0  0  0  0  0  0  0999 V3000
M  V30 BEGIN CTAB
M  V30 COUNTS 33 34 0 0 0
M  V30 BEGIN ATOM
M  V30 1 O -0.499026 -1.355064 -0.132503 0
M  V30 2 C -0.458991 -1.918425 0.983097 0
M  V30 3 C 0.087128 -3.120411 1.708729 0
M  V30 4 N 0.837125 -3.876451 0.723942 0
M  V30 5 C 1.970812 -3.316719 0.077094 0
M  V30 6 C 2.455990 -2.058458 0.318039 0
M  V30 7 C 3.562175 -1.529466 -0.325951 0
M  V30 8 C 4.237660 -2.283854 -1.268538 0
M  V30 9 C 3.772431 -3.555007 -1.532388 0
M  V30 10 F 4.386597 -4.349603 -2.444714 0
M  V30 11 C 2.661504 -4.041055 -0.862656 0
M  V30 12 N -1.219515 -1.094714 1.873270 0
M  V30 13 N -1.821030 0.080680 1.406195 0
M  V30 14 C -1.735429 1.227498 1.972936 0
M  V30 15 C -2.471088 2.267710 1.250409 0
M  V30 16 C -1.697001 2.921366 0.286804 0
M  V30 17 Cl -0.002313 2.518131 -0.014135 0
M  V30 18 C -2.228861 3.942340 -0.500720 0
M  V30 19 N -3.525554 4.285735 -0.304854 0
M  V30 20 C -4.290754 3.668360 0.619323 0
M  V30 21 C -3.782214 2.656890 1.407086 0
M  V30 22 Cl -4.665279 1.778769 2.636930 0
M  V30 23 H -0.721123 -3.709802 2.162899 0
M  V30 24 H 0.772926 -2.794554 2.520692 0
M  V30 25 H 0.534265 -4.826942 0.500773 0
M  V30 26 H 1.970398 -1.428969 1.043593 0
M  V30 27 H 3.930113 -0.551843 -0.131433 0
M  V30 28 H 5.099907 -1.876945 -1.773299 0
M  V30 29 H 2.323804 -5.047005 -1.096640 0
M  V30 30 H -1.460278 -1.170374 2.907038 0
M  V30 31 H -1.133889 1.204387 2.878756 0
M  V30 32 H -1.617475 4.440557 -1.244031 0
M  V30 33 H -5.332035 3.931165 0.789365 0
M  V30 END ATOM
M  V30 BEGIN BOND
M  V30 1 2 1 2
M  V30 2 1 2 3
M  V30 3 1 3 4
M  V30 4 1 4 5
M  V30 5 2 5 6
M  V30 6 1 6 7
M  V30 7 2 7 8
M  V30 8 1 8 9
M  V30 9 1 9 10
M  V30 10 2 9 11
M  V30 11 1 2 12
M  V30 12 1 12 13
M  V30 13 2 13 14
M  V30 14 1 14 15
M  V30 15 2 15 16
M  V30 16 1 16 17
M  V30 17 1 16 18
M  V30 18 2 18 19
M  V30 19 1 19 20
M  V30 20 2 20 21
M  V30 21 1 21 22
M  V30 22 1 11 5
M  V30 23 1 21 15
M  V30 24 1 3 23
M  V30 25 1 3 24
M  V30 26 1 4 25
M  V30 27 1 6 26
M  V30 28 1 7 27
M  V30 29 1 8 28
M  V30 30 1 11 29
M  V30 31 1 12 30
M  V30 32 1 14 31
M  V30 33 1 18 32
M  V30 34 1 20 33
M  V30 END BOND
M  V30 END CTAB
M  END
>  <Dataset>  (880) 
ChEMBL_Kinases

>  <Ligand_Instance>  (880) 
nan

>  <PDB_ID>  (880) 
nan

>  <Standardized_SMILES>  (880) 
O=C(CNc1cccc(F)c1)N/N=C/c1c(Cl)cncc1Cl

>  <Name>  (880) 
nan

>  <Pocket>  (880) 
nan

>  <ATP_Site>  (880) 
nan

>  <Peripheral>  (880) 
nan

>  <Num_H_Atoms_ProtBoundConf>  (880) 
nan

>  <Num_Resolved_Atoms>  (880) 
nan

>  <Num_Not_Resolved_Atoms>  (880) 
nan

$$$$
CHEMBL523859
     RDKit          3D

  0  0  0  0  0  0  0  0  0  0999 V3000
M  V30 BEGIN CTAB
M  V30 COUNTS 64 67 0 0 0
M  V30 BEGIN ATOM
M  V30 1 C 3.257292 -3.238748 2.119841 0
M  V30 2 C 2.934360 -2.106528 1.171790 0
M  V30 3 N 2.043368 -1.125520 1.693699 0
M  V30 4 C 2.354408 -0.051640 2.396989 0
M  V30 5 C 3.570499 0.527511 2.944200 0
M  V30 6 N 3.625592 1.694238 3.610545 0
M  V30 7 O 4.810725 2.012772 3.976460 0
M  V30 8 N 5.649264 1.097295 3.592709 0
M  V30 9 C 4.891857 0.188555 2.962059 0
M  V30 10 N 5.523044 -0.927869 2.460853 0
M  V30 11 N 1.188143 0.582155 2.604188 0
M  V30 12 C 0.198470 -0.076054 2.053043 0
M  V30 13 C -1.135004 0.313264 2.090376 0
M  V30 14 C -1.587290 1.506696 2.746654 0
M  V30 15 C -1.980790 2.511989 3.285656 0
M  V30 16 C -2.482975 3.725039 3.944151 0
M  V30 17 C -1.841762 4.895862 3.252119 0
M  V30 18 C -3.993189 3.789882 3.916844 0
M  V30 19 O -2.107207 3.655631 5.281297 0
M  V30 20 N -2.012787 -0.520768 1.453732 0
M  V30 21 C -1.547984 -1.642437 0.842991 0
M  V30 22 C -0.231866 -2.025928 0.806044 0
M  V30 23 O 0.303492 -3.122514 0.223744 0
M  V30 24 C -0.301920 -4.139882 -0.496056 0
M  V30 25 C -0.984836 -3.755356 -1.766402 0
M  V30 26 C -0.033939 -3.109098 -2.757927 0 CFG=1
M  V30 27 N 1.024134 -4.058209 -3.068908 0
M  V30 28 C -0.763859 -2.831031 -4.045937 0
M  V30 29 C -1.913680 -1.932150 -3.907627 0
M  V30 30 C -3.226457 -2.274836 -3.648727 0
M  V30 31 C -4.219592 -1.317378 -3.542081 0
M  V30 32 C -3.938152 0.026881 -3.690792 0
M  V30 33 C -2.657331 0.418783 -3.947632 0
M  V30 34 C -1.680140 -0.560475 -4.049830 0
M  V30 35 C 0.700009 -1.202430 1.444020 0
M  V30 36 H 3.393925 -2.777529 3.133537 0
M  V30 37 H 2.429737 -3.971222 2.194815 0
M  V30 38 H 4.210434 -3.681863 1.820551 0
M  V30 39 H 3.879053 -1.729611 0.743387 0
M  V30 40 H 2.475631 -2.612626 0.265068 0
M  V30 41 H 6.343511 -0.916313 1.783944 0
M  V30 42 H 5.966676 -1.786694 2.109849 0
M  V30 43 H -0.819648 5.019177 3.668831 0
M  V30 44 H -1.783191 4.699515 2.161204 0
M  V30 45 H -2.394911 5.847007 3.453084 0
M  V30 46 H -4.425291 3.394249 4.868796 0
M  V30 47 H -4.396273 3.144966 3.102590 0
M  V30 48 H -4.376390 4.808242 3.754698 0
M  V30 49 H -2.775973 3.063877 5.718586 0
M  V30 50 H -2.298695 -2.226960 0.390137 0
M  V30 51 H -1.103280 -4.636822 0.139587 0
M  V30 52 H 0.454702 -4.955907 -0.676880 0
M  V30 53 H -1.930150 -3.208330 -1.662358 0
M  V30 54 H -1.273453 -4.732170 -2.265867 0
M  V30 55 H 0.435108 -2.203253 -2.370596 0
M  V30 56 H 1.614317 -4.246139 -2.231368 0
M  V30 57 H 1.633884 -3.722153 -3.826035 0
M  V30 58 H -1.038972 -3.802532 -4.544388 0
M  V30 59 H -0.016299 -2.366165 -4.737514 0
M  V30 60 H -3.418054 -3.328600 -3.537835 0
M  V30 61 H -5.245293 -1.613425 -3.337722 0
M  V30 62 H -4.707388 0.779271 -3.608986 0
M  V30 63 H -2.397038 1.456947 -4.070114 0
M  V30 64 H -0.660111 -0.208023 -4.257372 0
M  V30 END ATOM
M  V30 BEGIN BOND
M  V30 1 1 1 2
M  V30 2 1 2 3
M  V30 3 1 3 4
M  V30 4 1 4 5
M  V30 5 2 5 6
M  V30 6 1 6 7
M  V30 7 1 7 8
M  V30 8 2 8 9
M  V30 9 1 9 10
M  V30 10 2 4 11
M  V30 11 1 11 12
M  V30 12 2 12 13
M  V30 13 1 13 14
M  V30 14 3 14 15
M  V30 15 1 15 16
M  V30 16 1 16 17
M  V30 17 1 16 18
M  V30 18 1 16 19
M  V30 19 1 13 20
M  V30 20 2 20 21
M  V30 21 1 21 22
M  V30 22 1 22 23
M  V30 23 1 23 24
M  V30 24 1 24 25
M  V30 25 1 25 26
M  V30 26 1 26 27
M  V30 27 1 26 28
M  V30 28 1 28 29
M  V30 29 2 29 30
M  V30 30 1 30 31
M  V30 31 2 31 32
M  V30 32 1 32 33
M  V30 33 2 33 34
M  V30 34 2 22 35
M  V30 35 1 35 3
M  V30 36 1 9 5
M  V30 37 1 35 12
M  V30 38 1 34 29
M  V30 39 1 1 36
M  V30 40 1 1 37
M  V30 41 1 1 38
M  V30 42 1 2 39
M  V30 43 1 2 40
M  V30 44 1 10 41
M  V30 45 1 10 42
M  V30 46 1 17 43
M  V30 47 1 17 44
M  V30 48 1 17 45
M  V30 49 1 18 46
M  V30 50 1 18 47
M  V30 51 1 18 48
M  V30 52 1 19 49
M  V30 53 1 21 50
M  V30 54 1 24 51
M  V30 55 1 24 52
M  V30 56 1 25 53
M  V30 57 1 25 54
M  V30 58 1 26 55 CFG=1
M  V30 59 1 27 56
M  V30 60 1 27 57
M  V30 61 1 28 58
M  V30 62 1 28 59
M  V30 63 1 30 60
M  V30 64 1 31 61
M  V30 65 1 32 62
M  V30 66 1 33 63
M  V30 67 1 34 64
M  V30 END BOND
M  V30 END CTAB
M  END
>  <Dataset>  (881) 
ChEMBL_Kinases

>  <Ligand_Instance>  (881) 
nan

>  <PDB_ID>  (881) 
nan

>  <Standardized_SMILES>  (881) 
CCn1c(-c2nonc2N)nc2c(C#CC(C)(C)O)ncc(OCC[C@@H](N)Cc3ccccc3)c21

>  <Name>  (881) 
nan

>  <Pocket>  (881) 
nan

>  <ATP_Site>  (881) 
nan

>  <Peripheral>  (881) 
nan

>  <Num_H_Atoms_ProtBoundConf>  (881) 
nan

>  <Num_Resolved_Atoms>  (881) 
nan

>  <Num_Not_Resolved_Atoms>  (881) 
nan

$$$$
CHEMBL3730555
     RDKit          3D

  0  0  0  0  0  0  0  0  0  0999 V3000
M  V30 BEGIN CTAB
M  V30 COUNTS 47 49 0 0 0
M  V30 BEGIN ATOM
M  V30 1 O 1.108863 -2.213530 4.509153 0
M  V30 2 C 0.909515 -2.744859 3.360919 0
M  V30 3 C 2.115193 -3.560857 3.076548 0
M  V30 4 N 1.984924 -4.182865 1.778110 0
M  V30 5 C 1.958516 -3.405563 0.580478 0
M  V30 6 C 1.809854 -4.063530 -0.645998 0
M  V30 7 C 1.787618 -3.382439 -1.830139 0
M  V30 8 C 1.917933 -2.023477 -1.758840 0
M  V30 9 C 2.067503 -1.258856 -0.651434 0
M  V30 10 O 2.209968 0.039340 -0.310953 0
M  V30 11 C 2.240466 1.140346 -1.143709 0
M  V30 12 C 1.026592 1.380151 -1.940884 0
M  V30 13 C 0.021739 2.054446 -1.261152 0
M  V30 14 C -1.205357 2.418296 -1.785410 0
M  V30 15 C -1.483630 2.093740 -3.104014 0
M  V30 16 C -0.517180 1.428831 -3.807174 0
M  V30 17 C 0.683893 1.092722 -3.235820 0
M  V30 18 C 2.083941 -2.009378 0.538351 0
M  V30 19 N -0.286877 -2.470486 2.684586 0
M  V30 20 N -1.212658 -1.615828 3.304532 0
M  V30 21 C -1.107909 -0.323585 3.185592 0
M  V30 22 C -2.047220 0.633249 3.811419 0
M  V30 23 C -1.914670 2.000564 3.670279 0
M  V30 24 C -2.867490 2.802137 4.310970 0
M  V30 25 N -3.885563 2.301046 5.043281 0
M  V30 26 C -4.016730 0.969280 5.182155 0
M  V30 27 C -3.095317 0.119316 4.565224 0
M  V30 28 H 2.165042 -4.356530 3.856138 0
M  V30 29 H 3.044310 -2.941918 3.095299 0
M  V30 30 H 1.908204 -5.216728 1.700990 0
M  V30 31 H 1.706514 -5.148853 -0.693255 0
M  V30 32 H 1.678201 -3.799814 -2.818675 0
M  V30 33 H 1.917945 -1.420504 -2.644417 0
M  V30 34 H 3.121002 1.040204 -1.866564 0
M  V30 35 H 2.430335 2.070523 -0.542901 0
M  V30 36 H 0.118425 2.363570 -0.224355 0
M  V30 37 H -1.965724 2.935335 -1.250537 0
M  V30 38 H -2.373809 2.302456 -3.646303 0
M  V30 39 H -0.638562 1.126710 -4.855792 0
M  V30 40 H 1.482169 0.571140 -3.777406 0
M  V30 41 H 2.191488 -1.646099 1.567669 0
M  V30 42 H -0.304429 -2.979594 1.774027 0
M  V30 43 H -0.297169 0.120531 2.600786 0
M  V30 44 H -1.107744 2.372420 3.090734 0
M  V30 45 H -2.744083 3.875841 4.186402 0
M  V30 46 H -4.826837 0.509899 5.766910 0
M  V30 47 H -3.201109 -0.941071 4.676778 0
M  V30 END ATOM
M  V30 BEGIN BOND
M  V30 1 2 1 2
M  V30 2 1 2 3
M  V30 3 1 3 4
M  V30 4 1 4 5
M  V30 5 2 5 6
M  V30 6 1 6 7
M  V30 7 2 7 8
M  V30 8 1 8 9
M  V30 9 1 9 10
M  V30 10 1 10 11
M  V30 11 1 11 12
M  V30 12 2 12 13
M  V30 13 1 13 14
M  V30 14 2 14 15
M  V30 15 1 15 16
M  V30 16 2 16 17
M  V30 17 2 9 18
M  V30 18 1 2 19
M  V30 19 1 19 20
M  V30 20 2 20 21
M  V30 21 1 21 22
M  V30 22 2 22 23
M  V30 23 1 23 24
M  V30 24 2 24 25
M  V30 25 1 25 26
M  V30 26 2 26 27
M  V30 27 1 18 5
M  V30 28 1 27 22
M  V30 29 1 17 12
M  V30 30 1 3 28
M  V30 31 1 3 29
M  V30 32 1 4 30
M  V30 33 1 6 31
M  V30 34 1 7 32
M  V30 35 1 8 33
M  V30 36 1 11 34
M  V30 37 1 11 35
M  V30 38 1 13 36
M  V30 39 1 14 37
M  V30 40 1 15 38
M  V30 41 1 16 39
M  V30 42 1 17 40
M  V30 43 1 18 41
M  V30 44 1 19 42
M  V30 45 1 21 43
M  V30 46 1 23 44
M  V30 47 1 24 45
M  V30 48 1 26 46
M  V30 49 1 27 47
M  V30 END BOND
M  V30 END CTAB
M  END
>  <Dataset>  (882) 
ChEMBL_Kinases

>  <Ligand_Instance>  (882) 
nan

>  <PDB_ID>  (882) 
nan

>  <Standardized_SMILES>  (882) 
O=C(CNc1cccc(OCc2ccccc2)c1)N/N=C/c1ccncc1

>  <Name>  (882) 
nan

>  <Pocket>  (882) 
nan

>  <ATP_Site>  (882) 
nan

>  <Peripheral>  (882) 
nan

>  <Num_H_Atoms_ProtBoundConf>  (882) 
nan

>  <Num_Resolved_Atoms>  (882) 
nan

>  <Num_Not_Resolved_Atoms>  (882) 
nan

$$$$
CHEMBL5093114
     RDKit          3D

  0  0  0  0  0  0  0  0  0  0999 V3000
M  V30 BEGIN CTAB
M  V30 COUNTS 38 41 0 0 0
M  V30 BEGIN ATOM
M  V30 1 Cl -1.674619 -2.153980 4.756322 0
M  V30 2 C -0.384864 -2.523990 3.627908 0
M  V30 3 C 0.053124 -3.794079 3.323158 0
M  V30 4 C 1.076142 -3.965467 2.419827 0
M  V30 5 C 1.639388 -2.848634 1.839179 0
M  V30 6 C 1.237038 -1.528284 2.108196 0
M  V30 7 C 2.027139 -0.572879 1.386381 0
M  V30 8 C 3.382742 -0.491052 1.643048 0
M  V30 9 N 3.950278 0.497569 0.890777 0
M  V30 10 C 3.005478 1.079341 0.135157 0
M  V30 11 N 2.923504 2.048514 -0.781154 0
M  V30 12 C 1.785811 2.399844 -1.400136 0
M  V30 13 C 0.620890 1.733371 -1.085846 0
M  V30 14 C 0.639888 0.707132 -0.131596 0
M  V30 15 N -0.666458 0.181409 0.037009 0
M  V30 16 C -1.794802 0.159522 0.985223 0
M  V30 17 C -3.007338 0.691157 0.262583 0
M  V30 18 O -2.701263 1.122891 -1.022450 0
M  V30 19 C -2.178285 0.131335 -1.814914 0
M  V30 20 C -1.099210 -0.635821 -1.091484 0
M  V30 21 C 1.846955 0.414454 0.451622 0
M  V30 22 C 0.210781 -1.458208 3.022000 0
M  V30 23 H -0.427578 -4.611137 3.809116 0
M  V30 24 H 1.383553 -4.978129 2.214482 0
M  V30 25 H 2.444368 -3.125420 1.138175 0
M  V30 26 H 4.006951 -1.065131 2.312297 0
M  V30 27 H 4.951517 0.802092 0.861293 0
M  V30 28 H 1.913926 3.202264 -2.108314 0
M  V30 29 H -0.219468 2.096005 -1.639340 0
M  V30 30 H -2.020203 -0.882296 1.289425 0
M  V30 31 H -1.591562 0.826285 1.841400 0
M  V30 32 H -3.829318 -0.059212 0.264091 0
M  V30 33 H -3.401456 1.552993 0.834180 0
M  V30 34 H -1.737250 0.598449 -2.736665 0
M  V30 35 H -3.003519 -0.538586 -2.153300 0
M  V30 36 H -0.287492 -0.835436 -1.825631 0
M  V30 37 H -1.555036 -1.600775 -0.769996 0
M  V30 38 H -0.045032 -0.397244 3.190158 0
M  V30 END ATOM
M  V30 BEGIN BOND
M  V30 1 1 1 2
M  V30 2 2 2 3
M  V30 3 1 3 4
M  V30 4 2 4 5
M  V30 5 1 5 6
M  V30 6 1 6 7
M  V30 7 2 7 8
M  V30 8 1 8 9
M  V30 9 1 9 10
M  V30 10 2 10 11
M  V30 11 1 11 12
M  V30 12 2 12 13
M  V30 13 1 13 14
M  V30 14 1 14 15
M  V30 15 1 15 16
M  V30 16 1 16 17
M  V30 17 1 17 18
M  V30 18 1 18 19
M  V30 19 1 19 20
M  V30 20 2 14 21
M  V30 21 2 6 22
M  V30 22 1 22 2
M  V30 23 1 21 7
M  V30 24 1 21 10
M  V30 25 1 20 15
M  V30 26 1 3 23
M  V30 27 1 4 24
M  V30 28 1 5 25
M  V30 29 1 8 26
M  V30 30 1 9 27
M  V30 31 1 12 28
M  V30 32 1 13 29
M  V30 33 1 16 30
M  V30 34 1 16 31
M  V30 35 1 17 32
M  V30 36 1 17 33
M  V30 37 1 19 34
M  V30 38 1 19 35
M  V30 39 1 20 36
M  V30 40 1 20 37
M  V30 41 1 22 38
M  V30 END BOND
M  V30 END CTAB
M  END
>  <Dataset>  (883) 
ChEMBL_Kinases

>  <Ligand_Instance>  (883) 
nan

>  <PDB_ID>  (883) 
nan

>  <Standardized_SMILES>  (883) 
Clc1cccc(-c2c[nH]c3nccc(N4CCOCC4)c23)c1

>  <Name>  (883) 
nan

>  <Pocket>  (883) 
nan

>  <ATP_Site>  (883) 
nan

>  <Peripheral>  (883) 
nan

>  <Num_H_Atoms_ProtBoundConf>  (883) 
nan

>  <Num_Resolved_Atoms>  (883) 
nan

>  <Num_Not_Resolved_Atoms>  (883) 
nan

$$$$
CHEMBL3730586
     RDKit          3D

  0  0  0  0  0  0  0  0  0  0999 V3000
M  V30 BEGIN CTAB
M  V30 COUNTS 38 39 0 0 0
M  V30 BEGIN ATOM
M  V30 1 N -4.209457 -4.590958 2.222901 0
M  V30 2 S -4.437266 -3.103673 3.084031 0
M  V30 3 O -4.368793 -3.446905 4.561986 0
M  V30 4 O -5.804759 -2.586388 2.784191 0
M  V30 5 C -3.191744 -1.942483 2.668380 0
M  V30 6 C -2.049089 -1.986179 3.471996 0
M  V30 7 C -1.033260 -1.084687 3.181742 0
M  V30 8 C -1.203119 -0.206276 2.130712 0
M  V30 9 C -2.323457 -0.150507 1.328874 0
M  V30 10 N -2.458281 0.765230 0.258227 0
M  V30 11 C -1.404317 1.706169 -0.063218 0
M  V30 12 C -0.125993 1.028249 -0.444467 0
M  V30 13 O 0.410615 -0.097665 -0.600877 0
M  V30 14 N 0.899222 1.994581 -0.756742 0
M  V30 15 N 2.172924 1.511149 -1.137443 0
M  V30 16 C 2.956948 0.849522 -0.379302 0
M  V30 17 C 4.257809 0.396462 -0.879032 0
M  V30 18 C 4.586983 0.713636 -2.182637 0
M  V30 19 Cl 3.537919 1.617783 -3.248270 0
M  V30 20 C 5.834456 0.259811 -2.609135 0
M  V30 21 N 6.688404 -0.439626 -1.841288 0
M  V30 22 C 6.343771 -0.740842 -0.560561 0
M  V30 23 C 5.112589 -0.320040 -0.065769 0
M  V30 24 Cl 4.684706 -0.715923 1.584032 0
M  V30 25 C -3.326319 -1.049705 1.625320 0
M  V30 26 H -4.659722 -5.344888 2.788458 0
M  V30 27 H -3.181234 -4.828148 2.199093 0
M  V30 28 H -1.897407 -2.661100 4.293573 0
M  V30 29 H -0.142453 -1.099120 3.787262 0
M  V30 30 H -0.371990 0.466240 1.965283 0
M  V30 31 H -3.335079 0.757424 -0.305897 0
M  V30 32 H -1.695333 2.337662 -0.925670 0
M  V30 33 H -1.232959 2.375125 0.823058 0
M  V30 34 H 0.886045 3.057360 -0.757365 0
M  V30 35 H 2.623287 0.642991 0.628756 0
M  V30 36 H 6.118199 0.496806 -3.633608 0
M  V30 37 H 7.062274 -1.306119 0.022164 0
M  V30 38 H -4.249399 -1.096103 1.063423 0
M  V30 END ATOM
M  V30 BEGIN BOND
M  V30 1 1 1 2
M  V30 2 2 2 3
M  V30 3 2 2 4
M  V30 4 1 2 5
M  V30 5 2 5 6
M  V30 6 1 6 7
M  V30 7 2 7 8
M  V30 8 1 8 9
M  V30 9 1 9 10
M  V30 10 1 10 11
M  V30 11 1 11 12
M  V30 12 2 12 13
M  V30 13 1 12 14
M  V30 14 1 14 15
M  V30 15 2 15 16
M  V30 16 1 16 17
M  V30 17 2 17 18
M  V30 18 1 18 19
M  V30 19 1 18 20
M  V30 20 2 20 21
M  V30 21 1 21 22
M  V30 22 2 22 23
M  V30 23 1 23 24
M  V30 24 2 9 25
M  V30 25 1 25 5
M  V30 26 1 23 17
M  V30 27 1 1 26
M  V30 28 1 1 27
M  V30 29 1 6 28
M  V30 30 1 7 29
M  V30 31 1 8 30
M  V30 32 1 10 31
M  V30 33 1 11 32
M  V30 34 1 11 33
M  V30 35 1 14 34
M  V30 36 1 16 35
M  V30 37 1 20 36
M  V30 38 1 22 37
M  V30 39 1 25 38
M  V30 END BOND
M  V30 END CTAB
M  END
>  <Dataset>  (884) 
ChEMBL_Kinases

>  <Ligand_Instance>  (884) 
nan

>  <PDB_ID>  (884) 
nan

>  <Standardized_SMILES>  (884) 
NS(=O)(=O)c1cccc(NCC(=O)N/N=C/c2c(Cl)cncc2Cl)c1

>  <Name>  (884) 
nan

>  <Pocket>  (884) 
nan

>  <ATP_Site>  (884) 
nan

>  <Peripheral>  (884) 
nan

>  <Num_H_Atoms_ProtBoundConf>  (884) 
nan

>  <Num_Resolved_Atoms>  (884) 
nan

>  <Num_Not_Resolved_Atoms>  (884) 
nan

$$$$
CHEMBL368193
     RDKit          3D

  0  0  0  0  0  0  0  0  0  0999 V3000
M  V30 BEGIN CTAB
M  V30 COUNTS 58 62 0 0 0
M  V30 BEGIN ATOM
M  V30 1 C -1.023710 -1.759349 3.601332 0
M  V30 2 C -1.383330 -2.918093 3.106775 0
M  V30 3 N -0.691800 -3.435488 1.979090 0
M  V30 4 C 0.320608 -2.865538 1.314040 0
M  V30 5 C 0.709554 -3.702725 0.269206 0
M  V30 6 C 1.783373 -3.310478 -0.610554 0
M  V30 7 C 2.020406 -2.112110 -1.149020 0
M  V30 8 C 1.336670 -0.827012 -1.067852 0
M  V30 9 N 1.956641 0.359235 -0.881236 0
M  V30 10 N 1.097019 1.361905 -0.851239 0
M  V30 11 C 1.513622 2.721174 -0.638225 0
M  V30 12 C 1.663026 3.138496 0.780643 0
M  V30 13 C 0.472205 3.057053 1.654292 0
M  V30 14 N -0.661495 3.847271 1.257188 0
M  V30 15 C -1.703935 3.588970 2.267755 0
M  V30 16 C -0.450022 5.260199 1.234167 0
M  V30 17 C -0.125978 0.890032 -1.016839 0
M  V30 18 C -1.389137 1.420810 -1.087934 0
M  V30 19 C -2.522449 0.660955 -1.287969 0
M  V30 20 C -2.378466 -0.721358 -1.426544 0
M  V30 21 C -1.105673 -1.245765 -1.353907 0
M  V30 22 C 0.008928 -0.472289 -1.153239 0
M  V30 23 C 3.246619 -2.203504 -1.973330 0
M  V30 24 O 3.819509 -1.291120 -2.657664 0
M  V30 25 N 3.765536 -3.540078 -1.915613 0
M  V30 26 C 2.839180 -4.227977 -1.055996 0
M  V30 27 O 3.074868 -5.446951 -0.835679 0
M  V30 28 C -0.141835 -4.777042 0.383072 0
M  V30 29 C -0.179593 -5.894674 -0.419673 0
M  V30 30 C -1.126631 -6.851668 -0.119015 0
M  V30 31 C -2.001814 -6.709279 0.933232 0
M  V30 32 C -1.954174 -5.590367 1.724802 0
M  V30 33 C -1.009740 -4.613357 1.441497 0
M  V30 34 H -1.275016 -1.055548 4.400210 0
M  V30 35 H -0.233724 -1.104083 3.257416 0
M  V30 36 H -2.201450 -3.413321 3.604139 0
M  V30 37 H 0.711096 -1.895460 1.616018 0
M  V30 38 H 2.536294 2.868400 -1.100281 0
M  V30 39 H 0.883137 3.443576 -1.236947 0
M  V30 40 H 2.037054 4.200888 0.764178 0
M  V30 41 H 2.543878 2.580756 1.229267 0
M  V30 42 H 0.782362 3.485477 2.656363 0
M  V30 43 H 0.162755 2.022151 1.908836 0
M  V30 44 H -2.564982 4.269655 2.116357 0
M  V30 45 H -1.299844 3.686778 3.282863 0
M  V30 46 H -2.090351 2.564038 2.040739 0
M  V30 47 H 0.559512 5.553366 0.961953 0
M  V30 48 H -1.234378 5.777155 0.629777 0
M  V30 49 H -0.598278 5.635350 2.286447 0
M  V30 50 H -1.476223 2.470704 -0.986887 0
M  V30 51 H -3.483907 1.149695 -1.331608 0
M  V30 52 H -3.294141 -1.259594 -1.580166 0
M  V30 53 H -1.035894 -2.304419 -1.472460 0
M  V30 54 H 4.624225 -3.873315 -2.408569 0
M  V30 55 H 0.485405 -6.028396 -1.250339 0
M  V30 56 H -1.191791 -7.759074 -0.731985 0
M  V30 57 H -2.762128 -7.429287 1.212820 0
M  V30 58 H -2.616983 -5.413220 2.573563 0
M  V30 END ATOM
M  V30 BEGIN BOND
M  V30 1 2 1 2
M  V30 2 1 2 3
M  V30 3 1 3 4
M  V30 4 2 4 5
M  V30 5 1 5 6
M  V30 6 2 6 7
M  V30 7 1 7 8
M  V30 8 2 8 9
M  V30 9 1 9 10
M  V30 10 1 10 11
M  V30 11 1 11 12
M  V30 12 1 12 13
M  V30 13 1 13 14
M  V30 14 1 14 15
M  V30 15 1 14 16
M  V30 16 1 10 17
M  V30 17 2 17 18
M  V30 18 1 18 19
M  V30 19 2 19 20
M  V30 20 1 20 21
M  V30 21 2 21 22
M  V30 22 1 7 23
M  V30 23 2 23 24
M  V30 24 1 23 25
M  V30 25 1 25 26
M  V30 26 2 26 27
M  V30 27 1 5 28
M  V30 28 2 28 29
M  V30 29 1 29 30
M  V30 30 2 30 31
M  V30 31 1 31 32
M  V30 32 2 32 33
M  V30 33 1 33 3
M  V30 34 1 26 6
M  V30 35 1 33 28
M  V30 36 1 22 8
M  V30 37 1 22 17
M  V30 38 1 1 34
M  V30 39 1 1 35
M  V30 40 1 2 36
M  V30 41 1 4 37
M  V30 42 1 11 38
M  V30 43 1 11 39
M  V30 44 1 12 40
M  V30 45 1 12 41
M  V30 46 1 13 42
M  V30 47 1 13 43
M  V30 48 1 15 44
M  V30 49 1 15 45
M  V30 50 1 15 46
M  V30 51 1 16 47
M  V30 52 1 16 48
M  V30 53 1 16 49
M  V30 54 1 18 50
M  V30 55 1 19 51
M  V30 56 1 20 52
M  V30 57 1 21 53
M  V30 58 1 25 54
M  V30 59 1 29 55
M  V30 60 1 30 56
M  V30 61 1 31 57
M  V30 62 1 32 58
M  V30 END BOND
M  V30 END CTAB
M  END
>  <Dataset>  (885) 
ChEMBL_Kinases

>  <Ligand_Instance>  (885) 
nan

>  <PDB_ID>  (885) 
nan

>  <Standardized_SMILES>  (885) 
C=Cn1cc(C2=C(c3nn(CCCN(C)C)c4ccccc34)C(=O)NC2=O)c2ccccc21

>  <Name>  (885) 
nan

>  <Pocket>  (885) 
nan

>  <ATP_Site>  (885) 
nan

>  <Peripheral>  (885) 
nan

>  <Num_H_Atoms_ProtBoundConf>  (885) 
nan

>  <Num_Resolved_Atoms>  (885) 
nan

>  <Num_Not_Resolved_Atoms>  (885) 
nan

$$$$
CHEMBL5093661
     RDKit          3D

  0  0  0  0  0  0  0  0  0  0999 V3000
M  V30 BEGIN CTAB
M  V30 COUNTS 46 49 0 0 0
M  V30 BEGIN ATOM
M  V30 1 C -1.815012 -3.478344 2.104941 0
M  V30 2 C -1.078240 -2.209041 2.322713 0
M  V30 3 N -1.086749 -1.410759 3.405885 0
M  V30 4 C -0.275688 -0.366489 3.195897 0
M  V30 5 C 0.030599 0.699392 4.013975 0
M  V30 6 C 0.912340 1.645284 3.532777 0
M  V30 7 C 1.420277 1.449757 2.266194 0
M  V30 8 C 2.356166 2.392920 1.674180 0
M  V30 9 C 2.846357 2.165756 0.400441 0
M  V30 10 C 3.748637 3.017809 -0.246792 0
M  V30 11 N 4.219935 2.734202 -1.558559 0
M  V30 12 N 4.173034 4.122392 0.389254 0
M  V30 13 C 3.721797 4.381909 1.629123 0
M  V30 14 N 4.164936 5.558877 2.324805 0
M  V30 15 C 2.832753 3.542531 2.267094 0
M  V30 16 N 1.096546 0.395254 1.497841 0
M  V30 17 C 0.229607 -0.566742 1.928217 0
M  V30 18 N -0.265784 -1.714973 1.374187 0
M  V30 19 C 0.162196 -2.092047 0.045383 0
M  V30 20 C -0.676757 -1.514302 -1.056451 0
M  V30 21 O -2.018199 -1.871762 -1.059810 0
M  V30 22 C -2.431047 -3.188374 -1.182569 0
M  V30 23 C -3.822854 -3.306225 -1.160552 0
M  V30 24 C -4.415477 -4.562436 -1.272832 0
M  V30 25 C -3.624386 -5.683393 -1.405176 0
M  V30 26 C -2.238489 -5.506075 -1.421051 0
M  V30 27 Cl -1.142100 -6.885657 -1.586918 0
M  V30 28 N -1.660574 -4.296627 -1.313130 0
M  V30 29 H -2.030869 -3.897417 3.130374 0
M  V30 30 H -1.288330 -4.181843 1.461846 0
M  V30 31 H -2.843395 -3.233457 1.714410 0
M  V30 32 H -0.408999 0.787369 5.001589 0
M  V30 33 H 1.176422 2.495031 4.145574 0
M  V30 34 H 2.549895 1.285426 -0.189155 0
M  V30 35 H 5.232561 2.718262 -1.850980 0
M  V30 36 H 3.509238 2.530745 -2.267015 0
M  V30 37 H 5.116109 5.994265 2.445047 0
M  V30 38 H 3.543780 6.207942 2.859196 0
M  V30 39 H 2.483684 3.771708 3.264212 0
M  V30 40 H 1.204565 -1.787908 -0.147126 0
M  V30 41 H 0.064581 -3.213320 -0.005443 0
M  V30 42 H -0.656824 -0.394036 -0.897535 0
M  V30 43 H -0.187996 -1.638779 -2.058739 0
M  V30 44 H -4.528661 -2.494947 -1.061522 0
M  V30 45 H -5.478969 -4.736535 -1.264485 0
M  V30 46 H -3.932321 -6.711811 -1.501414 0
M  V30 END ATOM
M  V30 BEGIN BOND
M  V30 1 1 1 2
M  V30 2 2 2 3
M  V30 3 1 3 4
M  V30 4 2 4 5
M  V30 5 1 5 6
M  V30 6 2 6 7
M  V30 7 1 7 8
M  V30 8 2 8 9
M  V30 9 1 9 10
M  V30 10 1 10 11
M  V30 11 2 10 12
M  V30 12 1 12 13
M  V30 13 1 13 14
M  V30 14 2 13 15
M  V30 15 1 7 16
M  V30 16 2 16 17
M  V30 17 1 17 18
M  V30 18 1 18 19
M  V30 19 1 19 20
M  V30 20 1 20 21
M  V30 21 1 21 22
M  V30 22 2 22 23
M  V30 23 1 23 24
M  V30 24 2 24 25
M  V30 25 1 25 26
M  V30 26 1 26 27
M  V30 27 2 26 28
M  V30 28 1 18 2
M  V30 29 1 28 22
M  V30 30 1 17 4
M  V30 31 1 15 8
M  V30 32 1 1 29
M  V30 33 1 1 30
M  V30 34 1 1 31
M  V30 35 1 5 32
M  V30 36 1 6 33
M  V30 37 1 9 34
M  V30 38 1 11 35
M  V30 39 1 11 36
M  V30 40 1 14 37
M  V30 41 1 14 38
M  V30 42 1 15 39
M  V30 43 1 19 40
M  V30 44 1 19 41
M  V30 45 1 20 42
M  V30 46 1 20 43
M  V30 47 1 23 44
M  V30 48 1 24 45
M  V30 49 1 25 46
M  V30 END BOND
M  V30 END CTAB
M  END
>  <Dataset>  (886) 
ChEMBL_Kinases

>  <Ligand_Instance>  (886) 
nan

>  <PDB_ID>  (886) 
nan

>  <Standardized_SMILES>  (886) 
Cc1nc2ccc(-c3cc(N)nc(N)c3)nc2n1CCOc1cccc(Cl)n1

>  <Name>  (886) 
nan

>  <Pocket>  (886) 
nan

>  <ATP_Site>  (886) 
nan

>  <Peripheral>  (886) 
nan

>  <Num_H_Atoms_ProtBoundConf>  (886) 
nan

>  <Num_Resolved_Atoms>  (886) 
nan

>  <Num_Not_Resolved_Atoms>  (886) 
nan

$$$$
CHEMBL522618
     RDKit          3D

  0  0  0  0  0  0  0  0  0  0999 V3000
M  V30 BEGIN CTAB
M  V30 COUNTS 44 48 0 0 0
M  V30 BEGIN ATOM
M  V30 1 C -1.046170 -2.512569 3.769108 0
M  V30 2 C -1.005362 -1.787317 2.457686 0 CFG=2
M  V30 3 N -2.259588 -1.176187 2.069156 0
M  V30 4 C -1.997124 -0.617215 0.785836 0
M  V30 5 C -0.879272 0.087264 0.381552 0
M  V30 6 C -0.646102 0.553408 -0.895802 0
M  V30 7 C 0.422988 1.256563 -1.409959 0
M  V30 8 C 1.620945 1.675729 -0.658554 0
M  V30 9 C 2.947471 1.475551 -0.959269 0
M  V30 10 C 3.937102 1.981092 -0.142436 0
M  V30 11 C 3.542823 2.691636 0.982950 0
M  V30 12 C 2.220326 2.904101 1.303927 0
M  V30 13 C 1.206912 2.393665 0.479432 0
M  V30 14 O 2.253156 3.645324 2.477938 0
M  V30 15 C 3.528514 3.467101 3.121449 0
M  V30 16 O 4.355221 3.299121 1.959761 0
M  V30 17 N 0.061207 1.408310 -2.718853 0
M  V30 18 O -1.091849 0.853070 -2.932187 0
M  V30 19 C -1.594729 0.306235 -1.867320 0
M  V30 20 C -2.719756 -0.401127 -1.453236 0
M  V30 21 N -2.909726 -0.838388 -0.196946 0
M  V30 22 C -0.521843 -2.714199 1.388170 0
M  V30 23 C 0.810609 -2.739026 0.990878 0
M  V30 24 C 1.227753 -3.586710 -0.003822 0
M  V30 25 C 0.352851 -4.443878 -0.648129 0
M  V30 26 C -0.982324 -4.446380 -0.276128 0
M  V30 27 C -1.367112 -3.586607 0.722119 0
M  V30 28 H -0.048076 -2.996774 3.892986 0
M  V30 29 H -1.182702 -1.778091 4.604526 0
M  V30 30 H -1.854015 -3.259331 3.835240 0
M  V30 31 H -0.215022 -0.991861 2.596999 0
M  V30 32 H -3.214865 -1.092120 2.528359 0
M  V30 33 H -0.134714 0.293745 1.133273 0
M  V30 34 H 3.093011 0.898002 -1.869902 0
M  V30 35 H 4.947949 1.798961 -0.418591 0
M  V30 36 H 0.229636 2.620542 0.822066 0
M  V30 37 H 3.495048 2.473808 3.628911 0
M  V30 38 H 3.817992 4.303950 3.750226 0
M  V30 39 H -3.430938 -0.561351 -2.271098 0
M  V30 40 H 1.525116 -2.082835 1.469950 0
M  V30 41 H 2.273851 -3.629508 -0.342397 0
M  V30 42 H 0.736138 -5.104216 -1.441496 0
M  V30 43 H -1.683560 -5.118018 -0.775937 0
M  V30 44 H -2.423889 -3.594289 1.007152 0
M  V30 END ATOM
M  V30 BEGIN BOND
M  V30 1 1 1 2
M  V30 2 1 2 3
M  V30 3 1 3 4
M  V30 4 2 4 5
M  V30 5 1 5 6
M  V30 6 1 6 7
M  V30 7 1 7 8
M  V30 8 2 8 9
M  V30 9 1 9 10
M  V30 10 2 10 11
M  V30 11 1 11 12
M  V30 12 2 12 13
M  V30 13 1 12 14
M  V30 14 1 14 15
M  V30 15 1 15 16
M  V30 16 2 7 17
M  V30 17 1 17 18
M  V30 18 1 18 19
M  V30 19 1 19 20
M  V30 20 2 20 21
M  V30 21 1 2 22
M  V30 22 2 22 23
M  V30 23 1 23 24
M  V30 24 2 24 25
M  V30 25 1 25 26
M  V30 26 2 26 27
M  V30 27 1 21 4
M  V30 28 1 27 22
M  V30 29 2 19 6
M  V30 30 1 13 8
M  V30 31 1 16 11
M  V30 32 1 1 28
M  V30 33 1 1 29
M  V30 34 1 1 30
M  V30 35 1 2 31 CFG=1
M  V30 36 1 3 32
M  V30 37 1 5 33
M  V30 38 1 9 34
M  V30 39 1 10 35
M  V30 40 1 13 36
M  V30 41 1 15 37
M  V30 42 1 15 38
M  V30 43 1 20 39
M  V30 44 1 23 40
M  V30 45 1 24 41
M  V30 46 1 25 42
M  V30 47 1 26 43
M  V30 48 1 27 44
M  V30 END BOND
M  V30 END CTAB
M  END
>  <Dataset>  (887) 
ChEMBL_Kinases

>  <Ligand_Instance>  (887) 
nan

>  <PDB_ID>  (887) 
nan

>  <Standardized_SMILES>  (887) 
C[C@H](Nc1cc2c(-c3ccc4c(c3)OCO4)noc2cn1)c1ccccc1

>  <Name>  (887) 
nan

>  <Pocket>  (887) 
nan

>  <ATP_Site>  (887) 
nan

>  <Peripheral>  (887) 
nan

>  <Num_H_Atoms_ProtBoundConf>  (887) 
nan

>  <Num_Resolved_Atoms>  (887) 
nan

>  <Num_Not_Resolved_Atoms>  (887) 
nan

$$$$
CHEMBL3680588
     RDKit          3D

  0  0  0  0  0  0  0  0  0  0999 V3000
M  V30 BEGIN CTAB
M  V30 COUNTS 55 58 0 0 0
M  V30 BEGIN ATOM
M  V30 1 C 1.190076 -2.121074 3.078606 0
M  V30 2 C 0.130384 -1.468955 3.861985 0
M  V30 3 C -0.770781 -0.486258 3.210134 0
M  V30 4 N -0.222122 0.682841 2.640180 0
M  V30 5 C 0.773643 1.034235 1.660809 0
M  V30 6 N 1.430948 0.036117 1.061885 0
M  V30 7 C 2.363397 0.309572 0.152337 0
M  V30 8 N 2.704550 1.559449 -0.221214 0
M  V30 9 C 2.056288 2.596295 0.367640 0
M  V30 10 C 2.323728 3.909855 0.063352 0
M  V30 11 C 3.356608 4.129966 -0.941258 0
M  V30 12 N 4.070072 3.089034 -1.593134 0
M  V30 13 O 3.675296 5.294376 -1.289880 0
M  V30 14 C 1.699420 4.992823 0.627867 0
M  V30 15 C 0.723062 4.682807 1.581137 0
M  V30 16 C 0.450544 3.367780 1.890367 0
M  V30 17 C 1.095776 2.324943 1.304205 0
M  V30 18 C -1.810468 -1.182740 2.388885 0
M  V30 19 C -2.977745 -1.673120 2.999980 0
M  V30 20 C -4.021983 -2.329420 2.392807 0
M  V30 21 C -3.919921 -2.529285 1.052288 0
M  V30 22 C -2.826737 -2.089123 0.378609 0
M  V30 23 N -2.692368 -2.286766 -1.038958 0
M  V30 24 C -2.029205 -3.544828 -1.275549 0
M  V30 25 O -1.755255 -4.114883 -0.168408 0
M  V30 26 C -1.753757 -4.012984 -2.675332 0
M  V30 27 C -1.053533 -5.354569 -2.615630 0
M  V30 28 C 0.267787 -4.582092 -2.585483 0
M  V30 29 F 0.583736 -4.264507 -1.296381 0
M  V30 30 F 1.277091 -5.128770 -3.343005 0
M  V30 31 C -0.468369 -3.433340 -3.248763 0
M  V30 32 C -1.817308 -1.441106 1.037464 0
M  V30 33 H 2.166493 -1.574372 3.161750 0
M  V30 34 H 0.944958 -2.473361 2.072724 0
M  V30 35 H 1.431059 -3.090792 3.633792 0
M  V30 36 H 0.634627 -1.027371 4.777078 0
M  V30 37 H -0.524480 -2.268563 4.327015 0
M  V30 38 H -1.394793 -0.107810 4.112577 0
M  V30 39 H -0.656987 1.546913 3.026915 0
M  V30 40 H 2.917555 -0.483735 -0.354322 0
M  V30 41 H 4.826359 2.700756 -0.983974 0
M  V30 42 H 3.863943 2.747929 -2.571713 0
M  V30 43 H 1.977157 5.998130 0.324459 0
M  V30 44 H 0.235701 5.568007 2.020439 0
M  V30 45 H -0.321862 3.317634 2.638102 0
M  V30 46 H -3.077272 -1.519854 4.087568 0
M  V30 47 H -4.866153 -2.657655 2.974776 0
M  V30 48 H -4.694961 -3.033545 0.510857 0
M  V30 49 H -2.992315 -1.679678 -1.842779 0
M  V30 50 H -2.624168 -3.943740 -3.332003 0
M  V30 51 H -1.108152 -5.946986 -3.555004 0
M  V30 52 H -1.239101 -5.909271 -1.674777 0
M  V30 53 H -0.215787 -2.423896 -2.844818 0
M  V30 54 H -0.419694 -3.540141 -4.335721 0
M  V30 55 H -0.969896 -1.105806 0.476765 0
M  V30 END ATOM
M  V30 BEGIN BOND
M  V30 1 1 1 2
M  V30 2 1 2 3
M  V30 3 1 3 4
M  V30 4 1 4 5
M  V30 5 2 5 6
M  V30 6 1 6 7
M  V30 7 2 7 8
M  V30 8 1 8 9
M  V30 9 2 9 10
M  V30 10 1 10 11
M  V30 11 1 11 12
M  V30 12 2 11 13
M  V30 13 1 10 14
M  V30 14 2 14 15
M  V30 15 1 15 16
M  V30 16 2 16 17
M  V30 17 1 3 18
M  V30 18 2 18 19
M  V30 19 1 19 20
M  V30 20 2 20 21
M  V30 21 1 21 22
M  V30 22 1 22 23
M  V30 23 1 23 24
M  V30 24 2 24 25
M  V30 25 1 24 26
M  V30 26 1 26 27
M  V30 27 1 27 28
M  V30 28 1 28 29
M  V30 29 1 28 30
M  V30 30 1 28 31
M  V30 31 2 22 32
M  V30 32 1 17 5
M  V30 33 1 32 18
M  V30 34 1 17 9
M  V30 35 1 31 26
M  V30 36 1 1 33
M  V30 37 1 1 34
M  V30 38 1 1 35
M  V30 39 1 2 36
M  V30 40 1 2 37
M  V30 41 1 3 38
M  V30 42 1 4 39
M  V30 43 1 7 40
M  V30 44 1 12 41
M  V30 45 1 12 42
M  V30 46 1 14 43
M  V30 47 1 15 44
M  V30 48 1 16 45
M  V30 49 1 19 46
M  V30 50 1 20 47
M  V30 51 1 21 48
M  V30 52 1 23 49
M  V30 53 1 26 50
M  V30 54 1 27 51
M  V30 55 1 27 52
M  V30 56 1 31 53
M  V30 57 1 31 54
M  V30 58 1 32 55
M  V30 END BOND
M  V30 END CTAB
M  END
>  <Dataset>  (888) 
ChEMBL_Kinases

>  <Ligand_Instance>  (888) 
nan

>  <PDB_ID>  (888) 
nan

>  <Standardized_SMILES>  (888) 
CCC(Nc1ncnc2c(C(N)=O)cccc12)c1cccc(NC(=O)C2CC(F)(F)C2)c1

>  <Name>  (888) 
nan

>  <Pocket>  (888) 
nan

>  <ATP_Site>  (888) 
nan

>  <Peripheral>  (888) 
nan

>  <Num_H_Atoms_ProtBoundConf>  (888) 
nan

>  <Num_Resolved_Atoms>  (888) 
nan

>  <Num_Not_Resolved_Atoms>  (888) 
nan

$$$$
CHEMBL522351
     RDKit          3D

  0  0  0  0  0  0  0  0  0  0999 V3000
M  V30 BEGIN CTAB
M  V30 COUNTS 62 64 0 0 0
M  V30 BEGIN ATOM
M  V30 1 C 3.043616 -2.480281 -0.537907 0
M  V30 2 C 2.681168 -1.216347 -1.252969 0
M  V30 3 N 1.946393 -0.254526 -0.510185 0
M  V30 4 C 2.493969 0.695900 0.230907 0
M  V30 5 C 3.805647 1.118323 0.656950 0
M  V30 6 N 4.058192 2.220692 1.385087 0
M  V30 7 O 5.297291 2.428060 1.617731 0
M  V30 8 N 6.010545 1.486102 1.070616 0
M  V30 9 C 5.081921 0.677797 0.478000 0
M  V30 10 N 5.569215 -0.450932 -0.162196 0
M  V30 11 N 1.427334 1.396058 0.648964 0
M  V30 12 C 0.313388 0.892872 0.189339 0
M  V30 13 C -0.945532 1.376609 0.443325 0
M  V30 14 C -1.185088 2.527583 1.254985 0
M  V30 15 C -1.393129 3.487453 1.938434 0
M  V30 16 C -1.666566 4.659251 2.786467 0
M  V30 17 C -0.434918 5.190611 3.461191 0
M  V30 18 C -2.733436 4.359662 3.813215 0
M  V30 19 O -2.137976 5.646470 1.918382 0
M  V30 20 N -2.005035 0.713837 -0.116805 0
M  V30 21 C -1.731420 -0.381398 -0.887655 0
M  V30 22 C -0.446691 -0.876425 -1.146839 0
M  V30 23 O -0.280123 -1.908976 -1.886469 0
M  V30 24 C -0.173077 -2.953222 -2.635705 0
M  V30 25 C -0.602121 -4.304171 -2.234168 0
M  V30 26 C -2.017276 -4.502927 -1.886761 0
M  V30 27 N -2.558124 -3.920468 -0.724702 0
M  V30 28 C -2.023346 -4.584892 0.478510 0
M  V30 29 C -2.554707 -4.014365 1.751058 0 CFG=2
M  V30 30 O -2.020483 -4.688365 2.846828 0
M  V30 31 C -4.074196 -4.167503 1.806229 0
M  V30 32 O -4.680584 -3.515355 0.744051 0
M  V30 33 C 0.610185 -0.204469 -0.582984 0
M  V30 34 H 3.249328 -2.211918 0.528174 0
M  V30 35 H 3.971676 -2.945412 -0.915189 0
M  V30 36 H 2.238581 -3.236715 -0.497719 0
M  V30 37 H 2.155607 -1.523973 -2.194481 0
M  V30 38 H 3.623068 -0.775490 -1.693059 0
M  V30 39 H 5.808595 -1.199869 -0.836139 0
M  V30 40 H 5.914012 -1.269853 -0.652855 0
M  V30 41 H -0.111785 6.164595 3.012324 0
M  V30 42 H 0.401984 4.462450 3.490938 0
M  V30 43 H -0.690562 5.436531 4.507677 0
M  V30 44 H -2.422597 4.776004 4.776924 0
M  V30 45 H -2.876724 3.262339 3.895820 0
M  V30 46 H -3.727995 4.754038 3.496657 0
M  V30 47 H -3.003794 5.970889 2.223806 0
M  V30 48 H -2.666904 -0.760362 -1.258111 0
M  V30 49 H -0.744980 -2.767051 -3.676316 0
M  V30 50 H 0.893011 -3.125599 -3.105192 0
M  V30 51 H 0.050386 -4.594019 -1.322923 0
M  V30 52 H -0.301084 -5.053042 -3.052951 0
M  V30 53 H -2.644955 -4.173696 -2.784359 0
M  V30 54 H -2.177149 -5.625484 -1.821196 0
M  V30 55 H -2.476174 -2.929000 -0.605942 0
M  V30 56 H -0.931240 -4.500649 0.431584 0
M  V30 57 H -2.290754 -5.660439 0.428958 0
M  V30 58 H -2.336161 -2.913983 1.850594 0
M  V30 59 H -1.055314 -4.816992 2.793561 0
M  V30 60 H -4.440499 -3.682458 2.752809 0
M  V30 61 H -4.367379 -5.236488 1.891200 0
M  V30 62 H -5.516414 -3.099253 1.064187 0
M  V30 END ATOM
M  V30 BEGIN BOND
M  V30 1 1 1 2
M  V30 2 1 2 3
M  V30 3 1 3 4
M  V30 4 1 4 5
M  V30 5 2 5 6
M  V30 6 1 6 7
M  V30 7 1 7 8
M  V30 8 2 8 9
M  V30 9 1 9 10
M  V30 10 2 4 11
M  V30 11 1 11 12
M  V30 12 2 12 13
M  V30 13 1 13 14
M  V30 14 3 14 15
M  V30 15 1 15 16
M  V30 16 1 16 17
M  V30 17 1 16 18
M  V30 18 1 16 19
M  V30 19 1 13 20
M  V30 20 2 20 21
M  V30 21 1 21 22
M  V30 22 1 22 23
M  V30 23 1 23 24
M  V30 24 1 24 25
M  V30 25 1 25 26
M  V30 26 1 26 27
M  V30 27 1 27 28
M  V30 28 1 28 29
M  V30 29 1 29 30
M  V30 30 1 29 31
M  V30 31 1 31 32
M  V30 32 2 22 33
M  V30 33 1 33 3
M  V30 34 1 9 5
M  V30 35 1 33 12
M  V30 36 1 1 34
M  V30 37 1 1 35
M  V30 38 1 1 36
M  V30 39 1 2 37
M  V30 40 1 2 38
M  V30 41 1 10 39
M  V30 42 1 10 40
M  V30 43 1 17 41
M  V30 44 1 17 42
M  V30 45 1 17 43
M  V30 46 1 18 44
M  V30 47 1 18 45
M  V30 48 1 18 46
M  V30 49 1 19 47
M  V30 50 1 21 48
M  V30 51 1 24 49
M  V30 52 1 24 50
M  V30 53 1 25 51
M  V30 54 1 25 52
M  V30 55 1 26 53
M  V30 56 1 26 54
M  V30 57 1 27 55
M  V30 58 1 28 56
M  V30 59 1 28 57
M  V30 60 1 29 58 CFG=1
M  V30 61 1 30 59
M  V30 62 1 31 60
M  V30 63 1 31 61
M  V30 64 1 32 62
M  V30 END BOND
M  V30 END CTAB
M  END
>  <Dataset>  (889) 
ChEMBL_Kinases

>  <Ligand_Instance>  (889) 
nan

>  <PDB_ID>  (889) 
nan

>  <Standardized_SMILES>  (889) 
CCn1c(-c2nonc2N)nc2c(C#CC(C)(C)O)ncc(OCCCNC[C@H](O)CO)c21

>  <Name>  (889) 
nan

>  <Pocket>  (889) 
nan

>  <ATP_Site>  (889) 
nan

>  <Peripheral>  (889) 
nan

>  <Num_H_Atoms_ProtBoundConf>  (889) 
nan

>  <Num_Resolved_Atoms>  (889) 
nan

>  <Num_Not_Resolved_Atoms>  (889) 
nan

$$$$
CHEMBL3731472
     RDKit          3D

  0  0  0  0  0  0  0  0  0  0999 V3000
M  V30 BEGIN CTAB
M  V30 COUNTS 44 46 0 0 0
M  V30 BEGIN ATOM
M  V30 1 O -0.983497 -2.609432 1.186309 0
M  V30 2 C 0.104564 -3.209895 1.455543 0
M  V30 3 C 1.361082 -2.917776 2.233061 0
M  V30 4 N 1.293429 -1.595284 2.816358 0
M  V30 5 C 1.203390 -0.454572 1.990568 0
M  V30 6 C 1.187835 -0.518931 0.613665 0
M  V30 7 C 1.098682 0.557982 -0.238784 0
M  V30 8 C 1.016145 1.835894 0.321854 0
M  V30 9 C 1.029468 1.937895 1.713217 0
M  V30 10 O 0.942720 3.250404 2.141986 0
M  V30 11 C 2.066812 4.037623 2.352977 0
M  V30 12 C 3.388392 3.660041 2.184601 0
M  V30 13 C 4.422484 4.533477 2.426220 0
M  V30 14 C 4.140775 5.815149 2.845748 0
M  V30 15 C 2.839645 6.263728 3.036019 0
M  V30 16 C 1.857335 5.332522 2.774171 0
M  V30 17 C 1.120569 0.820223 2.510222 0
M  V30 18 N 0.048703 -4.497315 0.817293 0
M  V30 19 N -1.184395 -4.645906 0.119444 0
M  V30 20 C -1.343302 -4.142659 -1.053629 0
M  V30 21 C -2.595172 -4.280117 -1.790117 0
M  V30 22 C -3.647586 -4.965684 -1.226522 0
M  V30 23 Cl -3.565577 -5.688355 0.343163 0
M  V30 24 C -4.809758 -5.062292 -1.976703 0
M  V30 25 N -4.975193 -4.531335 -3.215435 0
M  V30 26 C -3.897494 -3.869414 -3.709090 0
M  V30 27 C -2.700916 -3.717517 -3.045653 0
M  V30 28 Cl -1.348522 -2.849883 -3.742364 0
M  V30 29 H 2.254117 -3.050019 1.593819 0
M  V30 30 H 1.404570 -3.649988 3.064041 0
M  V30 31 H 1.309117 -1.447069 3.854466 0
M  V30 32 H 1.251658 -1.469996 0.106166 0
M  V30 33 H 1.089816 0.455135 -1.316869 0
M  V30 34 H 0.946644 2.669972 -0.355829 0
M  V30 35 H 3.520637 2.627632 1.850323 0
M  V30 36 H 5.415595 4.135607 2.263035 0
M  V30 37 H 4.980196 6.492386 3.031600 0
M  V30 38 H 2.617793 7.251949 3.359524 0
M  V30 39 H 0.834238 5.695672 2.927474 0
M  V30 40 H 1.124193 0.994814 3.583346 0
M  V30 41 H 0.778513 -5.243335 0.833579 0
M  V30 42 H -0.504436 -3.608659 -1.476620 0
M  V30 43 H -5.693642 -5.585245 -1.614137 0
M  V30 44 H -4.001743 -3.428245 -4.710454 0
M  V30 END ATOM
M  V30 BEGIN BOND
M  V30 1 2 1 2
M  V30 2 1 2 3
M  V30 3 1 3 4
M  V30 4 1 4 5
M  V30 5 2 5 6
M  V30 6 1 6 7
M  V30 7 2 7 8
M  V30 8 1 8 9
M  V30 9 1 9 10
M  V30 10 1 10 11
M  V30 11 2 11 12
M  V30 12 1 12 13
M  V30 13 2 13 14
M  V30 14 1 14 15
M  V30 15 2 15 16
M  V30 16 2 9 17
M  V30 17 1 2 18
M  V30 18 1 18 19
M  V30 19 2 19 20
M  V30 20 1 20 21
M  V30 21 2 21 22
M  V30 22 1 22 23
M  V30 23 1 22 24
M  V30 24 2 24 25
M  V30 25 1 25 26
M  V30 26 2 26 27
M  V30 27 1 27 28
M  V30 28 1 17 5
M  V30 29 1 27 21
M  V30 30 1 16 11
M  V30 31 1 3 29
M  V30 32 1 3 30
M  V30 33 1 4 31
M  V30 34 1 6 32
M  V30 35 1 7 33
M  V30 36 1 8 34
M  V30 37 1 12 35
M  V30 38 1 13 36
M  V30 39 1 14 37
M  V30 40 1 15 38
M  V30 41 1 16 39
M  V30 42 1 17 40
M  V30 43 1 18 41
M  V30 44 1 20 42
M  V30 45 1 24 43
M  V30 46 1 26 44
M  V30 END BOND
M  V30 END CTAB
M  END
>  <Dataset>  (890) 
ChEMBL_Kinases

>  <Ligand_Instance>  (890) 
nan

>  <PDB_ID>  (890) 
nan

>  <Standardized_SMILES>  (890) 
O=C(CNc1cccc(Oc2ccccc2)c1)N/N=C/c1c(Cl)cncc1Cl

>  <Name>  (890) 
nan

>  <Pocket>  (890) 
nan

>  <ATP_Site>  (890) 
nan

>  <Peripheral>  (890) 
nan

>  <Num_H_Atoms_ProtBoundConf>  (890) 
nan

>  <Num_Resolved_Atoms>  (890) 
nan

>  <Num_Not_Resolved_Atoms>  (890) 
nan

$$$$
CHEMBL3732018
     RDKit          3D

  0  0  0  0  0  0  0  0  0  0999 V3000
M  V30 BEGIN CTAB
M  V30 COUNTS 37 38 0 0 0
M  V30 BEGIN ATOM
M  V30 1 C -0.219755 -5.484808 1.459753 0
M  V30 2 O -0.126274 -4.282981 0.727865 0
M  V30 3 C 1.084094 -3.879697 0.169203 0
M  V30 4 C 2.189717 -4.684623 0.349168 0
M  V30 5 C 3.384071 -4.280555 -0.205707 0
M  V30 6 C 3.449702 -3.104466 -0.915004 0
M  V30 7 C 2.368177 -2.265342 -1.121438 0
M  V30 8 N 2.432694 -1.054284 -1.854373 0
M  V30 9 C 1.299529 -0.176500 -2.060591 0
M  V30 10 C 0.819951 0.305372 -0.713404 0
M  V30 11 O 1.063785 0.208314 0.515939 0
M  V30 12 N -0.306615 1.183741 -0.830060 0
M  V30 13 N -0.867700 1.715307 0.329512 0
M  V30 14 C -1.266797 2.921007 0.485743 0
M  V30 15 C -1.782825 3.046394 1.845834 0
M  V30 16 C -0.800291 3.427957 2.765528 0
M  V30 17 Cl 0.872723 3.727664 2.351385 0
M  V30 18 C -1.136738 3.587930 4.094862 0
M  V30 19 N -2.396480 3.382140 4.519187 0
M  V30 20 C -3.345463 3.015841 3.643546 0
M  V30 21 C -3.069106 2.840062 2.300566 0
M  V30 22 Cl -4.210147 2.368356 1.070702 0
M  V30 23 C 1.177094 -2.706356 -0.545792 0
M  V30 24 H 0.056855 -5.324333 2.527982 0
M  V30 25 H 0.301543 -6.313945 0.981967 0
M  V30 26 H -1.303225 -5.766649 1.475508 0
M  V30 27 H 2.210427 -5.601620 0.883158 0
M  V30 28 H 4.301881 -4.864441 -0.105954 0
M  V30 29 H 4.394554 -2.800559 -1.344707 0
M  V30 30 H 3.393671 -0.826755 -2.253502 0
M  V30 31 H 0.473779 -0.686090 -2.598465 0
M  V30 32 H 1.672471 0.723322 -2.590647 0
M  V30 33 H -0.837174 1.535672 -1.684127 0
M  V30 34 H -1.162451 3.594033 -0.353457 0
M  V30 35 H -0.397991 3.886128 4.850351 0
M  V30 36 H -4.396016 2.828450 3.908205 0
M  V30 37 H 0.275978 -2.150110 -0.635762 0
M  V30 END ATOM
M  V30 BEGIN BOND
M  V30 1 1 1 2
M  V30 2 1 2 3
M  V30 3 2 3 4
M  V30 4 1 4 5
M  V30 5 2 5 6
M  V30 6 1 6 7
M  V30 7 1 7 8
M  V30 8 1 8 9
M  V30 9 1 9 10
M  V30 10 2 10 11
M  V30 11 1 10 12
M  V30 12 1 12 13
M  V30 13 2 13 14
M  V30 14 1 14 15
M  V30 15 2 15 16
M  V30 16 1 16 17
M  V30 17 1 16 18
M  V30 18 2 18 19
M  V30 19 1 19 20
M  V30 20 2 20 21
M  V30 21 1 21 22
M  V30 22 2 7 23
M  V30 23 1 23 3
M  V30 24 1 21 15
M  V30 25 1 1 24
M  V30 26 1 1 25
M  V30 27 1 1 26
M  V30 28 1 4 27
M  V30 29 1 5 28
M  V30 30 1 6 29
M  V30 31 1 8 30
M  V30 32 1 9 31
M  V30 33 1 9 32
M  V30 34 1 12 33
M  V30 35 1 14 34
M  V30 36 1 18 35
M  V30 37 1 20 36
M  V30 38 1 23 37
M  V30 END BOND
M  V30 END CTAB
M  END
>  <Dataset>  (891) 
ChEMBL_Kinases

>  <Ligand_Instance>  (891) 
nan

>  <PDB_ID>  (891) 
nan

>  <Standardized_SMILES>  (891) 
COc1cccc(NCC(=O)N/N=C/c2c(Cl)cncc2Cl)c1

>  <Name>  (891) 
nan

>  <Pocket>  (891) 
nan

>  <ATP_Site>  (891) 
nan

>  <Peripheral>  (891) 
nan

>  <Num_H_Atoms_ProtBoundConf>  (891) 
nan

>  <Num_Resolved_Atoms>  (891) 
nan

>  <Num_Not_Resolved_Atoms>  (891) 
nan

$$$$
CHEMBL3676285
     RDKit          3D

  0  0  0  0  0  0  0  0  0  0999 V3000
M  V30 BEGIN CTAB
M  V30 COUNTS 50 53 0 0 0
M  V30 BEGIN ATOM
M  V30 1 N 3.265645 -0.194474 3.513256 0
M  V30 2 C 2.855964 0.575373 2.394585 0
M  V30 3 S 3.846106 1.699939 1.263848 0
M  V30 4 C 2.389836 2.104620 0.282606 0
M  V30 5 C 2.333769 3.021279 -0.912444 0
M  V30 6 C 1.159030 3.237403 -1.562768 0
M  V30 7 F 0.054290 2.603294 -1.099025 0
M  V30 8 C 1.208498 4.092180 -2.644732 0
M  V30 9 C 2.401582 4.687568 -3.030718 0
M  V30 10 C 3.573108 4.440885 -2.342181 0
M  V30 11 C 3.543452 3.588894 -1.257486 0
M  V30 12 F 4.698869 3.353145 -0.588030 0
M  V30 13 N 1.486176 1.493970 0.780630 0
M  V30 14 C 1.598153 0.702394 1.832876 0
M  V30 15 C 0.469477 -0.022475 2.406494 0
M  V30 16 O 0.597812 -0.770421 3.408107 0
M  V30 17 N -0.875328 0.047179 1.890806 0
M  V30 18 C -1.730187 -0.757082 2.653266 0
M  V30 19 C -2.303670 -0.071962 3.711217 0
M  V30 20 N -3.149258 -0.769762 4.520650 0
M  V30 21 C -3.395816 -2.083487 4.268814 0
M  V30 22 C -2.805225 -2.716130 3.211182 0
M  V30 23 C -1.951944 -2.082843 2.363101 0
M  V30 24 N -1.372037 -2.773489 1.278100 0
M  V30 25 C -1.641449 -4.194919 1.189080 0
M  V30 26 C -0.703814 -4.922745 0.251206 0
M  V30 27 C -0.883515 -4.399078 -1.165548 0
M  V30 28 C -1.232837 -2.913573 -1.107876 0 CFG=2
M  V30 29 N -0.741450 -2.272099 -2.290963 0
M  V30 30 C -0.534647 -2.400458 0.167260 0
M  V30 31 H 2.882252 0.279536 4.349409 0
M  V30 32 H 3.843142 -1.060465 3.415572 0
M  V30 33 H 0.247455 4.253663 -3.157022 0
M  V30 34 H 2.322424 5.347738 -3.903598 0
M  V30 35 H 4.469475 4.940638 -2.699518 0
M  V30 36 H -1.050441 0.664689 1.055245 0
M  V30 37 H -2.132515 0.967418 3.941980 0
M  V30 38 H -4.070361 -2.582071 4.940025 0
M  V30 39 H -3.078293 -3.760520 3.111086 0
M  V30 40 H -2.673687 -4.404683 0.806370 0
M  V30 41 H -1.498987 -4.658082 2.204935 0
M  V30 42 H 0.340604 -4.947678 0.581508 0
M  V30 43 H -1.064052 -5.972257 0.218984 0
M  V30 44 H 0.007730 -4.619061 -1.751046 0
M  V30 45 H -1.748353 -4.902847 -1.641839 0
M  V30 46 H -2.320144 -2.795594 -0.939952 0
M  V30 47 H -0.218440 -1.389274 -2.108911 0
M  V30 48 H -1.563377 -2.027512 -2.870113 0
M  V30 49 H 0.446660 -2.946380 0.220216 0
M  V30 50 H -0.400160 -1.331820 0.010621 0
M  V30 END ATOM
M  V30 BEGIN BOND
M  V30 1 1 1 2
M  V30 2 1 2 3
M  V30 3 1 3 4
M  V30 4 1 4 5
M  V30 5 2 5 6
M  V30 6 1 6 7
M  V30 7 1 6 8
M  V30 8 2 8 9
M  V30 9 1 9 10
M  V30 10 2 10 11
M  V30 11 1 11 12
M  V30 12 2 4 13
M  V30 13 1 13 14
M  V30 14 1 14 15
M  V30 15 2 15 16
M  V30 16 1 15 17
M  V30 17 1 17 18
M  V30 18 2 18 19
M  V30 19 1 19 20
M  V30 20 2 20 21
M  V30 21 1 21 22
M  V30 22 2 22 23
M  V30 23 1 23 24
M  V30 24 1 24 25
M  V30 25 1 25 26
M  V30 26 1 26 27
M  V30 27 1 27 28
M  V30 28 1 28 29
M  V30 29 1 28 30
M  V30 30 2 14 2
M  V30 31 1 23 18
M  V30 32 1 30 24
M  V30 33 1 11 5
M  V30 34 1 1 31
M  V30 35 1 1 32
M  V30 36 1 8 33
M  V30 37 1 9 34
M  V30 38 1 10 35
M  V30 39 1 17 36
M  V30 40 1 19 37
M  V30 41 1 21 38
M  V30 42 1 22 39
M  V30 43 1 25 40
M  V30 44 1 25 41
M  V30 45 1 26 42
M  V30 46 1 26 43
M  V30 47 1 27 44
M  V30 48 1 27 45
M  V30 49 1 28 46 CFG=1
M  V30 50 1 29 47
M  V30 51 1 29 48
M  V30 52 1 30 49
M  V30 53 1 30 50
M  V30 END BOND
M  V30 END CTAB
M  END
>  <Dataset>  (892) 
ChEMBL_Kinases

>  <Ligand_Instance>  (892) 
nan

>  <PDB_ID>  (892) 
nan

>  <Standardized_SMILES>  (892) 
Nc1sc(-c2c(F)cccc2F)nc1C(=O)Nc1cnccc1N1CCC[C@H](N)C1

>  <Name>  (892) 
nan

>  <Pocket>  (892) 
nan

>  <ATP_Site>  (892) 
nan

>  <Peripheral>  (892) 
nan

>  <Num_H_Atoms_ProtBoundConf>  (892) 
nan

>  <Num_Resolved_Atoms>  (892) 
nan

>  <Num_Not_Resolved_Atoms>  (892) 
nan

$$$$
CHEMBL3680605
     RDKit          3D

  0  0  0  0  0  0  0  0  0  0999 V3000
M  V30 BEGIN CTAB
M  V30 COUNTS 52 55 0 0 0
M  V30 BEGIN ATOM
M  V30 1 N 3.768763 -3.266721 -2.542831 0
M  V30 2 C 3.761528 -3.315075 -1.121284 0
M  V30 3 O 3.990805 -4.426199 -0.549628 0
M  V30 4 C 3.503199 -2.147166 -0.287548 0
M  V30 5 C 3.521999 -2.318050 1.081297 0
M  V30 6 C 3.284362 -1.246449 1.900117 0
M  V30 7 C 3.032837 -0.024633 1.311486 0
M  V30 8 C 3.001589 0.205173 -0.070183 0
M  V30 9 C 2.742365 1.469927 -0.576248 0
M  V30 10 N 2.509492 2.476704 0.400134 0
M  V30 11 C 1.164655 2.785478 0.782112 0
M  V30 12 C 0.894429 3.696943 1.812136 0
M  V30 13 C -0.432283 3.988734 2.158345 0
M  V30 14 C -1.448483 3.363005 1.467288 0
M  V30 15 C -1.232817 2.449797 0.436150 0
M  V30 16 C -2.394453 1.839519 -0.252218 0
M  V30 17 N -2.849565 0.621541 0.381580 0
M  V30 18 C -2.273539 -0.662752 0.328071 0
M  V30 19 O -1.211428 -0.756425 -0.372104 0
M  V30 20 C -2.782123 -1.841335 0.987171 0
M  V30 21 C -3.906376 -1.880838 1.780461 0
M  V30 22 C -4.408606 -2.994459 2.413344 0
M  V30 23 C -3.742577 -4.185908 2.251959 0
M  V30 24 C -4.167906 -5.465932 2.872744 0
M  V30 25 F -4.732295 -5.260973 4.106315 0
M  V30 26 F -5.087941 -6.082514 2.029961 0
M  V30 27 F -3.084775 -6.334063 2.959957 0
M  V30 28 C -2.602603 -4.208991 1.463604 0
M  V30 29 C -2.144073 -3.055657 0.851183 0
M  V30 30 C 0.088736 2.208181 0.146649 0
M  V30 31 N 2.738964 1.577770 -1.904651 0
M  V30 32 C 2.979415 0.490966 -2.692949 0
M  V30 33 N 3.232975 -0.745613 -2.205615 0
M  V30 34 C 3.250251 -0.919801 -0.862380 0
M  V30 35 H 4.521827 -3.467484 -3.266263 0
M  V30 36 H 3.029036 -3.018183 -3.253471 0
M  V30 37 H 3.719837 -3.273949 1.544106 0
M  V30 38 H 3.298743 -1.372042 2.964945 0
M  V30 39 H 2.850846 0.793494 2.009166 0
M  V30 40 H 3.272199 3.016879 0.866112 0
M  V30 41 H 1.711538 4.175891 2.340360 0
M  V30 42 H -0.628962 4.696212 2.957035 0
M  V30 43 H -2.469105 3.605861 1.754609 0
M  V30 44 H -3.241104 2.579747 -0.237046 0
M  V30 45 H -2.105564 1.627347 -1.308222 0
M  V30 46 H -3.731335 0.651249 0.976790 0
M  V30 47 H -4.466442 -0.975080 1.941564 0
M  V30 48 H -5.298072 -2.967675 3.026281 0
M  V30 49 H -2.062127 -5.148901 1.326027 0
M  V30 50 H -1.249101 -3.116895 0.242962 0
M  V30 51 H 0.308935 1.509318 -0.644661 0
M  V30 52 H 2.938674 0.753484 -3.741027 0
M  V30 END ATOM
M  V30 BEGIN BOND
M  V30 1 1 1 2
M  V30 2 2 2 3
M  V30 3 1 2 4
M  V30 4 2 4 5
M  V30 5 1 5 6
M  V30 6 2 6 7
M  V30 7 1 7 8
M  V30 8 2 8 9
M  V30 9 1 9 10
M  V30 10 1 10 11
M  V30 11 2 11 12
M  V30 12 1 12 13
M  V30 13 2 13 14
M  V30 14 1 14 15
M  V30 15 1 15 16
M  V30 16 1 16 17
M  V30 17 1 17 18
M  V30 18 2 18 19
M  V30 19 1 18 20
M  V30 20 2 20 21
M  V30 21 1 21 22
M  V30 22 2 22 23
M  V30 23 1 23 24
M  V30 24 1 24 25
M  V30 25 1 24 26
M  V30 26 1 24 27
M  V30 27 1 23 28
M  V30 28 2 28 29
M  V30 29 2 15 30
M  V30 30 1 9 31
M  V30 31 2 31 32
M  V30 32 1 32 33
M  V30 33 2 33 34
M  V30 34 1 34 4
M  V30 35 1 34 8
M  V30 36 1 30 11
M  V30 37 1 29 20
M  V30 38 1 1 35
M  V30 39 1 1 36
M  V30 40 1 5 37
M  V30 41 1 6 38
M  V30 42 1 7 39
M  V30 43 1 10 40
M  V30 44 1 12 41
M  V30 45 1 13 42
M  V30 46 1 14 43
M  V30 47 1 16 44
M  V30 48 1 16 45
M  V30 49 1 17 46
M  V30 50 1 21 47
M  V30 51 1 22 48
M  V30 52 1 28 49
M  V30 53 1 29 50
M  V30 54 1 30 51
M  V30 55 1 32 52
M  V30 END BOND
M  V30 END CTAB
M  END
>  <Dataset>  (893) 
ChEMBL_Kinases

>  <Ligand_Instance>  (893) 
nan

>  <PDB_ID>  (893) 
nan

>  <Standardized_SMILES>  (893) 
NC(=O)c1cccc2c(Nc3cccc(CNC(=O)c4ccc(C(F)(F)F)cc4)c3)ncnc12

>  <Name>  (893) 
nan

>  <Pocket>  (893) 
nan

>  <ATP_Site>  (893) 
nan

>  <Peripheral>  (893) 
nan

>  <Num_H_Atoms_ProtBoundConf>  (893) 
nan

>  <Num_Resolved_Atoms>  (893) 
nan

>  <Num_Not_Resolved_Atoms>  (893) 
nan

$$$$
CHEMBL5094409
     RDKit          3D

  0  0  0  0  0  0  0  0  0  0999 V3000
M  V30 BEGIN CTAB
M  V30 COUNTS 42 44 0 0 0
M  V30 BEGIN ATOM
M  V30 1 C 0.370300 -4.354393 3.729122 0
M  V30 2 C 0.282661 -3.520573 2.525084 0
M  V30 3 N -0.034577 -4.108356 1.335726 0
M  V30 4 C -0.051561 -3.143640 0.396483 0
M  V30 5 C -0.300659 -3.116461 -0.967012 0
M  V30 6 C -0.219589 -1.884969 -1.613457 0
M  V30 7 C 0.092464 -0.703379 -0.973841 0
M  V30 8 C 0.168208 0.566194 -1.682300 0
M  V30 9 C -0.054627 0.730974 -3.025663 0
M  V30 10 C 0.036787 1.979243 -3.631066 0
M  V30 11 N -0.200742 2.122236 -5.034292 0
M  V30 12 N 0.353051 3.057573 -2.877732 0
M  V30 13 C 0.579579 2.924221 -1.542124 0
M  V30 14 N 0.905038 4.131233 -0.852403 0
M  V30 15 C 0.487382 1.697868 -0.960202 0
M  V30 16 N 0.320006 -0.800921 0.335573 0
M  V30 17 C 0.258381 -1.957560 1.020777 0
M  V30 18 N 0.466864 -2.193764 2.349513 0
M  V30 19 C 0.814465 -1.271794 3.408312 0
M  V30 20 C 0.930575 0.116866 2.763813 0
M  V30 21 C -0.259132 -1.133926 4.461972 0
M  V30 22 C 2.178894 -1.558362 4.007238 0
M  V30 23 H -0.475904 -5.092578 3.753895 0
M  V30 24 H 0.449361 -3.827344 4.677828 0
M  V30 25 H 1.321652 -4.957210 3.647881 0
M  V30 26 H -0.547246 -4.032036 -1.488304 0
M  V30 27 H -0.418482 -1.915879 -2.655909 0
M  V30 28 H -0.302185 -0.118053 -3.610972 0
M  V30 29 H -1.105892 1.973254 -5.569933 0
M  V30 30 H 0.641543 2.414155 -5.598745 0
M  V30 31 H 1.746906 4.750681 -0.711501 0
M  V30 32 H 0.009153 4.411961 -0.385245 0
M  V30 33 H 0.678172 1.635443 0.120951 0
M  V30 34 H -0.060641 0.398376 2.359057 0
M  V30 35 H 1.153652 0.821196 3.589814 0
M  V30 36 H 1.740459 0.116474 2.011072 0
M  V30 37 H 0.039537 -1.589511 5.442130 0
M  V30 38 H -1.252217 -1.516846 4.115888 0
M  V30 39 H -0.459536 -0.056717 4.736988 0
M  V30 40 H 2.206135 -1.076532 5.007833 0
M  V30 41 H 2.431405 -2.622132 4.062142 0
M  V30 42 H 2.945254 -1.087557 3.353322 0
M  V30 END ATOM
M  V30 BEGIN BOND
M  V30 1 1 1 2
M  V30 2 2 2 3
M  V30 3 1 3 4
M  V30 4 2 4 5
M  V30 5 1 5 6
M  V30 6 2 6 7
M  V30 7 1 7 8
M  V30 8 2 8 9
M  V30 9 1 9 10
M  V30 10 1 10 11
M  V30 11 2 10 12
M  V30 12 1 12 13
M  V30 13 1 13 14
M  V30 14 2 13 15
M  V30 15 1 7 16
M  V30 16 2 16 17
M  V30 17 1 17 18
M  V30 18 1 18 19
M  V30 19 1 19 20
M  V30 20 1 19 21
M  V30 21 1 19 22
M  V30 22 1 18 2
M  V30 23 1 17 4
M  V30 24 1 15 8
M  V30 25 1 1 23
M  V30 26 1 1 24
M  V30 27 1 1 25
M  V30 28 1 5 26
M  V30 29 1 6 27
M  V30 30 1 9 28
M  V30 31 1 11 29
M  V30 32 1 11 30
M  V30 33 1 14 31
M  V30 34 1 14 32
M  V30 35 1 15 33
M  V30 36 1 20 34
M  V30 37 1 20 35
M  V30 38 1 20 36
M  V30 39 1 21 37
M  V30 40 1 21 38
M  V30 41 1 21 39
M  V30 42 1 22 40
M  V30 43 1 22 41
M  V30 44 1 22 42
M  V30 END BOND
M  V30 END CTAB
M  END
>  <Dataset>  (894) 
ChEMBL_Kinases

>  <Ligand_Instance>  (894) 
nan

>  <PDB_ID>  (894) 
nan

>  <Standardized_SMILES>  (894) 
Cc1nc2ccc(-c3cc(N)nc(N)c3)nc2n1C(C)(C)C

>  <Name>  (894) 
nan

>  <Pocket>  (894) 
nan

>  <ATP_Site>  (894) 
nan

>  <Peripheral>  (894) 
nan

>  <Num_H_Atoms_ProtBoundConf>  (894) 
nan

>  <Num_Resolved_Atoms>  (894) 
nan

>  <Num_Not_Resolved_Atoms>  (894) 
nan

$$$$
CHEMBL3680602
     RDKit          3D

  0  0  0  0  0  0  0  0  0  0999 V3000
M  V30 BEGIN CTAB
M  V30 COUNTS 48 50 0 0 0
M  V30 BEGIN ATOM
M  V30 1 C 0.682920 -0.741298 4.193966 0
M  V30 2 C 0.823319 -0.746811 2.700307 0
M  V30 3 N 1.726510 0.264671 2.188546 0
M  V30 4 C 1.930273 0.346989 0.805302 0
M  V30 5 N 1.319642 -0.474440 -0.044662 0
M  V30 6 C 1.483168 -0.434202 -1.379421 0
M  V30 7 N 2.299838 0.466177 -1.965586 0
M  V30 8 C 2.966704 1.348277 -1.167524 0
M  V30 9 C 3.812772 2.288627 -1.709124 0
M  V30 10 C 3.981859 2.322390 -3.156893 0
M  V30 11 N 3.296220 1.411971 -4.006643 0
M  V30 12 O 4.735805 3.150035 -3.729690 0
M  V30 13 C 4.498816 3.190970 -0.932733 0
M  V30 14 C 4.311456 3.127901 0.448871 0
M  V30 15 C 3.455587 2.171799 0.954605 0
M  V30 16 C 2.759108 1.258541 0.190936 0
M  V30 17 C -0.537550 -0.630479 2.087822 0
M  V30 18 C -1.102613 0.628721 1.987548 0
M  V30 19 C -2.370460 0.821444 1.427557 0
M  V30 20 C -3.000290 -0.325599 0.991227 0
M  V30 21 C -2.469205 -1.575277 1.077052 0
M  V30 22 N -3.105652 -2.768492 0.631766 0
M  V30 23 C -3.953088 -3.554392 1.479689 0
M  V30 24 O -4.052076 -3.058391 2.633611 0
M  V30 25 C -4.567364 -4.781276 0.914879 0
M  V30 26 C -5.411016 -5.436681 1.986607 0
M  V30 27 F -6.024213 -6.590932 1.549112 0
M  V30 28 F -4.601705 -5.629969 3.082410 0
M  V30 29 F -6.358515 -4.482372 2.369690 0
M  V30 30 C -1.216963 -1.745725 1.632681 0
M  V30 31 H -0.259063 -1.294428 4.432945 0
M  V30 32 H 0.519532 0.276527 4.602004 0
M  V30 33 H 1.580895 -1.228248 4.639220 0
M  V30 34 H 1.241073 -1.741430 2.399414 0
M  V30 35 H 2.152055 0.854492 2.931834 0
M  V30 36 H 0.935239 -1.152520 -1.979068 0
M  V30 37 H 2.479889 1.666727 -4.628831 0
M  V30 38 H 3.598378 0.414134 -4.039238 0
M  V30 39 H 5.146070 3.902340 -1.416753 0
M  V30 40 H 4.839281 3.826330 1.082568 0
M  V30 41 H 3.357888 2.178942 2.023019 0
M  V30 42 H -0.554940 1.507092 2.351817 0
M  V30 43 H -2.829736 1.804155 1.340882 0
M  V30 44 H -3.992672 -0.272679 0.540455 0
M  V30 45 H -2.950606 -3.094069 -0.365721 0
M  V30 46 H -5.280137 -4.466671 0.125671 0
M  V30 47 H -3.845130 -5.472778 0.466031 0
M  V30 48 H -0.707279 -2.697307 1.746569 0
M  V30 END ATOM
M  V30 BEGIN BOND
M  V30 1 1 1 2
M  V30 2 1 2 3
M  V30 3 1 3 4
M  V30 4 2 4 5
M  V30 5 1 5 6
M  V30 6 2 6 7
M  V30 7 1 7 8
M  V30 8 2 8 9
M  V30 9 1 9 10
M  V30 10 1 10 11
M  V30 11 2 10 12
M  V30 12 1 9 13
M  V30 13 2 13 14
M  V30 14 1 14 15
M  V30 15 2 15 16
M  V30 16 1 2 17
M  V30 17 2 17 18
M  V30 18 1 18 19
M  V30 19 2 19 20
M  V30 20 1 20 21
M  V30 21 1 21 22
M  V30 22 1 22 23
M  V30 23 2 23 24
M  V30 24 1 23 25
M  V30 25 1 25 26
M  V30 26 1 26 27
M  V30 27 1 26 28
M  V30 28 1 26 29
M  V30 29 2 21 30
M  V30 30 1 16 4
M  V30 31 1 30 17
M  V30 32 1 16 8
M  V30 33 1 1 31
M  V30 34 1 1 32
M  V30 35 1 1 33
M  V30 36 1 2 34
M  V30 37 1 3 35
M  V30 38 1 6 36
M  V30 39 1 11 37
M  V30 40 1 11 38
M  V30 41 1 13 39
M  V30 42 1 14 40
M  V30 43 1 15 41
M  V30 44 1 18 42
M  V30 45 1 19 43
M  V30 46 1 20 44
M  V30 47 1 22 45
M  V30 48 1 25 46
M  V30 49 1 25 47
M  V30 50 1 30 48
M  V30 END BOND
M  V30 END CTAB
M  END
>  <Dataset>  (895) 
ChEMBL_Kinases

>  <Ligand_Instance>  (895) 
nan

>  <PDB_ID>  (895) 
nan

>  <Standardized_SMILES>  (895) 
CC(Nc1ncnc2c(C(N)=O)cccc12)c1cccc(NC(=O)CC(F)(F)F)c1

>  <Name>  (895) 
nan

>  <Pocket>  (895) 
nan

>  <ATP_Site>  (895) 
nan

>  <Peripheral>  (895) 
nan

>  <Num_H_Atoms_ProtBoundConf>  (895) 
nan

>  <Num_Resolved_Atoms>  (895) 
nan

>  <Num_Not_Resolved_Atoms>  (895) 
nan

$$$$
CHEMBL3680599
     RDKit          3D

  0  0  0  0  0  0  0  0  0  0999 V3000
M  V30 BEGIN CTAB
M  V30 COUNTS 52 55 0 0 0
M  V30 BEGIN ATOM
M  V30 1 C 0.571367 -1.210626 -1.099994 0
M  V30 2 C 1.139403 -1.581882 0.252858 0
M  V30 3 C 0.359366 -0.972317 1.381589 0
M  V30 4 N 0.325632 0.472059 1.361862 0
M  V30 5 C 1.527024 1.225778 1.476254 0
M  V30 6 N 2.702050 0.585910 1.609077 0
M  V30 7 C 3.885262 1.215891 1.726528 0
M  V30 8 N 3.940205 2.571995 1.715029 0
M  V30 9 C 2.806345 3.259729 1.585969 0
M  V30 10 C 2.792655 4.639040 1.566914 0
M  V30 11 C 4.067024 5.337139 1.693130 0
M  V30 12 N 5.326123 4.690907 1.834879 0
M  V30 13 O 4.310174 6.565587 1.703249 0
M  V30 14 C 1.669368 5.427229 1.437705 0
M  V30 15 C 0.478887 4.701841 1.320693 0
M  V30 16 C 0.463026 3.323419 1.336603 0
M  V30 17 C 1.603923 2.602271 1.466823 0
M  V30 18 C -0.951434 -1.597129 1.490450 0
M  V30 19 C -1.744931 -1.009820 2.483227 0
M  V30 20 C -3.023341 -1.512612 2.687821 0
M  V30 21 C -3.505824 -2.560894 1.938583 0
M  V30 22 C -2.743464 -3.151704 0.959122 0
M  V30 23 N -3.306410 -4.224281 0.229929 0
M  V30 24 C -2.769301 -5.012218 -0.818074 0
M  V30 25 O -1.609886 -4.766058 -1.205880 0
M  V30 26 C -3.495192 -6.118049 -1.491535 0
M  V30 27 C -3.211861 -6.328759 -2.989029 0
M  V30 28 C -2.615305 -7.246452 -1.988503 0
M  V30 29 F -1.253020 -7.196330 -1.761961 0
M  V30 30 F -3.112741 -8.534834 -1.941019 0
M  V30 31 C -1.506076 -2.639706 0.785406 0
M  V30 32 H 0.476210 -2.066477 -1.793697 0
M  V30 33 H -0.468142 -0.816998 -0.950498 0
M  V30 34 H 1.207297 -0.416066 -1.545074 0
M  V30 35 H 2.236304 -1.323285 0.301001 0
M  V30 36 H 1.104553 -2.673172 0.348774 0
M  V30 37 H 0.923545 -1.233994 2.319619 0
M  V30 38 H -0.628202 0.859088 1.259493 0
M  V30 39 H 4.817188 0.671004 1.832358 0
M  V30 40 H 5.880208 3.948940 1.314478 0
M  V30 41 H 5.830002 3.950504 1.278045 0
M  V30 42 H 1.727292 6.508195 1.430036 0
M  V30 43 H -0.448657 5.255897 1.215201 0
M  V30 44 H -0.501435 2.856398 1.240262 0
M  V30 45 H -1.476576 -0.184092 3.133563 0
M  V30 46 H -3.680399 -1.099175 3.439704 0
M  V30 47 H -4.524277 -2.923132 2.138526 0
M  V30 48 H -4.286139 -4.535251 0.458554 0
M  V30 49 H -4.527959 -6.356434 -1.164841 0
M  V30 50 H -2.514419 -5.584882 -3.434576 0
M  V30 51 H -4.056026 -6.648068 -3.624584 0
M  V30 52 H -0.845072 -3.040666 0.039640 0
M  V30 END ATOM
M  V30 BEGIN BOND
M  V30 1 1 1 2
M  V30 2 1 2 3
M  V30 3 1 3 4
M  V30 4 1 4 5
M  V30 5 2 5 6
M  V30 6 1 6 7
M  V30 7 2 7 8
M  V30 8 1 8 9
M  V30 9 2 9 10
M  V30 10 1 10 11
M  V30 11 1 11 12
M  V30 12 2 11 13
M  V30 13 1 10 14
M  V30 14 2 14 15
M  V30 15 1 15 16
M  V30 16 2 16 17
M  V30 17 1 3 18
M  V30 18 2 18 19
M  V30 19 1 19 20
M  V30 20 2 20 21
M  V30 21 1 21 22
M  V30 22 1 22 23
M  V30 23 1 23 24
M  V30 24 2 24 25
M  V30 25 1 24 26
M  V30 26 1 26 27
M  V30 27 1 27 28
M  V30 28 1 28 29
M  V30 29 1 28 30
M  V30 30 2 22 31
M  V30 31 1 17 5
M  V30 32 1 31 18
M  V30 33 1 17 9
M  V30 34 1 28 26
M  V30 35 1 1 32
M  V30 36 1 1 33
M  V30 37 1 1 34
M  V30 38 1 2 35
M  V30 39 1 2 36
M  V30 40 1 3 37
M  V30 41 1 4 38
M  V30 42 1 7 39
M  V30 43 1 12 40
M  V30 44 1 12 41
M  V30 45 1 14 42
M  V30 46 1 15 43
M  V30 47 1 16 44
M  V30 48 1 19 45
M  V30 49 1 20 46
M  V30 50 1 21 47
M  V30 51 1 23 48
M  V30 52 1 26 49
M  V30 53 1 27 50
M  V30 54 1 27 51
M  V30 55 1 31 52
M  V30 END BOND
M  V30 END CTAB
M  END
>  <Dataset>  (896) 
ChEMBL_Kinases

>  <Ligand_Instance>  (896) 
nan

>  <PDB_ID>  (896) 
nan

>  <Standardized_SMILES>  (896) 
CCC(Nc1ncnc2c(C(N)=O)cccc12)c1cccc(NC(=O)C2CC2(F)F)c1

>  <Name>  (896) 
nan

>  <Pocket>  (896) 
nan

>  <ATP_Site>  (896) 
nan

>  <Peripheral>  (896) 
nan

>  <Num_H_Atoms_ProtBoundConf>  (896) 
nan

>  <Num_Resolved_Atoms>  (896) 
nan

>  <Num_Not_Resolved_Atoms>  (896) 
nan

$$$$
CHEMBL3680596
     RDKit          3D

  0  0  0  0  0  0  0  0  0  0999 V3000
M  V30 BEGIN CTAB
M  V30 COUNTS 50 53 0 0 0
M  V30 BEGIN ATOM
M  V30 1 N 1.365684 -4.429597 -1.168330 0
M  V30 2 C 2.179979 -3.896882 -1.758101 0
M  V30 3 C 3.210370 -3.233938 -2.512411 0
M  V30 4 C 3.899775 -2.191944 -1.669991 0
M  V30 5 C 5.015117 -2.478608 -0.903927 0
M  V30 6 C 5.611070 -1.470310 -0.146977 0
M  V30 7 N 5.128858 -0.213414 -0.139315 0
M  V30 8 C 4.044082 0.106310 -0.872072 0
M  V30 9 N 3.396652 1.368041 -0.996563 0
M  V30 10 C 2.381581 1.841521 -0.110406 0
M  V30 11 C 1.777569 3.058395 -0.414102 0
M  V30 12 C 0.802516 3.501443 0.458593 0
M  V30 13 C 0.470849 2.748816 1.565027 0
M  V30 14 C 1.061283 1.541027 1.878026 0
M  V30 15 C 0.768355 0.661009 3.027593 0
M  V30 16 N -0.187568 -0.391629 2.740541 0
M  V30 17 C -1.507885 -0.228099 2.307059 0
M  V30 18 N -2.012166 0.973552 2.108555 0
M  V30 19 C -3.248902 1.256070 1.694250 0
M  V30 20 N -4.047424 0.198375 1.460415 0
M  V30 21 C -3.623938 -1.046256 1.633776 0
M  V30 22 C -4.427831 -2.139473 1.400291 0
M  V30 23 C -5.795875 -1.950461 0.945097 0
M  V30 24 N -6.302636 -0.645214 0.742831 0
M  V30 25 O -6.742927 -2.720705 0.655261 0
M  V30 26 C -4.038394 -3.446364 1.565061 0
M  V30 27 C -2.735056 -3.683890 2.000257 0
M  V30 28 C -1.922821 -2.599775 2.236697 0
M  V30 29 C -2.337870 -1.297828 2.063440 0
M  V30 30 C 2.037529 1.099788 1.001992 0
M  V30 31 C 3.422963 -0.882993 -1.642443 0
M  V30 32 H 3.958239 -3.907399 -2.970830 0
M  V30 33 H 2.757399 -2.666732 -3.377867 0
M  V30 34 H 5.399077 -3.506187 -0.918761 0
M  V30 35 H 6.482567 -1.694505 0.452630 0
M  V30 36 H 3.729772 1.921153 -1.796597 0
M  V30 37 H 2.022999 3.662870 -1.274923 0
M  V30 38 H 0.303853 4.433186 0.272608 0
M  V30 39 H -0.280148 3.106549 2.237160 0
M  V30 40 H 0.382446 1.276381 3.890729 0
M  V30 41 H 1.748318 0.288554 3.390128 0
M  V30 42 H 0.229429 -1.312139 2.896629 0
M  V30 43 H -3.676881 2.224299 1.527728 0
M  V30 44 H -6.100736 0.175034 0.118801 0
M  V30 45 H -6.718385 0.297112 0.644394 0
M  V30 46 H -4.752738 -4.228756 1.351620 0
M  V30 47 H -2.410021 -4.716934 2.136859 0
M  V30 48 H -0.940611 -2.840715 2.567242 0
M  V30 49 H 2.584644 0.152716 1.137929 0
M  V30 50 H 2.539361 -0.712891 -2.266336 0
M  V30 END ATOM
M  V30 BEGIN BOND
M  V30 1 3 1 2
M  V30 2 1 2 3
M  V30 3 1 3 4
M  V30 4 2 4 5
M  V30 5 1 5 6
M  V30 6 2 6 7
M  V30 7 1 7 8
M  V30 8 1 8 9
M  V30 9 1 9 10
M  V30 10 2 10 11
M  V30 11 1 11 12
M  V30 12 2 12 13
M  V30 13 1 13 14
M  V30 14 1 14 15
M  V30 15 1 15 16
M  V30 16 1 16 17
M  V30 17 2 17 18
M  V30 18 1 18 19
M  V30 19 2 19 20
M  V30 20 1 20 21
M  V30 21 2 21 22
M  V30 22 1 22 23
M  V30 23 1 23 24
M  V30 24 2 23 25
M  V30 25 1 22 26
M  V30 26 2 26 27
M  V30 27 1 27 28
M  V30 28 2 28 29
M  V30 29 2 14 30
M  V30 30 2 8 31
M  V30 31 1 31 4
M  V30 32 1 30 10
M  V30 33 1 29 17
M  V30 34 1 29 21
M  V30 35 1 3 32
M  V30 36 1 3 33
M  V30 37 1 5 34
M  V30 38 1 6 35
M  V30 39 1 9 36
M  V30 40 1 11 37
M  V30 41 1 12 38
M  V30 42 1 13 39
M  V30 43 1 15 40
M  V30 44 1 15 41
M  V30 45 1 16 42
M  V30 46 1 19 43
M  V30 47 1 24 44
M  V30 48 1 24 45
M  V30 49 1 26 46
M  V30 50 1 27 47
M  V30 51 1 28 48
M  V30 52 1 30 49
M  V30 53 1 31 50
M  V30 END BOND
M  V30 END CTAB
M  END
>  <Dataset>  (897) 
ChEMBL_Kinases

>  <Ligand_Instance>  (897) 
nan

>  <PDB_ID>  (897) 
nan

>  <Standardized_SMILES>  (897) 
N#CCc1ccnc(Nc2cccc(CNc3ncnc4c(C(N)=O)cccc34)c2)c1

>  <Name>  (897) 
nan

>  <Pocket>  (897) 
nan

>  <ATP_Site>  (897) 
nan

>  <Peripheral>  (897) 
nan

>  <Num_H_Atoms_ProtBoundConf>  (897) 
nan

>  <Num_Resolved_Atoms>  (897) 
nan

>  <Num_Not_Resolved_Atoms>  (897) 
nan

$$$$
CHEMBL3680589
     RDKit          3D

  0  0  0  0  0  0  0  0  0  0999 V3000
M  V30 BEGIN CTAB
M  V30 COUNTS 48 50 0 0 0
M  V30 BEGIN ATOM
M  V30 1 C -2.894223 1.994581 1.275429 0
M  V30 2 C -1.956627 1.045892 0.545776 0
M  V30 3 N -0.592386 1.147554 0.818833 0
M  V30 4 C 0.792544 1.249674 1.101500 0
M  V30 5 N 1.459760 1.106095 2.262286 0
M  V30 6 C 2.784860 1.245068 2.350601 0
M  V30 7 N 3.470751 1.535786 1.251016 0
M  V30 8 C 2.909038 1.696170 0.066775 0
M  V30 9 C 3.782872 1.993259 -0.965900 0
M  V30 10 C 5.223706 2.123619 -0.757914 0
M  V30 11 N 5.711025 1.933601 0.563254 0
M  V30 12 O 5.932150 2.399612 -1.786948 0
M  V30 13 C 3.204138 2.163201 -2.229635 0
M  V30 14 C 1.842138 2.033850 -2.393610 0
M  V30 15 C 1.055430 1.737272 -1.308376 0
M  V30 16 C 1.542746 1.552178 -0.020255 0
M  V30 17 C -2.561012 -0.314280 0.588214 0
M  V30 18 C -3.435429 -0.781111 -0.370030 0
M  V30 19 C -4.046138 -2.011489 -0.427106 0
M  V30 20 C -3.731890 -2.869710 0.611538 0
M  V30 21 C -2.865377 -2.470979 1.604594 0
M  V30 22 N -2.617468 -3.445620 2.625148 0
M  V30 23 C -1.506883 -4.196269 2.211236 0
M  V30 24 O -0.908970 -3.960980 1.107537 0
M  V30 25 C -0.771771 -5.345553 2.835225 0
M  V30 26 F -1.560245 -6.478877 2.895228 0
M  V30 27 F -0.191496 -5.037015 4.023592 0
M  V30 28 C 0.351329 -5.657419 1.837567 0
M  V30 29 F 1.113202 -4.485775 1.749487 0
M  V30 30 F 1.154910 -6.659420 2.295589 0
M  V30 31 F -0.152147 -5.883644 0.570253 0
M  V30 32 C -2.277124 -1.222418 1.616747 0
M  V30 33 H -2.625093 3.048805 1.114599 0
M  V30 34 H -3.030839 1.706636 2.319089 0
M  V30 35 H -3.881933 1.850307 0.769172 0
M  V30 36 H -2.110443 1.364251 -0.549364 0
M  V30 37 H -0.925310 0.895975 1.804856 0
M  V30 38 H 3.144008 1.093715 3.358555 0
M  V30 39 H 5.888149 2.533175 1.417359 0
M  V30 40 H 5.874641 0.891392 0.456960 0
M  V30 41 H 3.866049 2.396797 -3.057550 0
M  V30 42 H 1.407753 2.162728 -3.353695 0
M  V30 43 H 0.008803 1.644105 -1.465259 0
M  V30 44 H -3.656545 -0.066867 -1.176913 0
M  V30 45 H -4.722433 -2.231635 -1.261681 0
M  V30 46 H -4.197099 -3.852193 0.598619 0
M  V30 47 H -2.957236 -3.801842 3.560191 0
M  V30 48 H -1.599857 -0.939411 2.412134 0
M  V30 END ATOM
M  V30 BEGIN BOND
M  V30 1 1 1 2
M  V30 2 1 2 3
M  V30 3 1 3 4
M  V30 4 2 4 5
M  V30 5 1 5 6
M  V30 6 2 6 7
M  V30 7 1 7 8
M  V30 8 2 8 9
M  V30 9 1 9 10
M  V30 10 1 10 11
M  V30 11 2 10 12
M  V30 12 1 9 13
M  V30 13 2 13 14
M  V30 14 1 14 15
M  V30 15 2 15 16
M  V30 16 1 2 17
M  V30 17 2 17 18
M  V30 18 1 18 19
M  V30 19 2 19 20
M  V30 20 1 20 21
M  V30 21 1 21 22
M  V30 22 1 22 23
M  V30 23 2 23 24
M  V30 24 1 23 25
M  V30 25 1 25 26
M  V30 26 1 25 27
M  V30 27 1 25 28
M  V30 28 1 28 29
M  V30 29 1 28 30
M  V30 30 1 28 31
M  V30 31 2 21 32
M  V30 32 1 16 4
M  V30 33 1 32 17
M  V30 34 1 16 8
M  V30 35 1 1 33
M  V30 36 1 1 34
M  V30 37 1 1 35
M  V30 38 1 2 36
M  V30 39 1 3 37
M  V30 40 1 6 38
M  V30 41 1 11 39
M  V30 42 1 11 40
M  V30 43 1 13 41
M  V30 44 1 14 42
M  V30 45 1 15 43
M  V30 46 1 18 44
M  V30 47 1 19 45
M  V30 48 1 20 46
M  V30 49 1 22 47
M  V30 50 1 32 48
M  V30 END BOND
M  V30 END CTAB
M  END
>  <Dataset>  (898) 
ChEMBL_Kinases

>  <Ligand_Instance>  (898) 
nan

>  <PDB_ID>  (898) 
nan

>  <Standardized_SMILES>  (898) 
CC(Nc1ncnc2c(C(N)=O)cccc12)c1cccc(NC(=O)C(F)(F)C(F)(F)F)c1

>  <Name>  (898) 
nan

>  <Pocket>  (898) 
nan

>  <ATP_Site>  (898) 
nan

>  <Peripheral>  (898) 
nan

>  <Num_H_Atoms_ProtBoundConf>  (898) 
nan

>  <Num_Resolved_Atoms>  (898) 
nan

>  <Num_Not_Resolved_Atoms>  (898) 
nan

$$$$
CHEMBL5093841
     RDKit          3D

  0  0  0  0  0  0  0  0  0  0999 V3000
M  V30 BEGIN CTAB
M  V30 COUNTS 36 38 0 0 0
M  V30 BEGIN ATOM
M  V30 1 O 1.957124 -3.205526 3.053806 0
M  V30 2 C 0.650205 -3.312272 2.581516 0
M  V30 3 C 0.619059 -3.798413 1.148800 0
M  V30 4 C 1.334286 -2.898248 0.207667 0
M  V30 5 N 0.843467 -1.547250 0.120294 0
M  V30 6 C 1.510587 -0.671998 -0.775897 0
M  V30 7 N 2.585504 -1.110656 -1.455792 0
M  V30 8 C 3.257884 -0.289865 -2.279538 0
M  V30 9 N 2.902515 1.011500 -2.475484 0
M  V30 10 C 1.832601 1.511000 -1.822631 0
M  V30 11 N 1.232523 2.703213 -1.785157 0
M  V30 12 C 0.194929 2.590015 -0.935303 0
M  V30 13 C 0.114482 1.292238 -0.404699 0
M  V30 14 C -0.998056 1.018788 0.487518 0
M  V30 15 C -0.988846 1.817567 1.643189 0
M  V30 16 C -1.954507 1.783461 2.634236 0
M  V30 17 C -2.988099 0.892963 2.448699 0
M  V30 18 C -3.067193 0.076985 1.343070 0
M  V30 19 Cl -4.342303 -1.080132 1.028615 0
M  V30 20 C -2.088309 0.154152 0.400667 0
M  V30 21 C 1.173528 0.642972 -0.993144 0
M  V30 22 H 2.274480 -4.148430 3.171466 0
M  V30 23 H 0.051073 -2.396044 2.748984 0
M  V30 24 H 0.175332 -4.136629 3.184591 0
M  V30 25 H -0.401417 -4.050767 0.819249 0
M  V30 26 H 1.186984 -4.760570 1.154762 0
M  V30 27 H 2.422704 -2.901510 0.459020 0
M  V30 28 H 1.301139 -3.413289 -0.797791 0
M  V30 29 H 0.058955 -1.470083 0.776910 0
M  V30 30 H 4.119208 -0.749060 -2.785140 0
M  V30 31 H 1.573111 3.505052 -2.340176 0
M  V30 32 H -0.419504 3.479609 -0.776936 0
M  V30 33 H -0.192863 2.546790 1.849454 0
M  V30 34 H -1.912750 2.412446 3.507152 0
M  V30 35 H -3.785346 0.800632 3.173327 0
M  V30 36 H -2.018820 -0.425512 -0.520320 0
M  V30 END ATOM
M  V30 BEGIN BOND
M  V30 1 1 1 2
M  V30 2 1 2 3
M  V30 3 1 3 4
M  V30 4 1 4 5
M  V30 5 1 5 6
M  V30 6 2 6 7
M  V30 7 1 7 8
M  V30 8 2 8 9
M  V30 9 1 9 10
M  V30 10 1 10 11
M  V30 11 1 11 12
M  V30 12 2 12 13
M  V30 13 1 13 14
M  V30 14 2 14 15
M  V30 15 1 15 16
M  V30 16 2 16 17
M  V30 17 1 17 18
M  V30 18 1 18 19
M  V30 19 2 18 20
M  V30 20 1 13 21
M  V30 21 1 21 6
M  V30 22 2 21 10
M  V30 23 1 20 14
M  V30 24 1 1 22
M  V30 25 1 2 23
M  V30 26 1 2 24
M  V30 27 1 3 25
M  V30 28 1 3 26
M  V30 29 1 4 27
M  V30 30 1 4 28
M  V30 31 1 5 29
M  V30 32 1 8 30
M  V30 33 1 11 31
M  V30 34 1 12 32
M  V30 35 1 15 33
M  V30 36 1 16 34
M  V30 37 1 17 35
M  V30 38 1 20 36
M  V30 END BOND
M  V30 END CTAB
M  END
>  <Dataset>  (899) 
ChEMBL_Kinases

>  <Ligand_Instance>  (899) 
nan

>  <PDB_ID>  (899) 
nan

>  <Standardized_SMILES>  (899) 
OCCCNc1ncnc2[nH]cc(-c3cccc(Cl)c3)c12

>  <Name>  (899) 
nan

>  <Pocket>  (899) 
nan

>  <ATP_Site>  (899) 
nan

>  <Peripheral>  (899) 
nan

>  <Num_H_Atoms_ProtBoundConf>  (899) 
nan

>  <Num_Resolved_Atoms>  (899) 
nan

>  <Num_Not_Resolved_Atoms>  (899) 
nan

$$$$
CHEMBL3680499
     RDKit          3D

  0  0  0  0  0  0  0  0  0  0999 V3000
M  V30 BEGIN CTAB
M  V30 COUNTS 63 66 0 0 0
M  V30 BEGIN ATOM
M  V30 1 C 5.016817 0.741252 2.733079 0
M  V30 2 O 4.211164 0.119568 1.777345 0
M  V30 3 C 3.953383 -1.142697 2.190165 0
M  V30 4 C 3.084307 -1.951377 1.269923 0
M  V30 5 C 1.725372 -1.326566 1.015818 0
M  V30 6 N 1.726689 -0.067693 0.382377 0
M  V30 7 C 1.690587 1.224623 -0.251248 0
M  V30 8 N 0.724515 2.136573 -0.133199 0
M  V30 9 C 0.816300 3.331627 -0.699984 0
M  V30 10 N 1.899465 3.642841 -1.411420 0
M  V30 11 C 2.915831 2.791569 -1.584287 0
M  V30 12 C 3.950737 3.260687 -2.363666 0
M  V30 13 C 4.005624 4.574175 -2.962913 0
M  V30 14 N 2.925031 5.490112 -2.793202 0
M  V30 15 O 4.993060 4.949227 -3.643204 0
M  V30 16 C 5.000418 2.393812 -2.578081 0
M  V30 17 C 4.999617 1.127887 -2.034918 0
M  V30 18 C 3.916905 0.782217 -1.280713 0
M  V30 19 C 2.814308 1.553427 -0.993750 0
M  V30 20 C 0.781829 -2.340028 0.456565 0
M  V30 21 C 1.112888 -3.633097 0.062349 0
M  V30 22 C 0.158568 -4.504425 -0.419255 0
M  V30 23 C -1.166276 -4.131052 -0.531284 0
M  V30 24 C -1.489475 -2.834407 -0.134652 0
M  V30 25 N -2.882154 -2.576203 -0.288164 0
M  V30 26 C -3.458154 -2.943457 0.964438 0
M  V30 27 O -2.558824 -3.348276 1.741006 0
M  V30 28 C -4.864891 -2.881457 1.344171 0
M  V30 29 C -5.914046 -2.511781 0.544764 0
M  V30 30 C -7.217280 -2.479357 0.985072 0
M  V30 31 C -7.549066 -2.823414 2.280169 0
M  V30 32 O -8.780338 -2.856182 2.904982 0
M  V30 33 C -9.986943 -2.516194 2.260934 0
M  V30 34 C -6.470472 -3.197792 3.084287 0
M  V30 35 C -5.156989 -3.237436 2.663454 0
M  V30 36 C -0.549114 -1.939083 0.352657 0
M  V30 37 H 5.270431 1.792610 2.465613 0
M  V30 38 H 4.595379 0.737335 3.745769 0
M  V30 39 H 5.999047 0.193182 2.707028 0
M  V30 40 H 3.585594 -1.158748 3.242293 0
M  V30 41 H 4.956411 -1.666934 2.262380 0
M  V30 42 H 2.957225 -2.979969 1.690096 0
M  V30 43 H 3.588934 -2.096809 0.317318 0
M  V30 44 H 1.344024 -1.211387 2.098594 0
M  V30 45 H 0.730664 -0.019038 0.723151 0
M  V30 46 H 0.003465 4.026611 -0.567407 0
M  V30 47 H 2.109051 5.936586 -3.277310 0
M  V30 48 H 2.847028 5.927322 -1.854663 0
M  V30 49 H 5.831902 2.725468 -3.186139 0
M  V30 50 H 5.803766 0.446480 -2.191847 0
M  V30 51 H 3.913769 -0.198806 -0.874801 0
M  V30 52 H 2.147856 -3.933197 0.140417 0
M  V30 53 H 0.468264 -5.511339 -0.717765 0
M  V30 54 H -1.862915 -4.862163 -0.916564 0
M  V30 55 H -3.571672 -2.213507 -1.019289 0
M  V30 56 H -5.677743 -2.238550 -0.467833 0
M  V30 57 H -8.050893 -2.191449 0.370559 0
M  V30 58 H -10.439232 -1.663499 2.825778 0
M  V30 59 H -9.890223 -2.234544 1.207845 0
M  V30 60 H -10.721687 -3.369106 2.319814 0
M  V30 61 H -6.618916 -3.490729 4.136002 0
M  V30 62 H -4.360802 -3.535104 3.334647 0
M  V30 63 H -0.993582 -1.020908 0.596995 0
M  V30 END ATOM
M  V30 BEGIN BOND
M  V30 1 1 1 2
M  V30 2 1 2 3
M  V30 3 1 3 4
M  V30 4 1 4 5
M  V30 5 1 5 6
M  V30 6 1 6 7
M  V30 7 2 7 8
M  V30 8 1 8 9
M  V30 9 2 9 10
M  V30 10 1 10 11
M  V30 11 2 11 12
M  V30 12 1 12 13
M  V30 13 1 13 14
M  V30 14 2 13 15
M  V30 15 1 12 16
M  V30 16 2 16 17
M  V30 17 1 17 18
M  V30 18 2 18 19
M  V30 19 1 5 20
M  V30 20 2 20 21
M  V30 21 1 21 22
M  V30 22 2 22 23
M  V30 23 1 23 24
M  V30 24 1 24 25
M  V30 25 1 25 26
M  V30 26 2 26 27
M  V30 27 1 26 28
M  V30 28 2 28 29
M  V30 29 1 29 30
M  V30 30 2 30 31
M  V30 31 1 31 32
M  V30 32 1 32 33
M  V30 33 1 31 34
M  V30 34 2 34 35
M  V30 35 2 24 36
M  V30 36 1 19 7
M  V30 37 1 36 20
M  V30 38 1 19 11
M  V30 39 1 35 28
M  V30 40 1 1 37
M  V30 41 1 1 38
M  V30 42 1 1 39
M  V30 43 1 3 40
M  V30 44 1 3 41
M  V30 45 1 4 42
M  V30 46 1 4 43
M  V30 47 1 5 44
M  V30 48 1 6 45
M  V30 49 1 9 46
M  V30 50 1 14 47
M  V30 51 1 14 48
M  V30 52 1 16 49
M  V30 53 1 17 50
M  V30 54 1 18 51
M  V30 55 1 21 52
M  V30 56 1 22 53
M  V30 57 1 23 54
M  V30 58 1 25 55
M  V30 59 1 29 56
M  V30 60 1 30 57
M  V30 61 1 33 58
M  V30 62 1 33 59
M  V30 63 1 33 60
M  V30 64 1 34 61
M  V30 65 1 35 62
M  V30 66 1 36 63
M  V30 END BOND
M  V30 END CTAB
M  END
>  <Dataset>  (900) 
ChEMBL_Kinases

>  <Ligand_Instance>  (900) 
nan

>  <PDB_ID>  (900) 
nan

>  <Standardized_SMILES>  (900) 
COCCC(Nc1ncnc2c(C(N)=O)cccc12)c1cccc(NC(=O)c2ccc(OC)cc2)c1

>  <Name>  (900) 
nan

>  <Pocket>  (900) 
nan

>  <ATP_Site>  (900) 
nan

>  <Peripheral>  (900) 
nan

>  <Num_H_Atoms_ProtBoundConf>  (900) 
nan

>  <Num_Resolved_Atoms>  (900) 
nan

>  <Num_Not_Resolved_Atoms>  (900) 
nan

$$$$
CHEMBL3680497
     RDKit          3D

  0  0  0  0  0  0  0  0  0  0999 V3000
M  V30 BEGIN CTAB
M  V30 COUNTS 57 60 0 0 0
M  V30 BEGIN ATOM
M  V30 1 N 6.114586 -3.994650 3.559563 0
M  V30 2 C 5.186018 -3.194748 2.843159 0
M  V30 3 O 4.177883 -3.935965 2.602541 0
M  V30 4 C 5.306396 -1.801115 2.436439 0
M  V30 5 C 6.440974 -1.070910 2.745065 0
M  V30 6 C 6.462469 0.259320 2.311250 0
M  V30 7 C 5.380211 0.758534 1.617438 0
M  V30 8 C 4.263996 0.030324 1.316980 0
M  V30 9 C 3.235700 0.610253 0.622148 0
M  V30 10 N 3.228034 1.947926 0.167624 0
M  V30 11 C 2.181264 2.598879 -0.558401 0
M  V30 12 C 0.882818 2.719876 0.104762 0
M  V30 13 C 0.771550 3.861804 0.911384 0
M  V30 14 C -0.414822 4.081654 1.579064 0
M  V30 15 C -1.448067 3.205463 1.452183 0
M  V30 16 C -1.395744 2.087064 0.686918 0
M  V30 17 N -2.510214 1.220480 0.602805 0
M  V30 18 C -2.733376 0.011766 -0.099415 0
M  V30 19 O -1.774179 -0.404985 -0.796930 0
M  V30 20 C -3.970361 -0.743910 -0.055870 0
M  V30 21 C -5.108737 -0.425754 0.649817 0
M  V30 22 C -6.251699 -1.184353 0.651556 0
M  V30 23 N -6.259026 -2.314309 -0.086076 0
M  V30 24 C -5.189615 -2.700164 -0.806008 0
M  V30 25 N -5.197533 -3.891354 -1.582720 0
M  V30 26 C -5.567641 -4.171970 -2.953577 0
M  V30 27 C -5.383471 -5.638157 -3.290177 0
M  V30 28 O -4.044590 -6.019892 -3.120346 0
M  V30 29 C -4.066938 -1.912361 -0.779768 0
M  V30 30 C -0.209439 1.886899 0.032043 0
M  V30 31 N 2.194624 -0.202535 0.386381 0
M  V30 32 C 2.145809 -1.481280 0.789683 0
M  V30 33 N 3.153739 -2.050021 1.470790 0
M  V30 34 C 4.236349 -1.281281 1.741587 0
M  V30 35 H 5.900503 -3.974870 4.567153 0
M  V30 36 H 6.720711 -4.341475 2.766264 0
M  V30 37 H 7.268325 -1.496017 3.289675 0
M  V30 38 H 7.350154 0.831914 2.552313 0
M  V30 39 H 5.493583 1.776296 1.333006 0
M  V30 40 H 4.017402 2.610952 0.327553 0
M  V30 41 H 2.426249 3.564052 -1.004781 0
M  V30 42 H 1.990150 1.928343 -1.457025 0
M  V30 43 H 1.559024 4.592544 1.049969 0
M  V30 44 H -0.528298 4.951339 2.205998 0
M  V30 45 H -2.367139 3.434380 2.008398 0
M  V30 46 H -3.365915 1.497040 1.161749 0
M  V30 47 H -5.101472 0.475409 1.237508 0
M  V30 48 H -7.120199 -0.888600 1.224688 0
M  V30 49 H -4.847142 -4.609939 -0.905824 0
M  V30 50 H -6.651486 -3.946409 -3.105797 0
M  V30 51 H -4.953005 -3.597495 -3.673915 0
M  V30 52 H -5.661145 -5.793806 -4.350192 0
M  V30 53 H -5.991342 -6.307224 -2.650405 0
M  V30 54 H -3.870894 -6.872603 -3.589736 0
M  V30 55 H -3.218264 -2.240295 -1.365233 0
M  V30 56 H -0.053593 1.047560 -0.603225 0
M  V30 57 H 1.228840 -2.015376 0.521057 0
M  V30 END ATOM
M  V30 BEGIN BOND
M  V30 1 1 1 2
M  V30 2 2 2 3
M  V30 3 1 2 4
M  V30 4 2 4 5
M  V30 5 1 5 6
M  V30 6 2 6 7
M  V30 7 1 7 8
M  V30 8 2 8 9
M  V30 9 1 9 10
M  V30 10 1 10 11
M  V30 11 1 11 12
M  V30 12 2 12 13
M  V30 13 1 13 14
M  V30 14 2 14 15
M  V30 15 1 15 16
M  V30 16 1 16 17
M  V30 17 1 17 18
M  V30 18 2 18 19
M  V30 19 1 18 20
M  V30 20 2 20 21
M  V30 21 1 21 22
M  V30 22 2 22 23
M  V30 23 1 23 24
M  V30 24 1 24 25
M  V30 25 1 25 26
M  V30 26 1 26 27
M  V30 27 1 27 28
M  V30 28 2 24 29
M  V30 29 2 16 30
M  V30 30 1 9 31
M  V30 31 2 31 32
M  V30 32 1 32 33
M  V30 33 2 33 34
M  V30 34 1 34 4
M  V30 35 1 34 8
M  V30 36 1 30 12
M  V30 37 1 29 20
M  V30 38 1 1 35
M  V30 39 1 1 36
M  V30 40 1 5 37
M  V30 41 1 6 38
M  V30 42 1 7 39
M  V30 43 1 10 40
M  V30 44 1 11 41
M  V30 45 1 11 42
M  V30 46 1 13 43
M  V30 47 1 14 44
M  V30 48 1 15 45
M  V30 49 1 17 46
M  V30 50 1 21 47
M  V30 51 1 22 48
M  V30 52 1 25 49
M  V30 53 1 26 50
M  V30 54 1 26 51
M  V30 55 1 27 52
M  V30 56 1 27 53
M  V30 57 1 28 54
M  V30 58 1 29 55
M  V30 59 1 30 56
M  V30 60 1 32 57
M  V30 END BOND
M  V30 END CTAB
M  END
>  <Dataset>  (901) 
ChEMBL_Kinases

>  <Ligand_Instance>  (901) 
nan

>  <PDB_ID>  (901) 
nan

>  <Standardized_SMILES>  (901) 
NC(=O)c1cccc2c(NCc3cccc(NC(=O)c4ccnc(NCCO)c4)c3)ncnc12

>  <Name>  (901) 
nan

>  <Pocket>  (901) 
nan

>  <ATP_Site>  (901) 
nan

>  <Peripheral>  (901) 
nan

>  <Num_H_Atoms_ProtBoundConf>  (901) 
nan

>  <Num_Resolved_Atoms>  (901) 
nan

>  <Num_Not_Resolved_Atoms>  (901) 
nan

$$$$
CHEMBL3680444
     RDKit          3D

  0  0  0  0  0  0  0  0  0  0999 V3000
M  V30 BEGIN CTAB
M  V30 COUNTS 52 55 0 0 0
M  V30 BEGIN ATOM
M  V30 1 C 1.210257 -3.420458 8.511192 0
M  V30 2 O 2.324242 -3.619567 7.680444 0
M  V30 3 C 2.524411 -3.041806 6.456294 0
M  V30 4 C 3.626906 -3.250071 5.653811 0
M  V30 5 C 3.750584 -2.615350 4.410859 0
M  V30 6 C 2.774663 -1.757874 3.941953 0
M  V30 7 C 2.965744 -1.130959 2.641512 0
M  V30 8 O 4.020485 -1.426877 2.044496 0
M  V30 9 N 2.071367 -0.238180 2.023232 0
M  V30 10 C 2.173891 0.414970 0.770493 0
M  V30 11 C 3.181785 0.319663 -0.128111 0
M  V30 12 C 3.257262 0.967129 -1.342125 0
M  V30 13 C 2.206329 1.793774 -1.679720 0
M  V30 14 C 1.139656 1.924517 -0.781649 0
M  V30 15 C 0.073391 2.850887 -1.239509 0
M  V30 16 N -0.816375 2.112738 -2.111921 0
M  V30 17 C -1.608859 0.990743 -1.814807 0
M  V30 18 N -1.639390 0.435276 -0.597483 0
M  V30 19 C -2.404417 -0.631191 -0.336745 0
M  V30 20 N -3.192401 -1.229746 -1.244531 0
M  V30 21 C -3.190174 -0.702708 -2.478187 0
M  V30 22 C -3.990429 -1.301235 -3.422344 0
M  V30 23 C -4.796489 -2.460976 -3.062649 0
M  V30 24 N -4.798310 -3.017196 -1.758797 0
M  V30 25 O -5.540015 -3.037897 -3.890911 0
M  V30 26 C -4.057551 -0.838155 -4.709596 0
M  V30 27 C -3.274873 0.271157 -5.019305 0
M  V30 28 C -2.492451 0.838719 -4.054690 0
M  V30 29 C -2.409708 0.392118 -2.760275 0
M  V30 30 C 1.142656 1.249072 0.399609 0
M  V30 31 C 1.694509 -1.584873 4.782569 0
M  V30 32 N 1.590573 -2.202076 5.973934 0
M  V30 33 H 1.149936 -4.242145 9.248312 0
M  V30 34 H 1.257009 -2.474781 9.108777 0
M  V30 35 H 0.310017 -3.452509 7.868360 0
M  V30 36 H 4.407179 -3.925333 6.010636 0
M  V30 37 H 4.669280 -2.853441 3.855045 0
M  V30 38 H 1.236549 -0.081299 2.631209 0
M  V30 39 H 4.028377 -0.311472 0.082442 0
M  V30 40 H 4.091622 0.848330 -2.015611 0
M  V30 41 H 2.245979 2.318004 -2.639987 0
M  V30 42 H -0.490220 3.224732 -0.344319 0
M  V30 43 H 0.531777 3.684590 -1.767481 0
M  V30 44 H -0.838011 2.496386 -3.061908 0
M  V30 45 H -2.374601 -1.022873 0.672603 0
M  V30 46 H -5.279764 -2.793913 -0.857478 0
M  V30 47 H -4.332169 -3.808707 -1.288330 0
M  V30 48 H -4.685103 -1.307301 -5.450473 0
M  V30 49 H -3.354843 0.608604 -6.048667 0
M  V30 50 H -1.938630 1.678434 -4.403016 0
M  V30 51 H 0.301133 1.384787 1.079382 0
M  V30 52 H 0.911556 -0.920203 4.447148 0
M  V30 END ATOM
M  V30 BEGIN BOND
M  V30 1 1 1 2
M  V30 2 1 2 3
M  V30 3 2 3 4
M  V30 4 1 4 5
M  V30 5 2 5 6
M  V30 6 1 6 7
M  V30 7 2 7 8
M  V30 8 1 7 9
M  V30 9 1 9 10
M  V30 10 2 10 11
M  V30 11 1 11 12
M  V30 12 2 12 13
M  V30 13 1 13 14
M  V30 14 1 14 15
M  V30 15 1 15 16
M  V30 16 1 16 17
M  V30 17 2 17 18
M  V30 18 1 18 19
M  V30 19 2 19 20
M  V30 20 1 20 21
M  V30 21 2 21 22
M  V30 22 1 22 23
M  V30 23 1 23 24
M  V30 24 2 23 25
M  V30 25 1 22 26
M  V30 26 2 26 27
M  V30 27 1 27 28
M  V30 28 2 28 29
M  V30 29 2 14 30
M  V30 30 1 6 31
M  V30 31 2 31 32
M  V30 32 1 32 3
M  V30 33 1 30 10
M  V30 34 1 29 17
M  V30 35 1 29 21
M  V30 36 1 1 33
M  V30 37 1 1 34
M  V30 38 1 1 35
M  V30 39 1 4 36
M  V30 40 1 5 37
M  V30 41 1 9 38
M  V30 42 1 11 39
M  V30 43 1 12 40
M  V30 44 1 13 41
M  V30 45 1 15 42
M  V30 46 1 15 43
M  V30 47 1 16 44
M  V30 48 1 19 45
M  V30 49 1 24 46
M  V30 50 1 24 47
M  V30 51 1 26 48
M  V30 52 1 27 49
M  V30 53 1 28 50
M  V30 54 1 30 51
M  V30 55 1 31 52
M  V30 END BOND
M  V30 END CTAB
M  END
>  <Dataset>  (902) 
ChEMBL_Kinases

>  <Ligand_Instance>  (902) 
nan

>  <PDB_ID>  (902) 
nan

>  <Standardized_SMILES>  (902) 
COc1ccc(C(=O)Nc2cccc(CNc3ncnc4c(C(N)=O)cccc34)c2)cn1

>  <Name>  (902) 
nan

>  <Pocket>  (902) 
nan

>  <ATP_Site>  (902) 
nan

>  <Peripheral>  (902) 
nan

>  <Num_H_Atoms_ProtBoundConf>  (902) 
nan

>  <Num_Resolved_Atoms>  (902) 
nan

>  <Num_Not_Resolved_Atoms>  (902) 
nan

$$$$
CHEMBL3680446
     RDKit          3D

  0  0  0  0  0  0  0  0  0  0999 V3000
M  V30 BEGIN CTAB
M  V30 COUNTS 56 59 0 0 0
M  V30 BEGIN ATOM
M  V30 1 C 5.509721 -2.186424 6.801337 0
M  V30 2 O 4.464390 -1.274300 7.143019 0
M  V30 3 C 3.804229 -0.644258 6.108943 0
M  V30 4 C 4.116055 -0.863464 4.783020 0
M  V30 5 C 3.494128 -0.265487 3.706309 0
M  V30 6 C 2.473684 0.628464 3.957853 0
M  V30 7 C 1.740035 1.323996 2.915569 0
M  V30 8 O 0.804065 2.143180 3.166896 0
M  V30 9 N 2.000295 1.152961 1.529172 0
M  V30 10 C 1.286611 1.830586 0.491540 0
M  V30 11 C 1.762248 3.065178 0.042147 0
M  V30 12 C 1.074313 3.739702 -0.972471 0
M  V30 13 C -0.066071 3.192610 -1.527658 0
M  V30 14 C -0.535660 1.971621 -1.082560 0
M  V30 15 C -1.734727 1.235278 -1.557326 0
M  V30 16 C -2.762631 1.324117 -0.433965 0
M  V30 17 N -1.383394 -0.159393 -1.740460 0
M  V30 18 C -2.419319 -1.014114 -2.194252 0
M  V30 19 N -3.658873 -0.581515 -2.446084 0
M  V30 20 C -4.670190 -1.354135 -2.876726 0
M  V30 21 N -4.492081 -2.682438 -3.093839 0
M  V30 22 C -3.275756 -3.201892 -2.865722 0
M  V30 23 C -3.065335 -4.552510 -3.078470 0
M  V30 24 C -4.165931 -5.387255 -3.545910 0
M  V30 25 N -5.452227 -4.829649 -3.785511 0
M  V30 26 O -4.002835 -6.614820 -3.746955 0
M  V30 27 C -1.831929 -5.126429 -2.856575 0
M  V30 28 C -0.804700 -4.298720 -2.410571 0
M  V30 29 C -1.055370 -2.962974 -2.211784 0
M  V30 30 C -2.272703 -2.365798 -2.424641 0
M  V30 31 C 0.131207 1.294467 -0.083260 0
M  V30 32 C 2.119703 0.885782 5.266855 0
M  V30 33 C 2.770601 0.263301 6.316137 0
M  V30 34 F 2.381400 0.553628 7.583775 0
M  V30 35 H 6.209403 -1.607852 6.172835 0
M  V30 36 H 5.112425 -3.004732 6.157832 0
M  V30 37 H 5.992785 -2.639484 7.667463 0
M  V30 38 H 4.914226 -1.559808 4.519482 0
M  V30 39 H 3.779530 -0.474378 2.684030 0
M  V30 40 H 2.750044 0.501516 1.217785 0
M  V30 41 H 2.648784 3.540923 0.439627 0
M  V30 42 H 1.388620 4.702185 -1.368653 0
M  V30 43 H -0.658997 3.644831 -2.314769 0
M  V30 44 H -2.160018 1.686392 -2.477602 0
M  V30 45 H -2.557866 0.471512 0.256593 0
M  V30 46 H -2.606963 2.248651 0.162072 0
M  V30 47 H -3.800624 1.258050 -0.786364 0
M  V30 48 H -0.411333 -0.462311 -1.535716 0
M  V30 49 H -5.597712 -0.799502 -3.018963 0
M  V30 50 H -6.027691 -4.570324 -4.641030 0
M  V30 51 H -6.063705 -4.555499 -4.587753 0
M  V30 52 H -1.698897 -6.180651 -3.031152 0
M  V30 53 H 0.171388 -4.753760 -2.235141 0
M  V30 54 H -0.220252 -2.408879 -1.872965 0
M  V30 55 H -0.149313 0.339202 0.335456 0
M  V30 56 H 1.326721 1.578756 5.501947 0
M  V30 END ATOM
M  V30 BEGIN BOND
M  V30 1 1 1 2
M  V30 2 1 2 3
M  V30 3 2 3 4
M  V30 4 1 4 5
M  V30 5 2 5 6
M  V30 6 1 6 7
M  V30 7 2 7 8
M  V30 8 1 7 9
M  V30 9 1 9 10
M  V30 10 2 10 11
M  V30 11 1 11 12
M  V30 12 2 12 13
M  V30 13 1 13 14
M  V30 14 1 14 15
M  V30 15 1 15 16
M  V30 16 1 15 17
M  V30 17 1 17 18
M  V30 18 2 18 19
M  V30 19 1 19 20
M  V30 20 2 20 21
M  V30 21 1 21 22
M  V30 22 2 22 23
M  V30 23 1 23 24
M  V30 24 1 24 25
M  V30 25 2 24 26
M  V30 26 1 23 27
M  V30 27 2 27 28
M  V30 28 1 28 29
M  V30 29 2 29 30
M  V30 30 2 14 31
M  V30 31 1 6 32
M  V30 32 2 32 33
M  V30 33 1 33 34
M  V30 34 1 33 3
M  V30 35 1 31 10
M  V30 36 1 30 18
M  V30 37 1 30 22
M  V30 38 1 1 35
M  V30 39 1 1 36
M  V30 40 1 1 37
M  V30 41 1 4 38
M  V30 42 1 5 39
M  V30 43 1 9 40
M  V30 44 1 11 41
M  V30 45 1 12 42
M  V30 46 1 13 43
M  V30 47 1 15 44
M  V30 48 1 16 45
M  V30 49 1 16 46
M  V30 50 1 16 47
M  V30 51 1 17 48
M  V30 52 1 20 49
M  V30 53 1 25 50
M  V30 54 1 25 51
M  V30 55 1 27 52
M  V30 56 1 28 53
M  V30 57 1 29 54
M  V30 58 1 31 55
M  V30 59 1 32 56
M  V30 END BOND
M  V30 END CTAB
M  END
>  <Dataset>  (903) 
ChEMBL_Kinases

>  <Ligand_Instance>  (903) 
nan

>  <PDB_ID>  (903) 
nan

>  <Standardized_SMILES>  (903) 
COc1ccc(C(=O)Nc2cccc(C(C)Nc3ncnc4c(C(N)=O)cccc34)c2)cc1F

>  <Name>  (903) 
nan

>  <Pocket>  (903) 
nan

>  <ATP_Site>  (903) 
nan

>  <Peripheral>  (903) 
nan

>  <Num_H_Atoms_ProtBoundConf>  (903) 
nan

>  <Num_Resolved_Atoms>  (903) 
nan

>  <Num_Not_Resolved_Atoms>  (903) 
nan

$$$$
CHEMBL3680447
     RDKit          3D

  0  0  0  0  0  0  0  0  0  0999 V3000
M  V30 BEGIN CTAB
M  V30 COUNTS 66 69 0 0 0
M  V30 BEGIN ATOM
M  V30 1 C 2.884174 -0.610152 4.186040 0
M  V30 2 C 3.232009 0.733280 3.578600 0
M  V30 3 N 2.035701 1.512245 3.281792 0
M  V30 4 C 1.324326 2.028126 4.420543 0
M  V30 5 C 0.620284 1.022955 5.268937 0
M  V30 6 C 1.646497 1.700597 1.934001 0
M  V30 7 C 2.354786 1.262241 0.842690 0
M  V30 8 C 1.961262 1.361999 -0.478823 0
M  V30 9 C 0.719753 1.968663 -0.720941 0
M  V30 10 C 0.324414 1.969305 -2.120999 0
M  V30 11 O 1.085361 1.759327 -3.099211 0
M  V30 12 N -1.041536 2.218957 -2.371273 0
M  V30 13 C -1.879909 2.271146 -3.551509 0
M  V30 14 C -2.320516 3.194582 -4.472267 0
M  V30 15 C -3.143846 2.786428 -5.472163 0
M  V30 16 C -3.611479 1.521787 -5.690577 0
M  V30 17 C -3.235415 0.522328 -4.833482 0
M  V30 18 C -3.498725 -0.959998 -4.739473 0
M  V30 19 C -4.061319 -1.502382 -5.980687 0
M  V30 20 N -2.287140 -1.618967 -4.266420 0
M  V30 21 C -1.125767 -2.246706 -3.827042 0
M  V30 22 N 0.002321 -2.572551 -4.488786 0
M  V30 23 C 1.033863 -3.159632 -3.879944 0
M  V30 24 N 0.921079 -3.414509 -2.578523 0
M  V30 25 C -0.134668 -3.141500 -1.830950 0
M  V30 26 C -0.155882 -3.427722 -0.506043 0
M  V30 27 C 0.885495 -3.979802 0.292941 0
M  V30 28 N 1.465087 -4.438804 1.445604 0
M  V30 29 O 1.872132 -4.157165 -0.545234 0
M  V30 30 C -1.270767 -3.132096 0.288687 0
M  V30 31 C -2.387442 -2.522478 -0.308146 0
M  V30 32 C -2.272199 -2.267194 -1.652511 0
M  V30 33 C -1.209392 -2.537536 -2.458421 0
M  V30 34 C -2.373439 0.956973 -3.788955 0
M  V30 35 C -0.099751 2.459785 0.289953 0
M  V30 36 C 0.462564 2.273370 1.563678 0
M  V30 37 H 2.688200 -0.527812 5.265918 0
M  V30 38 H 2.077325 -1.117274 3.608925 0
M  V30 39 H 3.799613 -1.246423 4.026644 0
M  V30 40 H 3.916357 0.625186 2.720933 0
M  V30 41 H 3.864172 1.280348 4.343499 0
M  V30 42 H 0.595577 2.809882 4.083359 0
M  V30 43 H 2.072753 2.549693 5.120373 0
M  V30 44 H 1.132549 0.850490 6.262105 0
M  V30 45 H 0.398697 0.072635 4.797294 0
M  V30 46 H -0.398139 1.435831 5.579546 0
M  V30 47 H 3.307930 0.789185 0.942114 0
M  V30 48 H 2.568130 0.991095 -1.292941 0
M  V30 49 H -1.810094 2.449655 -1.710185 0
M  V30 50 H -1.911371 4.146867 -4.234974 0
M  V30 51 H -3.470134 3.563036 -6.166026 0
M  V30 52 H -4.256856 1.139064 -6.445011 0
M  V30 53 H -4.280983 -1.031278 -3.924614 0
M  V30 54 H -4.738176 -0.841187 -6.527639 0
M  V30 55 H -4.562193 -2.491233 -5.794860 0
M  V30 56 H -3.216292 -1.746425 -6.699239 0
M  V30 57 H -1.962874 -1.429730 -5.269293 0
M  V30 58 H 1.853048 -3.362370 -4.543010 0
M  V30 59 H 1.613141 -3.705589 2.197142 0
M  V30 60 H 1.827197 -5.372917 1.746181 0
M  V30 61 H -1.381106 -3.321881 1.355931 0
M  V30 62 H -3.265628 -2.277034 0.270156 0
M  V30 63 H -3.143305 -1.791018 -2.075772 0
M  V30 64 H -2.040492 0.162402 -3.074273 0
M  V30 65 H -1.026703 2.923728 0.084900 0
M  V30 66 H -0.235001 2.685923 2.309639 0
M  V30 END ATOM
M  V30 BEGIN BOND
M  V30 1 1 1 2
M  V30 2 1 2 3
M  V30 3 1 3 4
M  V30 4 1 4 5
M  V30 5 1 3 6
M  V30 6 2 6 7
M  V30 7 1 7 8
M  V30 8 2 8 9
M  V30 9 1 9 10
M  V30 10 2 10 11
M  V30 11 1 10 12
M  V30 12 1 12 13
M  V30 13 2 13 14
M  V30 14 1 14 15
M  V30 15 2 15 16
M  V30 16 1 16 17
M  V30 17 1 17 18
M  V30 18 1 18 19
M  V30 19 1 18 20
M  V30 20 1 20 21
M  V30 21 2 21 22
M  V30 22 1 22 23
M  V30 23 2 23 24
M  V30 24 1 24 25
M  V30 25 2 25 26
M  V30 26 1 26 27
M  V30 27 1 27 28
M  V30 28 2 27 29
M  V30 29 1 26 30
M  V30 30 2 30 31
M  V30 31 1 31 32
M  V30 32 2 32 33
M  V30 33 2 17 34
M  V30 34 1 9 35
M  V30 35 2 35 36
M  V30 36 1 36 6
M  V30 37 1 34 13
M  V30 38 1 33 21
M  V30 39 1 33 25
M  V30 40 1 1 37
M  V30 41 1 1 38
M  V30 42 1 1 39
M  V30 43 1 2 40
M  V30 44 1 2 41
M  V30 45 1 4 42
M  V30 46 1 4 43
M  V30 47 1 5 44
M  V30 48 1 5 45
M  V30 49 1 5 46
M  V30 50 1 7 47
M  V30 51 1 8 48
M  V30 52 1 12 49
M  V30 53 1 14 50
M  V30 54 1 15 51
M  V30 55 1 16 52
M  V30 56 1 18 53
M  V30 57 1 19 54
M  V30 58 1 19 55
M  V30 59 1 19 56
M  V30 60 1 20 57
M  V30 61 1 23 58
M  V30 62 1 28 59
M  V30 63 1 28 60
M  V30 64 1 30 61
M  V30 65 1 31 62
M  V30 66 1 32 63
M  V30 67 1 34 64
M  V30 68 1 35 65
M  V30 69 1 36 66
M  V30 END BOND
M  V30 END CTAB
M  END
>  <Dataset>  (904) 
ChEMBL_Kinases

>  <Ligand_Instance>  (904) 
nan

>  <PDB_ID>  (904) 
nan

>  <Standardized_SMILES>  (904) 
CCN(CC)c1ccc(C(=O)Nc2cccc(C(C)Nc3ncnc4c(C(N)=O)cccc34)c2)cc1

>  <Name>  (904) 
nan

>  <Pocket>  (904) 
nan

>  <ATP_Site>  (904) 
nan

>  <Peripheral>  (904) 
nan

>  <Num_H_Atoms_ProtBoundConf>  (904) 
nan

>  <Num_Resolved_Atoms>  (904) 
nan

>  <Num_Not_Resolved_Atoms>  (904) 
nan

$$$$
CHEMBL3680450
     RDKit          3D

  0  0  0  0  0  0  0  0  0  0999 V3000
M  V30 BEGIN CTAB
M  V30 COUNTS 65 68 0 0 0
M  V30 BEGIN ATOM
M  V30 1 C 5.004382 0.137505 6.549928 0
M  V30 2 O 4.866089 1.044510 5.478337 0
M  V30 3 C 5.132097 0.389727 4.298643 0
M  V30 4 C 4.986277 1.358657 3.137837 0
M  V30 5 C 3.598359 1.898538 3.097685 0
M  V30 6 O 3.435556 2.797437 2.031853 0
M  V30 7 C 2.110365 3.267147 2.050792 0
M  V30 8 C 1.385448 2.799103 0.845327 0
M  V30 9 C 0.720458 3.454839 -0.088376 0
M  V30 10 C 0.057074 2.830597 -1.222569 0
M  V30 11 O -0.544890 3.564658 -2.046121 0
M  V30 12 N 0.063586 1.435556 -1.432648 0
M  V30 13 C -0.547498 0.717547 -2.499586 0
M  V30 14 C 0.093965 0.435993 -3.675252 0
M  V30 15 C -0.605294 -0.268380 -4.634433 0
M  V30 16 C -1.899202 -0.658417 -4.385197 0
M  V30 17 C -2.554951 -0.370932 -3.183810 0
M  V30 18 C -3.942204 -0.905890 -3.198412 0
M  V30 19 N -4.024140 -2.291827 -2.765842 0
M  V30 20 C -3.673562 -2.789874 -1.488303 0
M  V30 21 N -3.221186 -1.987093 -0.524497 0
M  V30 22 C -2.884789 -2.421563 0.692214 0
M  V30 23 N -2.984959 -3.711167 1.017700 0
M  V30 24 C -3.435043 -4.582893 0.094134 0
M  V30 25 C -3.548150 -5.920200 0.403431 0
M  V30 26 C -3.160935 -6.310603 1.752463 0
M  V30 27 N -3.183666 -7.614955 2.306609 0
M  V30 28 O -2.750623 -5.475234 2.585889 0
M  V30 29 C -4.000135 -6.850779 -0.498117 0
M  V30 30 C -4.344670 -6.386008 -1.753945 0
M  V30 31 C -4.221238 -5.042088 -2.035437 0
M  V30 32 C -3.771274 -4.100123 -1.145485 0
M  V30 33 C -1.845251 0.333123 -2.235276 0
M  V30 34 C 0.690450 4.896283 0.093580 0
M  V30 35 C 1.315627 5.382415 1.146685 0
M  V30 36 C 2.078561 4.756181 2.238239 0
M  V30 37 H 4.297686 -0.713163 6.439079 0
M  V30 38 H 6.049999 -0.209769 6.534535 0
M  V30 39 H 4.802463 0.688046 7.484807 0
M  V30 40 H 4.437650 -0.470847 4.171623 0
M  V30 41 H 6.188641 0.013572 4.358586 0
M  V30 42 H 5.303372 0.877446 2.185821 0
M  V30 43 H 5.738410 2.176063 3.329011 0
M  V30 44 H 2.904427 1.039375 2.990636 0
M  V30 45 H 3.438193 2.473009 4.039891 0
M  V30 46 H 1.606167 2.763126 2.927105 0
M  V30 47 H 1.452054 1.721262 0.777230 0
M  V30 48 H 0.548388 0.782153 -0.779184 0
M  V30 49 H 1.113200 0.771364 -3.808812 0
M  V30 50 H -0.063392 -0.470226 -5.548107 0
M  V30 51 H -2.323331 -1.209020 -5.240168 0
M  V30 52 H -4.431034 -0.702307 -4.156397 0
M  V30 53 H -4.481120 -0.339085 -2.371747 0
M  V30 54 H -4.382180 -2.892756 -3.534408 0
M  V30 55 H -2.519740 -1.728516 1.448237 0
M  V30 56 H -2.471856 -8.304192 1.927273 0
M  V30 57 H -2.793327 -8.576119 2.339184 0
M  V30 58 H -4.053181 -7.876135 -0.160375 0
M  V30 59 H -4.701949 -7.113246 -2.471380 0
M  V30 60 H -4.516506 -4.788725 -3.042027 0
M  V30 61 H -2.429052 0.515131 -1.349493 0
M  V30 62 H 0.189846 5.542810 -0.585409 0
M  V30 63 H 1.285967 6.462174 1.271700 0
M  V30 64 H 3.122865 5.154445 2.190033 0
M  V30 65 H 1.611641 4.994532 3.229509 0
M  V30 END ATOM
M  V30 BEGIN BOND
M  V30 1 1 1 2
M  V30 2 1 2 3
M  V30 3 1 3 4
M  V30 4 1 4 5
M  V30 5 1 5 6
M  V30 6 1 6 7
M  V30 7 1 7 8
M  V30 8 2 8 9
M  V30 9 1 9 10
M  V30 10 2 10 11
M  V30 11 1 10 12
M  V30 12 1 12 13
M  V30 13 2 13 14
M  V30 14 1 14 15
M  V30 15 2 15 16
M  V30 16 1 16 17
M  V30 17 1 17 18
M  V30 18 1 18 19
M  V30 19 1 19 20
M  V30 20 2 20 21
M  V30 21 1 21 22
M  V30 22 2 22 23
M  V30 23 1 23 24
M  V30 24 2 24 25
M  V30 25 1 25 26
M  V30 26 1 26 27
M  V30 27 2 26 28
M  V30 28 1 25 29
M  V30 29 2 29 30
M  V30 30 1 30 31
M  V30 31 2 31 32
M  V30 32 2 17 33
M  V30 33 1 9 34
M  V30 34 2 34 35
M  V30 35 1 35 36
M  V30 36 1 36 7
M  V30 37 1 33 13
M  V30 38 1 32 20
M  V30 39 1 32 24
M  V30 40 1 1 37
M  V30 41 1 1 38
M  V30 42 1 1 39
M  V30 43 1 3 40
M  V30 44 1 3 41
M  V30 45 1 4 42
M  V30 46 1 4 43
M  V30 47 1 5 44
M  V30 48 1 5 45
M  V30 49 1 7 46
M  V30 50 1 8 47
M  V30 51 1 12 48
M  V30 52 1 14 49
M  V30 53 1 15 50
M  V30 54 1 16 51
M  V30 55 1 18 52
M  V30 56 1 18 53
M  V30 57 1 19 54
M  V30 58 1 22 55
M  V30 59 1 27 56
M  V30 60 1 27 57
M  V30 61 1 29 58
M  V30 62 1 30 59
M  V30 63 1 31 60
M  V30 64 1 33 61
M  V30 65 1 34 62
M  V30 66 1 35 63
M  V30 67 1 36 64
M  V30 68 1 36 65
M  V30 END BOND
M  V30 END CTAB
M  END
>  <Dataset>  (905) 
ChEMBL_Kinases

>  <Ligand_Instance>  (905) 
nan

>  <PDB_ID>  (905) 
nan

>  <Standardized_SMILES>  (905) 
COCCCOC1C=C(C(=O)Nc2cccc(CNc3ncnc4c(C(N)=O)cccc34)c2)C=CC1

>  <Name>  (905) 
nan

>  <Pocket>  (905) 
nan

>  <ATP_Site>  (905) 
nan

>  <Peripheral>  (905) 
nan

>  <Num_H_Atoms_ProtBoundConf>  (905) 
nan

>  <Num_Resolved_Atoms>  (905) 
nan

>  <Num_Not_Resolved_Atoms>  (905) 
nan

$$$$
CHEMBL3680451
     RDKit          3D

  0  0  0  0  0  0  0  0  0  0999 V3000
M  V30 BEGIN CTAB
M  V30 COUNTS 61 64 0 0 0
M  V30 BEGIN ATOM
M  V30 1 C 5.542739 -3.739495 1.595275 0
M  V30 2 N 4.936463 -2.581813 2.217547 0
M  V30 3 C 5.886796 -1.484901 2.300085 0
M  V30 4 C 5.191102 -0.318284 2.954216 0
M  V30 5 O 4.090794 0.090419 2.243309 0
M  V30 6 C 3.933024 0.583445 0.984155 0
M  V30 7 C 4.809054 0.865046 -0.037884 0
M  V30 8 C 4.461492 1.367386 -1.269597 0
M  V30 9 C 3.126666 1.613501 -1.511602 0
M  V30 10 C 2.199105 1.357831 -0.540641 0
M  V30 11 C 0.760511 1.611116 -0.778390 0
M  V30 12 O -0.097752 1.403394 0.111729 0
M  V30 13 N 0.236540 2.093791 -1.989170 0
M  V30 14 C -1.174864 2.213726 -1.851791 0
M  V30 15 C -1.798659 3.352427 -1.414655 0
M  V30 16 C -3.168474 3.342495 -1.321173 0
M  V30 17 C -3.878451 2.199879 -1.665024 0
M  V30 18 C -3.235188 1.041185 -2.110182 0
M  V30 19 C -4.242842 -0.009099 -2.409309 0
M  V30 20 N -4.619534 -0.795596 -1.249502 0
M  V30 21 C -3.766013 -1.615310 -0.467616 0
M  V30 22 N -2.470842 -1.712644 -0.786499 0
M  V30 23 C -1.577762 -2.455148 -0.119385 0
M  V30 24 N -2.026205 -3.159970 0.960671 0
M  V30 25 C -3.317464 -3.091291 1.315270 0
M  V30 26 C -3.825140 -3.779406 2.393224 0
M  V30 27 C -2.897842 -4.599352 3.149648 0
M  V30 28 N -1.532385 -4.718396 2.827553 0
M  V30 29 O -2.686539 -5.369746 4.091637 0
M  V30 30 C -5.130867 -3.769886 2.830515 0
M  V30 31 C -6.021188 -2.978765 2.099270 0
M  V30 32 C -5.554757 -2.271125 1.009643 0
M  V30 33 C -4.240532 -2.331059 0.635635 0
M  V30 34 C -1.860233 1.066041 -2.199416 0
M  V30 35 C 2.580175 0.845812 0.706157 0
M  V30 36 H 5.286933 -3.798819 0.517116 0
M  V30 37 H 6.636840 -3.638735 1.764338 0
M  V30 38 H 5.216330 -4.666495 2.077405 0
M  V30 39 H 4.670701 -2.879519 3.181462 0
M  V30 40 H 6.409769 -1.272632 1.376332 0
M  V30 41 H 6.703390 -1.792001 3.029347 0
M  V30 42 H 4.828888 -0.696825 3.954181 0
M  V30 43 H 5.913205 0.532398 3.119045 0
M  V30 44 H 5.836327 0.661707 0.209474 0
M  V30 45 H 5.275691 1.532632 -1.961035 0
M  V30 46 H 2.864710 2.007027 -2.484065 0
M  V30 47 H 0.880278 2.294838 -2.788822 0
M  V30 48 H -1.167736 4.167891 -1.178050 0
M  V30 49 H -3.620037 4.258596 -0.973389 0
M  V30 50 H -4.961656 2.354308 -1.534633 0
M  V30 51 H -5.075095 0.357410 -3.006669 0
M  V30 52 H -3.689515 -0.727726 -3.095161 0
M  V30 53 H -5.636961 -0.671684 -1.060544 0
M  V30 54 H -0.548126 -2.472752 -0.451961 0
M  V30 55 H -0.537228 -4.464721 2.910654 0
M  V30 56 H -0.540272 -4.784935 2.612125 0
M  V30 57 H -5.372577 -4.376101 3.711646 0
M  V30 58 H -7.049601 -2.980927 2.457202 0
M  V30 59 H -6.276464 -1.685519 0.487970 0
M  V30 60 H -1.469267 0.138963 -2.554807 0
M  V30 61 H 1.762730 0.676800 1.412567 0
M  V30 END ATOM
M  V30 BEGIN BOND
M  V30 1 1 1 2
M  V30 2 1 2 3
M  V30 3 1 3 4
M  V30 4 1 4 5
M  V30 5 1 5 6
M  V30 6 2 6 7
M  V30 7 1 7 8
M  V30 8 2 8 9
M  V30 9 1 9 10
M  V30 10 1 10 11
M  V30 11 2 11 12
M  V30 12 1 11 13
M  V30 13 1 13 14
M  V30 14 2 14 15
M  V30 15 1 15 16
M  V30 16 2 16 17
M  V30 17 1 17 18
M  V30 18 1 18 19
M  V30 19 1 19 20
M  V30 20 1 20 21
M  V30 21 2 21 22
M  V30 22 1 22 23
M  V30 23 2 23 24
M  V30 24 1 24 25
M  V30 25 2 25 26
M  V30 26 1 26 27
M  V30 27 1 27 28
M  V30 28 2 27 29
M  V30 29 1 26 30
M  V30 30 2 30 31
M  V30 31 1 31 32
M  V30 32 2 32 33
M  V30 33 2 18 34
M  V30 34 2 10 35
M  V30 35 1 35 6
M  V30 36 1 34 14
M  V30 37 1 33 21
M  V30 38 1 33 25
M  V30 39 1 1 36
M  V30 40 1 1 37
M  V30 41 1 1 38
M  V30 42 1 2 39
M  V30 43 1 3 40
M  V30 44 1 3 41
M  V30 45 1 4 42
M  V30 46 1 4 43
M  V30 47 1 7 44
M  V30 48 1 8 45
M  V30 49 1 9 46
M  V30 50 1 13 47
M  V30 51 1 15 48
M  V30 52 1 16 49
M  V30 53 1 17 50
M  V30 54 1 19 51
M  V30 55 1 19 52
M  V30 56 1 20 53
M  V30 57 1 23 54
M  V30 58 1 28 55
M  V30 59 1 28 56
M  V30 60 1 30 57
M  V30 61 1 31 58
M  V30 62 1 32 59
M  V30 63 1 34 60
M  V30 64 1 35 61
M  V30 END BOND
M  V30 END CTAB
M  END
>  <Dataset>  (906) 
ChEMBL_Kinases

>  <Ligand_Instance>  (906) 
nan

>  <PDB_ID>  (906) 
nan

>  <Standardized_SMILES>  (906) 
CNCCOc1cccc(C(=O)Nc2cccc(CNc3ncnc4c(C(N)=O)cccc34)c2)c1

>  <Name>  (906) 
nan

>  <Pocket>  (906) 
nan

>  <ATP_Site>  (906) 
nan

>  <Peripheral>  (906) 
nan

>  <Num_H_Atoms_ProtBoundConf>  (906) 
nan

>  <Num_Resolved_Atoms>  (906) 
nan

>  <Num_Not_Resolved_Atoms>  (906) 
nan

$$$$
CHEMBL3680492
     RDKit          3D

  0  0  0  0  0  0  0  0  0  0999 V3000
M  V30 BEGIN CTAB
M  V30 COUNTS 69 73 0 0 0
M  V30 BEGIN ATOM
M  V30 1 C 5.891901 -2.616610 6.081347 0
M  V30 2 N 6.349885 -3.130853 4.833676 0
M  V30 3 C 5.379934 -3.891920 4.123327 0
M  V30 4 C 5.227597 -3.534362 2.674044 0
M  V30 5 N 5.032347 -2.117908 2.463291 0
M  V30 6 C 4.142387 -1.250752 1.772179 0
M  V30 7 C 4.690263 -0.502673 0.744526 0
M  V30 8 C 3.933179 0.380015 -0.027487 0
M  V30 9 C 2.587039 0.477922 0.282331 0
M  V30 10 C 1.826069 1.408509 -0.549391 0
M  V30 11 O 2.386297 2.046883 -1.449087 0
M  V30 12 N 0.434377 1.592448 -0.336683 0
M  V30 13 C -0.531587 2.405423 -0.972794 0
M  V30 14 C -0.833645 3.691931 -0.575993 0
M  V30 15 C -1.800272 4.377883 -1.284062 0
M  V30 16 C -2.412432 3.744123 -2.347571 0
M  V30 17 C -2.131681 2.448489 -2.773627 0
M  V30 18 C -2.895790 1.961057 -3.942458 0
M  V30 19 N -4.170182 1.376890 -3.628038 0
M  V30 20 C -4.399608 0.246525 -2.813100 0
M  V30 21 N -3.396061 -0.421683 -2.222480 0
M  V30 22 N -3.528288 -1.477250 -1.452545 0
M  V30 23 C -4.734235 -2.017837 -1.166088 0
M  V30 24 C -5.807303 -1.394382 -1.729983 0
M  V30 25 C -7.074461 -1.876581 -1.493197 0
M  V30 26 C -7.270281 -3.041369 -0.646998 0
M  V30 27 N -8.529062 -3.619139 -0.339731 0
M  V30 28 O -6.764659 -3.925283 0.059022 0
M  V30 29 C -8.229547 -1.330940 -2.008043 0
M  V30 30 C -8.017145 -0.217269 -2.813780 0
M  V30 31 C -6.754775 0.277776 -3.060423 0
M  V30 32 C -5.636650 -0.288320 -2.533790 0
M  V30 33 C -1.154157 1.797225 -2.033941 0
M  V30 34 C 2.036900 -0.263962 1.303865 0
M  V30 35 C 2.799930 -1.131466 2.057343 0
M  V30 36 C 2.198218 -1.920954 3.162934 0
M  V30 37 F 2.789344 -1.637774 4.374988 0
M  V30 38 F 2.134166 -3.245188 2.851093 0
M  V30 39 F 0.861251 -1.519308 3.327530 0
M  V30 40 C 6.037585 -1.387139 3.166304 0
M  V30 41 C 6.999165 -2.210724 3.963581 0
M  V30 42 H 5.738802 -3.513905 6.750455 0
M  V30 43 H 6.596222 -1.975556 6.606285 0
M  V30 44 H 4.867688 -2.175599 6.005474 0
M  V30 45 H 4.377273 -3.796769 4.608562 0
M  V30 46 H 5.659119 -4.972802 4.247824 0
M  V30 47 H 4.538010 -4.188560 2.143737 0
M  V30 48 H 6.237481 -3.748866 2.205696 0
M  V30 49 H 5.749819 -0.571755 0.490696 0
M  V30 50 H 4.413980 0.948801 -0.829082 0
M  V30 51 H -0.113653 1.093478 0.399476 0
M  V30 52 H -0.312245 4.117080 0.263413 0
M  V30 53 H -2.065731 5.390938 -1.004407 0
M  V30 54 H -3.163305 4.336583 -2.862273 0
M  V30 55 H -2.946919 2.784390 -4.669176 0
M  V30 56 H -2.291715 1.151353 -4.421174 0
M  V30 57 H -4.952904 1.893487 -4.081642 0
M  V30 58 H -4.771871 -2.884897 -0.525768 0
M  V30 59 H -9.215651 -4.299221 -0.746766 0
M  V30 60 H -9.194989 -4.312300 -0.788102 0
M  V30 61 H -9.224249 -1.688699 -1.838326 0
M  V30 62 H -8.897417 0.255975 -3.248732 0
M  V30 63 H -6.715837 1.134011 -3.692902 0
M  V30 64 H -0.931969 0.794737 -2.371200 0
M  V30 65 H 0.987419 -0.173125 1.528928 0
M  V30 66 H 6.643708 -0.792498 2.431163 0
M  V30 67 H 5.630631 -0.627618 3.866575 0
M  V30 68 H 7.640312 -1.470333 4.523660 0
M  V30 69 H 7.660816 -2.775563 3.271835 0
M  V30 END ATOM
M  V30 BEGIN BOND
M  V30 1 1 1 2
M  V30 2 1 2 3
M  V30 3 1 3 4
M  V30 4 1 4 5
M  V30 5 1 5 6
M  V30 6 2 6 7
M  V30 7 1 7 8
M  V30 8 2 8 9
M  V30 9 1 9 10
M  V30 10 2 10 11
M  V30 11 1 10 12
M  V30 12 1 12 13
M  V30 13 2 13 14
M  V30 14 1 14 15
M  V30 15 2 15 16
M  V30 16 1 16 17
M  V30 17 1 17 18
M  V30 18 1 18 19
M  V30 19 1 19 20
M  V30 20 2 20 21
M  V30 21 1 21 22
M  V30 22 2 22 23
M  V30 23 1 23 24
M  V30 24 2 24 25
M  V30 25 1 25 26
M  V30 26 1 26 27
M  V30 27 2 26 28
M  V30 28 1 25 29
M  V30 29 2 29 30
M  V30 30 1 30 31
M  V30 31 2 31 32
M  V30 32 2 17 33
M  V30 33 1 9 34
M  V30 34 2 34 35
M  V30 35 1 35 36
M  V30 36 1 36 37
M  V30 37 1 36 38
M  V30 38 1 36 39
M  V30 39 1 5 40
M  V30 40 1 40 41
M  V30 41 1 41 2
M  V30 42 1 35 6
M  V30 43 1 33 13
M  V30 44 1 32 20
M  V30 45 1 32 24
M  V30 46 1 1 42
M  V30 47 1 1 43
M  V30 48 1 1 44
M  V30 49 1 3 45
M  V30 50 1 3 46
M  V30 51 1 4 47
M  V30 52 1 4 48
M  V30 53 1 7 49
M  V30 54 1 8 50
M  V30 55 1 12 51
M  V30 56 1 14 52
M  V30 57 1 15 53
M  V30 58 1 16 54
M  V30 59 1 18 55
M  V30 60 1 18 56
M  V30 61 1 19 57
M  V30 62 1 23 58
M  V30 63 1 27 59
M  V30 64 1 27 60
M  V30 65 1 29 61
M  V30 66 1 30 62
M  V30 67 1 31 63
M  V30 68 1 33 64
M  V30 69 1 34 65
M  V30 70 1 40 66
M  V30 71 1 40 67
M  V30 72 1 41 68
M  V30 73 1 41 69
M  V30 END BOND
M  V30 END CTAB
M  END
>  <Dataset>  (907) 
ChEMBL_Kinases

>  <Ligand_Instance>  (907) 
nan

>  <PDB_ID>  (907) 
nan

>  <Standardized_SMILES>  (907) 
CN1CCN(c2ccc(C(=O)Nc3cccc(CNc4nncc5c(C(N)=O)cccc45)c3)cc2C(F)(F)F)CC1

>  <Name>  (907) 
nan

>  <Pocket>  (907) 
nan

>  <ATP_Site>  (907) 
nan

>  <Peripheral>  (907) 
nan

>  <Num_H_Atoms_ProtBoundConf>  (907) 
nan

>  <Num_Resolved_Atoms>  (907) 
nan

>  <Num_Not_Resolved_Atoms>  (907) 
nan

$$$$
CHEMBL3680455
     RDKit          3D

  0  0  0  0  0  0  0  0  0  0999 V3000
M  V30 BEGIN CTAB
M  V30 COUNTS 49 52 0 0 0
M  V30 BEGIN ATOM
M  V30 1 N -7.437096 -0.586967 -5.898035 0
M  V30 2 C -6.045667 -0.667479 -5.689613 0
M  V30 3 O -5.526469 -1.357326 -6.604783 0
M  V30 4 C -5.357497 -0.033193 -4.572179 0
M  V30 5 C -6.022283 0.705563 -3.617820 0
M  V30 6 C -5.195724 1.223911 -2.644117 0
M  V30 7 C -3.829713 1.062766 -2.565033 0
M  V30 8 C -3.235073 0.306893 -3.561459 0
M  V30 9 C -1.870438 0.111396 -3.532541 0
M  V30 10 N -1.006089 0.646905 -2.524325 0
M  V30 11 C 0.419063 0.373438 -2.594643 0
M  V30 12 C 1.159815 1.003949 -1.482354 0
M  V30 13 C 1.683002 2.273647 -1.608983 0
M  V30 14 C 2.343381 2.725001 -0.486676 0
M  V30 15 C 2.498285 2.014769 0.685097 0
M  V30 16 C 1.951778 0.752274 0.746709 0
M  V30 17 N 2.073829 -0.030419 1.922618 0
M  V30 18 C 3.189881 -0.917615 2.113478 0
M  V30 19 O 4.073032 -0.999620 1.220564 0
M  V30 20 C 3.276315 -1.705263 3.338937 0
M  V30 21 C 4.333436 -2.583076 3.583894 0
M  V30 22 C 4.010976 -3.106530 4.840143 0
M  V30 23 C 4.750948 -4.109885 5.665630 0
M  V30 24 F 3.809344 -4.877358 6.335277 0
M  V30 25 F 5.441758 -4.960665 4.821611 0
M  V30 26 F 5.600257 -3.501273 6.562472 0
M  V30 27 N 2.850208 -2.545699 5.249207 0
M  V30 28 N 2.406932 -1.701249 4.345145 0
M  V30 29 C 1.268267 0.226488 -0.349547 0
M  V30 30 N -1.345379 -0.628785 -4.520423 0
M  V30 31 C -2.070206 -1.174887 -5.512156 0
M  V30 32 N -3.397560 -0.971318 -5.519972 0
M  V30 33 C -3.997403 -0.246031 -4.572143 0
M  V30 34 H -8.427028 -0.509094 -6.075481 0
M  V30 35 H -8.063862 -1.086529 -5.231427 0
M  V30 36 H -7.080027 0.844100 -3.658601 0
M  V30 37 H -5.647385 1.819296 -1.855742 0
M  V30 38 H -3.272787 1.499894 -1.776773 0
M  V30 39 H -1.301610 1.231500 -1.717873 0
M  V30 40 H 0.632157 -0.710775 -2.686604 0
M  V30 41 H 0.802644 0.839083 -3.549632 0
M  V30 42 H 1.582277 2.860399 -2.511278 0
M  V30 43 H 2.789739 3.723646 -0.500019 0
M  V30 44 H 3.043569 2.463338 1.525829 0
M  V30 45 H 1.304051 0.072688 2.649223 0
M  V30 46 H 5.212889 -2.855365 3.017192 0
M  V30 47 H 1.540370 -1.096220 4.337211 0
M  V30 48 H 0.848030 -0.771982 -0.271173 0
M  V30 49 H -1.619431 -1.762611 -6.288804 0
M  V30 END ATOM
M  V30 BEGIN BOND
M  V30 1 1 1 2
M  V30 2 2 2 3
M  V30 3 1 2 4
M  V30 4 2 4 5
M  V30 5 1 5 6
M  V30 6 2 6 7
M  V30 7 1 7 8
M  V30 8 2 8 9
M  V30 9 1 9 10
M  V30 10 1 10 11
M  V30 11 1 11 12
M  V30 12 2 12 13
M  V30 13 1 13 14
M  V30 14 2 14 15
M  V30 15 1 15 16
M  V30 16 1 16 17
M  V30 17 1 17 18
M  V30 18 2 18 19
M  V30 19 1 18 20
M  V30 20 2 20 21
M  V30 21 1 21 22
M  V30 22 1 22 23
M  V30 23 1 23 24
M  V30 24 1 23 25
M  V30 25 1 23 26
M  V30 26 2 22 27
M  V30 27 1 27 28
M  V30 28 2 16 29
M  V30 29 1 9 30
M  V30 30 2 30 31
M  V30 31 1 31 32
M  V30 32 2 32 33
M  V30 33 1 33 4
M  V30 34 1 33 8
M  V30 35 1 29 12
M  V30 36 1 28 20
M  V30 37 1 1 34
M  V30 38 1 1 35
M  V30 39 1 5 36
M  V30 40 1 6 37
M  V30 41 1 7 38
M  V30 42 1 10 39
M  V30 43 1 11 40
M  V30 44 1 11 41
M  V30 45 1 13 42
M  V30 46 1 14 43
M  V30 47 1 15 44
M  V30 48 1 17 45
M  V30 49 1 21 46
M  V30 50 1 28 47
M  V30 51 1 29 48
M  V30 52 1 31 49
M  V30 END BOND
M  V30 END CTAB
M  END
>  <Dataset>  (908) 
ChEMBL_Kinases

>  <Ligand_Instance>  (908) 
nan

>  <PDB_ID>  (908) 
nan

>  <Standardized_SMILES>  (908) 
NC(=O)c1cccc2c(NCc3cccc(NC(=O)c4cc(C(F)(F)F)n[nH]4)c3)ncnc12

>  <Name>  (908) 
nan

>  <Pocket>  (908) 
nan

>  <ATP_Site>  (908) 
nan

>  <Peripheral>  (908) 
nan

>  <Num_H_Atoms_ProtBoundConf>  (908) 
nan

>  <Num_Resolved_Atoms>  (908) 
nan

>  <Num_Not_Resolved_Atoms>  (908) 
nan

$$$$
CHEMBL3680457
     RDKit          3D

  0  0  0  0  0  0  0  0  0  0999 V3000
M  V30 BEGIN CTAB
M  V30 COUNTS 52 56 0 0 0
M  V30 BEGIN ATOM
M  V30 1 C -0.440742 -4.854056 6.042465 0
M  V30 2 N 0.285241 -4.132535 5.014005 0
M  V30 3 C -0.186502 -4.090675 3.735995 0
M  V30 4 N 0.634729 -3.378692 2.970247 0
M  V30 5 C 1.658463 -2.937650 3.716961 0
M  V30 6 C 2.806236 -2.172060 3.520531 0
M  V30 7 N 2.938721 -1.735520 2.173069 0
M  V30 8 C 2.361659 -0.488279 1.799879 0
M  V30 9 C 1.709023 0.227496 2.782856 0
M  V30 10 C 1.151423 1.435362 2.418366 0
M  V30 11 C 1.230605 1.923172 1.138657 0
M  V30 12 C 1.875007 1.232234 0.134569 0
M  V30 13 C 2.084205 1.526613 -1.287725 0
M  V30 14 N 1.085421 0.958006 -2.178944 0
M  V30 15 C -0.283636 1.260326 -2.174850 0
M  V30 16 N -0.787742 2.133847 -1.318815 0
M  V30 17 C -2.098780 2.416984 -1.327908 0
M  V30 18 N -2.983259 1.846342 -2.190242 0
M  V30 19 C -2.504800 0.947783 -3.080804 0
M  V30 20 C -3.376473 0.354595 -3.965086 0
M  V30 21 C -4.797943 0.672900 -3.962865 0
M  V30 22 N -5.408698 1.599142 -3.074819 0
M  V30 23 O -5.612559 0.144558 -4.760108 0
M  V30 24 C -2.933792 -0.566767 -4.889949 0
M  V30 25 C -1.577078 -0.874070 -4.896508 0
M  V30 26 C -0.748823 -0.252514 -3.991215 0
M  V30 27 C -1.158227 0.667179 -3.059936 0
M  V30 28 C 2.439689 0.004686 0.513191 0
M  V30 29 N 3.648812 -1.914680 4.536877 0
M  V30 30 C 3.386495 -2.402102 5.772154 0
M  V30 31 C 2.267107 -3.179360 6.080363 0
M  V30 32 C 1.427485 -3.420415 5.008761 0
M  V30 33 H 0.171874 -5.122028 6.905269 0
M  V30 34 H -1.399407 -4.337223 6.302670 0
M  V30 35 H -0.766329 -5.836210 5.593783 0
M  V30 36 H -1.051373 -4.498521 3.239333 0
M  V30 37 H 3.449424 -2.311262 1.456286 0
M  V30 38 H 1.603362 -0.084683 3.806045 0
M  V30 39 H 0.623047 2.052932 3.137364 0
M  V30 40 H 0.821771 2.862717 0.794919 0
M  V30 41 H 3.116654 1.315254 -1.556378 0
M  V30 42 H 1.973964 2.645278 -1.441373 0
M  V30 43 H 1.541067 0.282069 -2.830512 0
M  V30 44 H -2.568448 3.131449 -0.642018 0
M  V30 45 H -5.354322 1.244256 -2.098236 0
M  V30 46 H -5.424994 1.362204 -2.039912 0
M  V30 47 H -3.632241 -1.023468 -5.577541 0
M  V30 48 H -1.259858 -1.598656 -5.631431 0
M  V30 49 H 0.265656 -0.551408 -4.073663 0
M  V30 50 H 2.986438 -0.663245 -0.172410 0
M  V30 51 H 4.106036 -2.160713 6.557654 0
M  V30 52 H 2.070751 -3.557131 7.054668 0
M  V30 END ATOM
M  V30 BEGIN BOND
M  V30 1 1 1 2
M  V30 2 1 2 3
M  V30 3 2 3 4
M  V30 4 1 4 5
M  V30 5 2 5 6
M  V30 6 1 6 7
M  V30 7 1 7 8
M  V30 8 2 8 9
M  V30 9 1 9 10
M  V30 10 2 10 11
M  V30 11 1 11 12
M  V30 12 1 12 13
M  V30 13 1 13 14
M  V30 14 1 14 15
M  V30 15 2 15 16
M  V30 16 1 16 17
M  V30 17 2 17 18
M  V30 18 1 18 19
M  V30 19 2 19 20
M  V30 20 1 20 21
M  V30 21 1 21 22
M  V30 22 2 21 23
M  V30 23 1 20 24
M  V30 24 2 24 25
M  V30 25 1 25 26
M  V30 26 2 26 27
M  V30 27 2 12 28
M  V30 28 1 6 29
M  V30 29 2 29 30
M  V30 30 1 30 31
M  V30 31 2 31 32
M  V30 32 1 32 2
M  V30 33 1 32 5
M  V30 34 1 28 8
M  V30 35 1 27 15
M  V30 36 1 27 19
M  V30 37 1 1 33
M  V30 38 1 1 34
M  V30 39 1 1 35
M  V30 40 1 3 36
M  V30 41 1 7 37
M  V30 42 1 9 38
M  V30 43 1 10 39
M  V30 44 1 11 40
M  V30 45 1 13 41
M  V30 46 1 13 42
M  V30 47 1 14 43
M  V30 48 1 17 44
M  V30 49 1 22 45
M  V30 50 1 22 46
M  V30 51 1 24 47
M  V30 52 1 25 48
M  V30 53 1 26 49
M  V30 54 1 28 50
M  V30 55 1 30 51
M  V30 56 1 31 52
M  V30 END BOND
M  V30 END CTAB
M  END
>  <Dataset>  (909) 
ChEMBL_Kinases

>  <Ligand_Instance>  (909) 
nan

>  <PDB_ID>  (909) 
nan

>  <Standardized_SMILES>  (909) 
Cn1cnc2c(Nc3cccc(CNc4ncnc5c(C(N)=O)cccc45)c3)nccc21

>  <Name>  (909) 
nan

>  <Pocket>  (909) 
nan

>  <ATP_Site>  (909) 
nan

>  <Peripheral>  (909) 
nan

>  <Num_H_Atoms_ProtBoundConf>  (909) 
nan

>  <Num_Resolved_Atoms>  (909) 
nan

>  <Num_Not_Resolved_Atoms>  (909) 
nan

$$$$
CHEMBL3680393
     RDKit          3D

  0  0  0  0  0  0  0  0  0  0999 V3000
M  V30 BEGIN CTAB
M  V30 COUNTS 65 68 0 0 0
M  V30 BEGIN ATOM
M  V30 1 C -4.708223 -2.923393 4.119610 0
M  V30 2 N -3.363071 -3.375406 3.848223 0
M  V30 3 C -2.605158 -3.323589 5.077714 0
M  V30 4 C -2.791985 -2.479830 2.845907 0
M  V30 5 C -1.345794 -2.901919 2.546407 0
M  V30 6 C -0.780880 -1.946719 1.553559 0
M  V30 7 N -1.386985 -1.835248 0.284481 0
M  V30 8 C -1.910938 -2.000128 -1.023405 0
M  V30 9 N -1.914384 -3.001573 -1.910275 0
M  V30 10 C -2.442802 -2.942787 -3.134056 0
M  V30 11 N -2.989290 -1.780869 -3.435684 0
M  V30 12 C -3.057142 -0.700642 -2.653007 0
M  V30 13 C -3.686142 0.395555 -3.206855 0
M  V30 14 C -4.258836 0.499256 -4.575956 0
M  V30 15 N -4.843466 1.802170 -4.867408 0
M  V30 16 O -4.061795 -0.644022 -5.123088 0
M  V30 17 C -3.725758 1.485622 -2.334848 0
M  V30 18 C -3.209692 1.515807 -1.055825 0
M  V30 19 C -2.615632 0.353618 -0.646270 0
M  V30 20 C -2.510278 -0.783691 -1.403918 0
M  V30 21 C 0.732592 -1.943549 1.531217 0
M  V30 22 C 1.483611 -2.749877 2.252381 0
M  V30 23 C 2.943134 -2.804841 2.285903 0
M  V30 24 C 3.669259 -1.885697 1.374591 0
M  V30 25 C 2.784555 -0.995743 0.592147 0
M  V30 26 N 3.229724 -0.008986 -0.328671 0
M  V30 27 C 3.857831 1.028375 0.346714 0
M  V30 28 O 3.860727 0.812084 1.619744 0
M  V30 29 C 4.507695 2.279540 -0.026557 0
M  V30 30 C 5.206903 3.021713 0.938943 0
M  V30 31 C 5.798456 4.191361 0.521612 0
M  V30 32 C 5.774314 4.706359 -0.747845 0
M  V30 33 C 5.084398 3.997065 -1.762551 0
M  V30 34 C 4.518341 2.840519 -1.273597 0
M  V30 35 F 3.837524 2.139673 -2.246667 0
M  V30 36 C 1.450827 -1.033357 0.669984 0
M  V30 37 H -4.887285 -2.982437 5.231017 0
M  V30 38 H -5.476987 -3.515326 3.593931 0
M  V30 39 H -4.752296 -1.842940 3.877193 0
M  V30 40 H -3.163370 -3.568929 5.988013 0
M  V30 41 H -2.158492 -2.314092 5.152361 0
M  V30 42 H -1.766202 -4.050660 4.987407 0
M  V30 43 H -2.825405 -1.464861 3.245946 0
M  V30 44 H -3.419594 -2.500491 1.942680 0
M  V30 45 H -0.830409 -2.924730 3.505962 0
M  V30 46 H -1.439748 -3.912920 2.059317 0
M  V30 47 H -0.971783 -0.913119 2.063988 0
M  V30 48 H -1.009088 -2.829933 0.308569 0
M  V30 49 H -2.357179 -3.839799 -3.715023 0
M  V30 50 H -3.894756 2.299080 -4.959954 0
M  V30 51 H -5.721754 1.208493 -4.746952 0
M  V30 52 H -4.196832 2.429798 -2.640865 0
M  V30 53 H -3.258710 2.375472 -0.411841 0
M  V30 54 H -2.195547 0.325591 0.360992 0
M  V30 55 H 1.015907 -3.464324 2.903709 0
M  V30 56 H 3.240729 -2.543744 3.350580 0
M  V30 57 H 3.282455 -3.873204 2.178112 0
M  V30 58 H 4.190943 -2.553609 0.609719 0
M  V30 59 H 4.478480 -1.315892 1.857642 0
M  V30 60 H 3.230633 0.159877 -1.368173 0
M  V30 61 H 5.270076 2.683007 1.967520 0
M  V30 62 H 6.332766 4.731004 1.325180 0
M  V30 63 H 6.260403 5.635509 -1.019020 0
M  V30 64 H 5.005319 4.314343 -2.769402 0
M  V30 65 H 0.805026 -0.365821 0.073529 0
M  V30 END ATOM
M  V30 BEGIN BOND
M  V30 1 1 1 2
M  V30 2 1 2 3
M  V30 3 1 2 4
M  V30 4 1 4 5
M  V30 5 1 5 6
M  V30 6 1 6 7
M  V30 7 1 7 8
M  V30 8 2 8 9
M  V30 9 1 9 10
M  V30 10 2 10 11
M  V30 11 1 11 12
M  V30 12 2 12 13
M  V30 13 1 13 14
M  V30 14 1 14 15
M  V30 15 2 14 16
M  V30 16 1 13 17
M  V30 17 2 17 18
M  V30 18 1 18 19
M  V30 19 2 19 20
M  V30 20 1 6 21
M  V30 21 2 21 22
M  V30 22 1 22 23
M  V30 23 1 23 24
M  V30 24 1 24 25
M  V30 25 1 25 26
M  V30 26 1 26 27
M  V30 27 2 27 28
M  V30 28 1 27 29
M  V30 29 2 29 30
M  V30 30 1 30 31
M  V30 31 2 31 32
M  V30 32 1 32 33
M  V30 33 2 33 34
M  V30 34 1 34 35
M  V30 35 2 25 36
M  V30 36 1 20 8
M  V30 37 1 36 21
M  V30 38 1 20 12
M  V30 39 1 34 29
M  V30 40 1 1 37
M  V30 41 1 1 38
M  V30 42 1 1 39
M  V30 43 1 3 40
M  V30 44 1 3 41
M  V30 45 1 3 42
M  V30 46 1 4 43
M  V30 47 1 4 44
M  V30 48 1 5 45
M  V30 49 1 5 46
M  V30 50 1 6 47
M  V30 51 1 7 48
M  V30 52 1 10 49
M  V30 53 1 15 50
M  V30 54 1 15 51
M  V30 55 1 17 52
M  V30 56 1 18 53
M  V30 57 1 19 54
M  V30 58 1 22 55
M  V30 59 1 23 56
M  V30 60 1 23 57
M  V30 61 1 24 58
M  V30 62 1 24 59
M  V30 63 1 26 60
M  V30 64 1 30 61
M  V30 65 1 31 62
M  V30 66 1 32 63
M  V30 67 1 33 64
M  V30 68 1 36 65
M  V30 END BOND
M  V30 END CTAB
M  END
>  <Dataset>  (910) 
ChEMBL_Kinases

>  <Ligand_Instance>  (910) 
nan

>  <PDB_ID>  (910) 
nan

>  <Standardized_SMILES>  (910) 
CN(C)CCC(Nc1ncnc2c(C(N)=O)cccc12)C1=CCCC(NC(=O)c2ccccc2F)=C1

>  <Name>  (910) 
nan

>  <Pocket>  (910) 
nan

>  <ATP_Site>  (910) 
nan

>  <Peripheral>  (910) 
nan

>  <Num_H_Atoms_ProtBoundConf>  (910) 
nan

>  <Num_Resolved_Atoms>  (910) 
nan

>  <Num_Not_Resolved_Atoms>  (910) 
nan

$$$$
CHEMBL3680460
     RDKit          3D

  0  0  0  0  0  0  0  0  0  0999 V3000
M  V30 BEGIN CTAB
M  V30 COUNTS 56 59 0 0 0
M  V30 BEGIN ATOM
M  V30 1 C 5.992449 -3.330349 6.660630 0
M  V30 2 O 5.839438 -3.218853 5.263637 0
M  V30 3 C 5.025164 -2.288011 4.646030 0
M  V30 4 C 4.253711 -1.345408 5.286512 0
M  V30 5 C 3.474963 -0.463086 4.535745 0
M  V30 6 C 3.428662 -0.476697 3.156218 0
M  V30 7 C 2.585155 0.486121 2.472389 0
M  V30 8 O 1.940182 1.283165 3.195346 0
M  V30 9 N 2.489977 0.529598 1.057871 0
M  V30 10 C 1.659767 1.478175 0.391307 0
M  V30 11 C 2.277391 2.674685 0.079464 0
M  V30 12 C 1.511847 3.622748 -0.566289 0
M  V30 13 C 0.189586 3.438775 -0.908209 0
M  V30 14 C -0.413709 2.245578 -0.593320 0
M  V30 15 C -1.807297 1.750385 -0.828909 0 CFG=1
M  V30 16 C -2.555352 2.672674 -1.760517 0
M  V30 17 N -1.770774 0.379284 -1.299355 0
M  V30 18 C -2.998793 -0.344770 -1.510805 0
M  V30 19 N -4.192519 0.213743 -1.269782 0
M  V30 20 C -5.365665 -0.417788 -1.442234 0
M  V30 21 N -5.421142 -1.688121 -1.880546 0
M  V30 22 C -4.260686 -2.309349 -2.141999 0
M  V30 23 C -4.297152 -3.612051 -2.592320 0
M  V30 24 C -5.559039 -4.335344 -2.793529 0
M  V30 25 N -6.753863 -3.646660 -2.510774 0
M  V30 26 O -5.589469 -5.523426 -3.201815 0
M  V30 27 C -3.108033 -4.254182 -2.862146 0
M  V30 28 C -1.874721 -3.617144 -2.690110 0
M  V30 29 C -1.898625 -2.316207 -2.238060 0
M  V30 30 C -3.068856 -1.645331 -1.959017 0
M  V30 31 C 0.336663 1.264662 0.061603 0
M  V30 32 C 4.206294 -1.426063 2.527518 0
M  V30 33 C 4.986244 -2.311003 3.254039 0
M  V30 34 F 5.718545 -3.212001 2.522933 0
M  V30 35 H 6.885830 -2.772935 6.993374 0
M  V30 36 H 6.178216 -4.391069 6.978539 0
M  V30 37 H 5.086960 -3.013397 7.218298 0
M  V30 38 H 4.289869 -1.335115 6.359250 0
M  V30 39 H 2.895934 0.250625 5.142357 0
M  V30 40 H 3.024304 -0.131400 0.450908 0
M  V30 41 H 3.308075 2.927567 0.299469 0
M  V30 42 H 1.924874 4.583803 -0.843063 0
M  V30 43 H -0.467555 4.109504 -1.399519 0
M  V30 44 H -2.329309 1.747281 0.146422 0
M  V30 45 H -1.890082 3.185555 -2.489008 0
M  V30 46 H -3.229348 2.040911 -2.372832 0
M  V30 47 H -3.172434 3.354076 -1.177163 0
M  V30 48 H -0.843997 -0.020516 -1.463908 0
M  V30 49 H -6.214500 0.179302 -1.201570 0
M  V30 50 H -7.593205 -3.092831 -2.359245 0
M  V30 51 H -7.299216 -4.197104 -1.799235 0
M  V30 52 H -3.211288 -5.266034 -3.209050 0
M  V30 53 H -0.975585 -4.159646 -2.913851 0
M  V30 54 H -0.928022 -1.879855 -2.125415 0
M  V30 55 H 0.007722 0.284762 0.373163 0
M  V30 56 H 4.195921 -1.467100 1.453418 0
M  V30 END ATOM
M  V30 BEGIN BOND
M  V30 1 1 1 2
M  V30 2 1 2 3
M  V30 3 2 3 4
M  V30 4 1 4 5
M  V30 5 2 5 6
M  V30 6 1 6 7
M  V30 7 2 7 8
M  V30 8 1 7 9
M  V30 9 1 9 10
M  V30 10 2 10 11
M  V30 11 1 11 12
M  V30 12 2 12 13
M  V30 13 1 13 14
M  V30 14 1 14 15
M  V30 15 1 15 16
M  V30 16 1 15 17
M  V30 17 1 17 18
M  V30 18 2 18 19
M  V30 19 1 19 20
M  V30 20 2 20 21
M  V30 21 1 21 22
M  V30 22 2 22 23
M  V30 23 1 23 24
M  V30 24 1 24 25
M  V30 25 2 24 26
M  V30 26 1 23 27
M  V30 27 2 27 28
M  V30 28 1 28 29
M  V30 29 2 29 30
M  V30 30 2 14 31
M  V30 31 1 6 32
M  V30 32 2 32 33
M  V30 33 1 33 34
M  V30 34 1 33 3
M  V30 35 1 31 10
M  V30 36 1 30 18
M  V30 37 1 30 22
M  V30 38 1 1 35
M  V30 39 1 1 36
M  V30 40 1 1 37
M  V30 41 1 4 38
M  V30 42 1 5 39
M  V30 43 1 9 40
M  V30 44 1 11 41
M  V30 45 1 12 42
M  V30 46 1 13 43
M  V30 47 1 15 44 CFG=1
M  V30 48 1 16 45
M  V30 49 1 16 46
M  V30 50 1 16 47
M  V30 51 1 17 48
M  V30 52 1 20 49
M  V30 53 1 25 50
M  V30 54 1 25 51
M  V30 55 1 27 52
M  V30 56 1 28 53
M  V30 57 1 29 54
M  V30 58 1 31 55
M  V30 59 1 32 56
M  V30 END BOND
M  V30 END CTAB
M  END
>  <Dataset>  (911) 
ChEMBL_Kinases

>  <Ligand_Instance>  (911) 
nan

>  <PDB_ID>  (911) 
nan

>  <Standardized_SMILES>  (911) 
COc1ccc(C(=O)Nc2cccc([C@@H](C)Nc3ncnc4c(C(N)=O)cccc34)c2)cc1F

>  <Name>  (911) 
nan

>  <Pocket>  (911) 
nan

>  <ATP_Site>  (911) 
nan

>  <Peripheral>  (911) 
nan

>  <Num_H_Atoms_ProtBoundConf>  (911) 
nan

>  <Num_Resolved_Atoms>  (911) 
nan

>  <Num_Not_Resolved_Atoms>  (911) 
nan

$$$$
CHEMBL3680464
     RDKit          3D

  0  0  0  0  0  0  0  0  0  0999 V3000
M  V30 BEGIN CTAB
M  V30 COUNTS 63 67 0 0 0
M  V30 BEGIN ATOM
M  V30 1 N 5.825612 1.213667 3.818917 0
M  V30 2 C 6.125423 0.683397 2.542338 0
M  V30 3 O 7.152711 -0.026485 2.401451 0
M  V30 4 C 5.229282 0.979755 1.433516 0
M  V30 5 C 5.518304 0.443441 0.199180 0
M  V30 6 C 4.656607 0.732895 -0.849423 0
M  V30 7 C 3.561954 1.535447 -0.610175 0
M  V30 8 C 3.245923 2.081121 0.593176 0
M  V30 9 C 2.135066 2.876519 0.757485 0
M  V30 10 N 1.240206 3.187458 -0.301604 0
M  V30 11 C 0.068876 4.010115 -0.178111 0
M  V30 12 C -0.957511 3.482796 0.755235 0
M  V30 13 C -1.147661 3.754227 2.093214 0
M  V30 14 C -2.157363 3.157056 2.816855 0
M  V30 15 C -3.033892 2.256311 2.246832 0
M  V30 16 C -2.881199 1.955113 0.909101 0
M  V30 17 N -3.745352 1.025523 0.220711 0
M  V30 18 C -3.170231 -0.257533 0.328261 0
M  V30 19 O -2.077762 -0.220134 0.988847 0
M  V30 20 C -3.764003 -1.480387 -0.253061 0
M  V30 21 C -4.963537 -1.557450 -0.959489 0
M  V30 22 C -5.361243 -2.792384 -1.436935 0
M  V30 23 N -4.601360 -3.896277 -1.221260 0
M  V30 24 C -3.446269 -3.813035 -0.538854 0
M  V30 25 N -2.745218 -5.040550 -0.385025 0
M  V30 26 C -3.197601 -6.272128 -0.946219 0
M  V30 27 C -2.212794 -6.693077 -2.023161 0
M  V30 28 C -0.800705 -6.786522 -1.524860 0
M  V30 29 C -0.388546 -5.682392 -0.600945 0
M  V30 30 C -1.506549 -5.251950 0.334250 0
M  V30 31 C -2.996635 -2.629176 -0.041630 0
M  V30 32 C -1.845943 2.577428 0.199716 0
M  V30 33 N 1.994760 3.321351 2.014349 0
M  V30 34 C 2.827446 3.040024 3.021814 0
M  V30 35 N 3.905566 2.265868 2.854652 0
M  V30 36 C 4.119627 1.776640 1.616201 0
M  V30 37 H 6.058644 1.964290 4.529045 0
M  V30 38 H 5.581835 1.575404 4.755278 0
M  V30 39 H 6.396371 -0.159804 0.151320 0
M  V30 40 H 4.915325 0.298301 -1.789055 0
M  V30 41 H 2.978534 1.682830 -1.492571 0
M  V30 42 H 1.424046 2.802291 -1.248722 0
M  V30 43 H -0.383968 4.142178 -1.178844 0
M  V30 44 H 0.312274 5.042207 0.169346 0
M  V30 45 H -0.454722 4.467592 2.511665 0
M  V30 46 H -2.232182 3.429559 3.865143 0
M  V30 47 H -3.822607 1.788934 2.812462 0
M  V30 48 H -4.661893 1.126266 -0.309186 0
M  V30 49 H -5.480771 -0.619449 -1.068186 0
M  V30 50 H -6.297566 -2.791436 -1.975504 0
M  V30 51 H -3.236313 -7.081540 -0.197298 0
M  V30 52 H -4.185270 -6.217315 -1.445858 0
M  V30 53 H -2.291581 -6.023429 -2.920029 0
M  V30 54 H -2.506978 -7.701837 -2.377922 0
M  V30 55 H -0.132955 -6.684921 -2.428804 0
M  V30 56 H -0.586042 -7.794184 -1.108759 0
M  V30 57 H 0.077734 -4.810557 -1.106879 0
M  V30 58 H 0.414579 -6.109724 0.055850 0
M  V30 59 H -1.128835 -4.380586 0.871409 0
M  V30 60 H -1.668454 -6.046042 1.080521 0
M  V30 61 H -2.057982 -2.607241 0.503539 0
M  V30 62 H -1.780830 2.292982 -0.859583 0
M  V30 63 H 2.488157 3.525990 3.946570 0
M  V30 END ATOM
M  V30 BEGIN BOND
M  V30 1 1 1 2
M  V30 2 2 2 3
M  V30 3 1 2 4
M  V30 4 2 4 5
M  V30 5 1 5 6
M  V30 6 2 6 7
M  V30 7 1 7 8
M  V30 8 2 8 9
M  V30 9 1 9 10
M  V30 10 1 10 11
M  V30 11 1 11 12
M  V30 12 2 12 13
M  V30 13 1 13 14
M  V30 14 2 14 15
M  V30 15 1 15 16
M  V30 16 1 16 17
M  V30 17 1 17 18
M  V30 18 2 18 19
M  V30 19 1 18 20
M  V30 20 2 20 21
M  V30 21 1 21 22
M  V30 22 2 22 23
M  V30 23 1 23 24
M  V30 24 1 24 25
M  V30 25 1 25 26
M  V30 26 1 26 27
M  V30 27 1 27 28
M  V30 28 1 28 29
M  V30 29 1 29 30
M  V30 30 2 24 31
M  V30 31 2 16 32
M  V30 32 1 9 33
M  V30 33 2 33 34
M  V30 34 1 34 35
M  V30 35 2 35 36
M  V30 36 1 36 4
M  V30 37 1 36 8
M  V30 38 1 32 12
M  V30 39 1 31 20
M  V30 40 1 30 25
M  V30 41 1 1 37
M  V30 42 1 1 38
M  V30 43 1 5 39
M  V30 44 1 6 40
M  V30 45 1 7 41
M  V30 46 1 10 42
M  V30 47 1 11 43
M  V30 48 1 11 44
M  V30 49 1 13 45
M  V30 50 1 14 46
M  V30 51 1 15 47
M  V30 52 1 17 48
M  V30 53 1 21 49
M  V30 54 1 22 50
M  V30 55 1 26 51
M  V30 56 1 26 52
M  V30 57 1 27 53
M  V30 58 1 27 54
M  V30 59 1 28 55
M  V30 60 1 28 56
M  V30 61 1 29 57
M  V30 62 1 29 58
M  V30 63 1 30 59
M  V30 64 1 30 60
M  V30 65 1 31 61
M  V30 66 1 32 62
M  V30 67 1 34 63
M  V30 END BOND
M  V30 END CTAB
M  END
>  <Dataset>  (912) 
ChEMBL_Kinases

>  <Ligand_Instance>  (912) 
nan

>  <PDB_ID>  (912) 
nan

>  <Standardized_SMILES>  (912) 
NC(=O)c1cccc2c(NCc3cccc(NC(=O)c4ccnc(N5CCCCC5)c4)c3)ncnc12

>  <Name>  (912) 
nan

>  <Pocket>  (912) 
nan

>  <ATP_Site>  (912) 
nan

>  <Peripheral>  (912) 
nan

>  <Num_H_Atoms_ProtBoundConf>  (912) 
nan

>  <Num_Resolved_Atoms>  (912) 
nan

>  <Num_Not_Resolved_Atoms>  (912) 
nan

$$$$
CHEMBL3680467
     RDKit          3D

  0  0  0  0  0  0  0  0  0  0999 V3000
M  V30 BEGIN CTAB
M  V30 COUNTS 41 43 0 0 0
M  V30 BEGIN ATOM
M  V30 1 N -5.852253 0.147376 -1.371865 0
M  V30 2 C -5.665758 0.905860 -0.173516 0
M  V30 3 O -6.670041 1.242541 0.512281 0
M  V30 4 C -4.341821 1.307689 0.287938 0
M  V30 5 C -4.275650 2.037253 1.456627 0
M  V30 6 C -3.001119 2.403599 1.867752 0
M  V30 7 C -1.907254 2.036559 1.120223 0
M  V30 8 C -2.021508 1.318970 -0.022341 0
M  V30 9 C -0.935291 0.942212 -0.784334 0
M  V30 10 N 0.386369 1.293529 -0.429167 0
M  V30 11 C 1.767569 1.164909 -0.834580 0
M  V30 12 C 2.351425 -0.204733 -0.751261 0
M  V30 13 C 2.292601 -0.779479 0.612299 0
M  V30 14 C 1.947018 -1.974759 0.989962 0
M  V30 15 C 1.572015 -2.855229 -0.092740 0
M  V30 16 C 1.581572 -2.477241 -1.384832 0
M  V30 17 N 1.200268 -3.398132 -2.361964 0
M  V30 18 C 0.192874 -3.478494 -3.357799 0
M  V30 19 O -0.660019 -2.592624 -3.558173 0
M  V30 20 C 1.998320 -1.143456 -1.860186 0
M  V30 21 N -1.203724 0.234388 -1.888883 0
M  V30 22 C -2.394790 -0.140685 -2.325935 0
M  V30 23 N -3.441549 0.231270 -1.577429 0
M  V30 24 C -3.251237 0.934364 -0.469276 0
M  V30 25 H -5.704940 0.246974 -2.404662 0
M  V30 26 H -6.256701 -0.763813 -1.063386 0
M  V30 27 H -5.144922 2.306629 2.014655 0
M  V30 28 H -2.928852 2.975482 2.780972 0
M  V30 29 H -0.977228 2.366481 1.521655 0
M  V30 30 H 0.472414 1.842773 0.436332 0
M  V30 31 H 1.824921 1.419132 -1.958706 0
M  V30 32 H 2.445300 1.938115 -0.411181 0
M  V30 33 H 3.480637 -0.026008 -0.891113 0
M  V30 34 H 2.599650 -0.025023 1.352969 0
M  V30 35 H 1.945343 -2.270103 2.029225 0
M  V30 36 H 1.259014 -3.890855 0.119796 0
M  V30 37 H 1.866352 -4.226091 -2.298465 0
M  V30 38 H 0.144971 -4.351501 -3.990806 0
M  V30 39 H 2.899461 -1.340312 -2.536828 0
M  V30 40 H 1.272793 -0.618691 -2.500355 0
M  V30 41 H -2.623932 -0.707376 -3.209399 0
M  V30 END ATOM
M  V30 BEGIN BOND
M  V30 1 1 1 2
M  V30 2 2 2 3
M  V30 3 1 2 4
M  V30 4 2 4 5
M  V30 5 1 5 6
M  V30 6 2 6 7
M  V30 7 1 7 8
M  V30 8 2 8 9
M  V30 9 1 9 10
M  V30 10 1 10 11
M  V30 11 1 11 12
M  V30 12 1 12 13
M  V30 13 2 13 14
M  V30 14 1 14 15
M  V30 15 2 15 16
M  V30 16 1 16 17
M  V30 17 1 17 18
M  V30 18 2 18 19
M  V30 19 1 16 20
M  V30 20 1 9 21
M  V30 21 2 21 22
M  V30 22 1 22 23
M  V30 23 2 23 24
M  V30 24 1 24 4
M  V30 25 1 24 8
M  V30 26 1 20 12
M  V30 27 1 1 25
M  V30 28 1 1 26
M  V30 29 1 5 27
M  V30 30 1 6 28
M  V30 31 1 7 29
M  V30 32 1 10 30
M  V30 33 1 11 31
M  V30 34 1 11 32
M  V30 35 1 12 33
M  V30 36 1 13 34
M  V30 37 1 14 35
M  V30 38 1 15 36
M  V30 39 1 17 37
M  V30 40 1 18 38
M  V30 41 1 20 39
M  V30 42 1 20 40
M  V30 43 1 22 41
M  V30 END BOND
M  V30 END CTAB
M  END
>  <Dataset>  (913) 
ChEMBL_Kinases

>  <Ligand_Instance>  (913) 
nan

>  <PDB_ID>  (913) 
nan

>  <Standardized_SMILES>  (913) 
NC(=O)c1cccc2c(NCC3C=CC=C(NC=O)C3)ncnc12

>  <Name>  (913) 
nan

>  <Pocket>  (913) 
nan

>  <ATP_Site>  (913) 
nan

>  <Peripheral>  (913) 
nan

>  <Num_H_Atoms_ProtBoundConf>  (913) 
nan

>  <Num_Resolved_Atoms>  (913) 
nan

>  <Num_Not_Resolved_Atoms>  (913) 
nan

$$$$
CHEMBL3680483
     RDKit          3D

  0  0  0  0  0  0  0  0  0  0999 V3000
M  V30 BEGIN CTAB
M  V30 COUNTS 66 69 0 0 0
M  V30 BEGIN ATOM
M  V30 1 C 1.836026 -4.475016 5.849497 0
M  V30 2 N 3.217406 -4.167022 6.028191 0
M  V30 3 C 3.514432 -2.948980 6.703687 0
M  V30 4 C 4.036800 -4.491609 4.911455 0
M  V30 5 C 3.814685 -3.674158 3.679072 0
M  V30 6 O 4.026399 -2.303664 3.827850 0
M  V30 7 C 3.863746 -1.392930 2.774501 0
M  V30 8 C 3.480604 -1.836926 1.526427 0
M  V30 9 C 3.331561 -0.885457 0.507510 0
M  V30 10 C 3.561707 0.458357 0.746194 0
M  V30 11 N 3.335557 1.188548 -0.456714 0
M  V30 12 C 2.021564 1.644195 -0.640925 0
M  V30 13 O 1.043669 1.465379 0.160667 0
M  V30 14 N 1.729916 2.375538 -1.825878 0
M  V30 15 C 0.509562 2.975342 -2.317777 0
M  V30 16 C 0.098732 4.291325 -2.067087 0
M  V30 17 C -1.100430 4.681713 -2.622656 0
M  V30 18 C -1.846674 3.808708 -3.384424 0
M  V30 19 C -1.451758 2.498965 -3.641777 0
M  V30 20 C -2.377626 1.714371 -4.489997 0
M  V30 21 N -3.454802 1.087830 -3.774362 0
M  V30 22 C -3.323055 0.134943 -2.742449 0
M  V30 23 N -2.119391 -0.279887 -2.326785 0
M  V30 24 C -2.024255 -1.184589 -1.343454 0
M  V30 25 N -3.093878 -1.742208 -0.703181 0
M  V30 26 C -4.332577 -1.343301 -1.100457 0
M  V30 27 C -5.399896 -1.897366 -0.465383 0
M  V30 28 C -5.215671 -2.880741 0.604029 0
M  V30 29 N -3.897143 -3.252337 0.981380 0
M  V30 30 O -6.176898 -3.414226 1.206373 0
M  V30 31 C -6.688202 -1.526289 -0.832429 0
M  V30 32 C -6.837605 -0.591083 -1.847381 0
M  V30 33 C -5.705229 -0.076256 -2.441464 0
M  V30 34 C -4.419289 -0.412684 -2.112235 0
M  V30 35 C -0.252101 2.100589 -3.089406 0
M  V30 36 C 3.944184 0.875497 2.004304 0
M  V30 37 C 4.094726 -0.049336 3.016251 0
M  V30 38 H 1.759072 -5.168877 4.964295 0
M  V30 39 H 1.441187 -5.097209 6.703507 0
M  V30 40 H 1.179290 -3.606150 5.661582 0
M  V30 41 H 4.255014 -2.344827 6.146199 0
M  V30 42 H 3.909263 -3.232697 7.720171 0
M  V30 43 H 2.582779 -2.354242 6.835507 0
M  V30 44 H 5.113506 -4.419002 5.225277 0
M  V30 45 H 3.875466 -5.562812 4.679763 0
M  V30 46 H 2.779116 -3.893869 3.285828 0
M  V30 47 H 4.491762 -4.029100 2.879992 0
M  V30 48 H 3.317751 -2.898187 1.409290 0
M  V30 49 H 3.026222 -1.375525 -0.423248 0
M  V30 50 H 4.079397 1.393977 -1.183559 0
M  V30 51 H 2.432190 2.599658 -2.576385 0
M  V30 52 H 0.774383 4.869998 -1.456369 0
M  V30 53 H -1.401439 5.704864 -2.417494 0
M  V30 54 H -2.787374 4.223181 -3.780273 0
M  V30 55 H -2.749906 2.388929 -5.285318 0
M  V30 56 H -1.832490 0.908302 -5.046886 0
M  V30 57 H -4.388125 1.411352 -4.096085 0
M  V30 58 H -0.976266 -1.424423 -1.113887 0
M  V30 59 H -3.166030 -3.956622 0.787134 0
M  V30 60 H -3.149024 -2.928219 1.629082 0
M  V30 61 H -7.502269 -1.992195 -0.300812 0
M  V30 62 H -7.850379 -0.306906 -2.127359 0
M  V30 63 H -5.927505 0.637686 -3.212731 0
M  V30 64 H 0.044839 1.103463 -3.298545 0
M  V30 65 H 4.085736 1.944959 2.037382 0
M  V30 66 H 4.395822 0.354957 3.970014 0
M  V30 END ATOM
M  V30 BEGIN BOND
M  V30 1 1 1 2
M  V30 2 1 2 3
M  V30 3 1 2 4
M  V30 4 1 4 5
M  V30 5 1 5 6
M  V30 6 1 6 7
M  V30 7 2 7 8
M  V30 8 1 8 9
M  V30 9 2 9 10
M  V30 10 1 10 11
M  V30 11 1 11 12
M  V30 12 2 12 13
M  V30 13 1 12 14
M  V30 14 1 14 15
M  V30 15 2 15 16
M  V30 16 1 16 17
M  V30 17 2 17 18
M  V30 18 1 18 19
M  V30 19 1 19 20
M  V30 20 1 20 21
M  V30 21 1 21 22
M  V30 22 2 22 23
M  V30 23 1 23 24
M  V30 24 2 24 25
M  V30 25 1 25 26
M  V30 26 2 26 27
M  V30 27 1 27 28
M  V30 28 1 28 29
M  V30 29 2 28 30
M  V30 30 1 27 31
M  V30 31 2 31 32
M  V30 32 1 32 33
M  V30 33 2 33 34
M  V30 34 2 19 35
M  V30 35 1 10 36
M  V30 36 2 36 37
M  V30 37 1 37 7
M  V30 38 1 35 15
M  V30 39 1 34 22
M  V30 40 1 34 26
M  V30 41 1 1 38
M  V30 42 1 1 39
M  V30 43 1 1 40
M  V30 44 1 3 41
M  V30 45 1 3 42
M  V30 46 1 3 43
M  V30 47 1 4 44
M  V30 48 1 4 45
M  V30 49 1 5 46
M  V30 50 1 5 47
M  V30 51 1 8 48
M  V30 52 1 9 49
M  V30 53 1 11 50
M  V30 54 1 14 51
M  V30 55 1 16 52
M  V30 56 1 17 53
M  V30 57 1 18 54
M  V30 58 1 20 55
M  V30 59 1 20 56
M  V30 60 1 21 57
M  V30 61 1 24 58
M  V30 62 1 29 59
M  V30 63 1 29 60
M  V30 64 1 31 61
M  V30 65 1 32 62
M  V30 66 1 33 63
M  V30 67 1 35 64
M  V30 68 1 36 65
M  V30 69 1 37 66
M  V30 END BOND
M  V30 END CTAB
M  END
>  <Dataset>  (914) 
ChEMBL_Kinases

>  <Ligand_Instance>  (914) 
nan

>  <PDB_ID>  (914) 
nan

>  <Standardized_SMILES>  (914) 
CN(C)CCOc1ccc(NC(=O)Nc2cccc(CNc3ncnc4c(C(N)=O)cccc34)c2)cc1

>  <Name>  (914) 
nan

>  <Pocket>  (914) 
nan

>  <ATP_Site>  (914) 
nan

>  <Peripheral>  (914) 
nan

>  <Num_H_Atoms_ProtBoundConf>  (914) 
nan

>  <Num_Resolved_Atoms>  (914) 
nan

>  <Num_Not_Resolved_Atoms>  (914) 
nan

$$$$
CHEMBL3680470
     RDKit          3D

  0  0  0  0  0  0  0  0  0  0999 V3000
M  V30 BEGIN CTAB
M  V30 COUNTS 69 73 0 0 0
M  V30 BEGIN ATOM
M  V30 1 C 3.019667 1.202290 4.149000 0
M  V30 2 N 3.631083 0.248146 3.249826 0
M  V30 3 C 3.951346 -1.011961 3.823296 0
M  V30 4 C 2.883784 0.178007 1.995247 0
M  V30 5 C 1.564429 -0.418548 2.257418 0
M  V30 6 C 0.620396 -0.597272 1.103211 0
M  V30 7 N 0.220574 0.558989 0.406310 0
M  V30 8 C 0.406652 1.738001 -0.361022 0
M  V30 9 N 1.684827 1.979713 -0.642319 0
M  V30 10 C 2.075848 3.028570 -1.351606 0
M  V30 11 N 1.128809 3.868111 -1.793666 0
M  V30 12 C -0.172431 3.684218 -1.546882 0
M  V30 13 C -1.168874 4.518351 -1.983143 0
M  V30 14 C -0.705374 5.676838 -2.770216 0
M  V30 15 N -1.771892 6.492821 -3.221516 0
M  V30 16 O 0.522475 5.844900 -2.970180 0
M  V30 17 C -2.480536 4.257137 -1.687677 0
M  V30 18 C -2.851728 3.155935 -0.947068 0
M  V30 19 C -1.863722 2.305525 -0.499679 0
M  V30 20 C -0.562995 2.598916 -0.814655 0
M  V30 21 C 1.211376 -1.659571 0.219320 0
M  V30 22 C 2.186632 -1.505837 -0.742582 0
M  V30 23 C 2.641974 -2.559201 -1.495286 0
M  V30 24 C 2.166247 -3.833855 -1.350651 0
M  V30 25 C 1.186439 -4.086455 -0.412191 0
M  V30 26 N 0.655506 -5.373274 -0.210171 0
M  V30 27 C -0.391457 -5.788471 0.726241 0
M  V30 28 O -0.625807 -7.162678 0.678046 0
M  V30 29 C -1.637566 -5.107684 0.258415 0
M  V30 30 C -2.650398 -4.403103 0.872768 0
M  V30 31 C -3.573256 -4.001826 -0.101113 0
M  V30 32 C -4.800503 -3.229586 0.125591 0
M  V30 33 C -5.424803 -3.082092 1.439792 0
M  V30 34 C -4.646723 -1.918978 0.924067 0
M  V30 35 N -3.091613 -4.472177 -1.261410 0
M  V30 36 N -1.965817 -5.118119 -1.066828 0
M  V30 37 C 0.769765 -2.992169 0.313003 0
M  V30 38 H 2.297918 1.856287 3.606680 0
M  V30 39 H 2.578032 0.729916 5.029067 0
M  V30 40 H 3.821202 1.901833 4.514826 0
M  V30 41 H 5.072873 -1.097220 3.929815 0
M  V30 42 H 3.637727 -1.862010 3.223667 0
M  V30 43 H 3.565691 -1.033017 4.871163 0
M  V30 44 H 2.750612 1.260263 1.729224 0
M  V30 45 H 3.521171 -0.375554 1.278662 0
M  V30 46 H 1.702803 -1.392497 2.816115 0
M  V30 47 H 1.057136 0.228038 3.038696 0
M  V30 48 H -0.275486 -1.139438 1.569788 0
M  V30 49 H -0.807311 0.484814 0.549930 0
M  V30 50 H 3.087393 3.307965 -1.630873 0
M  V30 51 H -1.892400 7.477897 -3.574135 0
M  V30 52 H -1.899179 7.447394 -3.564941 0
M  V30 53 H -3.210411 4.960524 -2.066137 0
M  V30 54 H -3.915717 3.062648 -0.782966 0
M  V30 55 H -2.254410 1.481439 0.066216 0
M  V30 56 H 2.602047 -0.542848 -0.905399 0
M  V30 57 H 3.423231 -2.351755 -2.244874 0
M  V30 58 H 2.542246 -4.628362 -1.952525 0
M  V30 59 H 1.054916 -6.155790 -0.807054 0
M  V30 60 H -0.162284 -5.497318 1.745473 0
M  V30 61 H -0.750077 -7.514464 1.604382 0
M  V30 62 H -2.647945 -4.241059 1.919233 0
M  V30 63 H -5.415269 -3.097109 -0.795471 0
M  V30 64 H -6.545498 -2.976246 1.445155 0
M  V30 65 H -5.069693 -3.584377 2.345131 0
M  V30 66 H -5.223497 -1.045208 0.569125 0
M  V30 67 H -3.640355 -1.737384 1.353793 0
M  V30 68 H -1.532254 -5.513182 -1.940317 0
M  V30 69 H -0.006713 -3.233569 1.051186 0
M  V30 END ATOM
M  V30 BEGIN BOND
M  V30 1 1 1 2
M  V30 2 1 2 3
M  V30 3 1 2 4
M  V30 4 1 4 5
M  V30 5 1 5 6
M  V30 6 1 6 7
M  V30 7 1 7 8
M  V30 8 2 8 9
M  V30 9 1 9 10
M  V30 10 2 10 11
M  V30 11 1 11 12
M  V30 12 2 12 13
M  V30 13 1 13 14
M  V30 14 1 14 15
M  V30 15 2 14 16
M  V30 16 1 13 17
M  V30 17 2 17 18
M  V30 18 1 18 19
M  V30 19 2 19 20
M  V30 20 1 6 21
M  V30 21 2 21 22
M  V30 22 1 22 23
M  V30 23 2 23 24
M  V30 24 1 24 25
M  V30 25 1 25 26
M  V30 26 1 26 27
M  V30 27 1 27 28
M  V30 28 1 27 29
M  V30 29 2 29 30
M  V30 30 1 30 31
M  V30 31 1 31 32
M  V30 32 1 32 33
M  V30 33 1 33 34
M  V30 34 2 31 35
M  V30 35 1 35 36
M  V30 36 2 25 37
M  V30 37 1 20 8
M  V30 38 1 37 21
M  V30 39 1 20 12
M  V30 40 1 36 29
M  V30 41 1 34 32
M  V30 42 1 1 38
M  V30 43 1 1 39
M  V30 44 1 1 40
M  V30 45 1 3 41
M  V30 46 1 3 42
M  V30 47 1 3 43
M  V30 48 1 4 44
M  V30 49 1 4 45
M  V30 50 1 5 46
M  V30 51 1 5 47
M  V30 52 1 6 48
M  V30 53 1 7 49
M  V30 54 1 10 50
M  V30 55 1 15 51
M  V30 56 1 15 52
M  V30 57 1 17 53
M  V30 58 1 18 54
M  V30 59 1 19 55
M  V30 60 1 22 56
M  V30 61 1 23 57
M  V30 62 1 24 58
M  V30 63 1 26 59
M  V30 64 1 27 60
M  V30 65 1 28 61
M  V30 66 1 30 62
M  V30 67 1 32 63
M  V30 68 1 33 64
M  V30 69 1 33 65
M  V30 70 1 34 66
M  V30 71 1 34 67
M  V30 72 1 36 68
M  V30 73 1 37 69
M  V30 END BOND
M  V30 END CTAB
M  END
>  <Dataset>  (915) 
ChEMBL_Kinases

>  <Ligand_Instance>  (915) 
nan

>  <PDB_ID>  (915) 
nan

>  <Standardized_SMILES>  (915) 
CN(C)CCC(Nc1ncnc2c(C(N)=O)cccc12)c1cccc(NC(O)c2cc(C3CC3)n[nH]2)c1

>  <Name>  (915) 
nan

>  <Pocket>  (915) 
nan

>  <ATP_Site>  (915) 
nan

>  <Peripheral>  (915) 
nan

>  <Num_H_Atoms_ProtBoundConf>  (915) 
nan

>  <Num_Resolved_Atoms>  (915) 
nan

>  <Num_Not_Resolved_Atoms>  (915) 
nan

$$$$
CHEMBL3680481
     RDKit          3D

  0  0  0  0  0  0  0  0  0  0999 V3000
M  V30 BEGIN CTAB
M  V30 COUNTS 55 58 0 0 0
M  V30 BEGIN ATOM
M  V30 1 C 9.096149 -2.021865 2.113884 0
M  V30 2 S 8.072856 -2.674089 0.837490 0
M  V30 3 O 7.580588 -4.063028 1.220563 0
M  V30 4 O 8.831517 -2.867966 -0.467228 0
M  V30 5 C 6.712549 -1.660524 0.476334 0
M  V30 6 C 5.531807 -1.862061 1.160434 0
M  V30 7 C 4.410091 -1.093959 0.920441 0
M  V30 8 C 4.413781 -0.081528 -0.019962 0
M  V30 9 C 3.284541 0.781787 -0.353224 0
M  V30 10 O 3.369430 1.689067 -1.220359 0
M  V30 11 N 2.046576 0.613057 0.303644 0
M  V30 12 C 0.809812 1.292396 0.179313 0
M  V30 13 C 0.506494 2.417777 0.957192 0
M  V30 14 C -0.712880 3.047363 0.801155 0
M  V30 15 C -1.654739 2.604848 -0.102342 0
M  V30 16 C -1.407287 1.519779 -0.877375 0
M  V30 17 C -2.239997 0.829125 -1.913165 0
M  V30 18 N -3.010338 -0.268559 -1.372403 0
M  V30 19 C -4.053025 -0.176306 -0.417383 0
M  V30 20 N -4.444332 1.000522 0.095489 0
M  V30 21 C -5.404810 1.175940 0.982881 0
M  V30 22 N -6.100759 0.109657 1.462294 0
M  V30 23 C -5.758470 -1.118829 0.986237 0
M  V30 24 C -6.448385 -2.195672 1.458337 0
M  V30 25 C -7.498974 -2.025261 2.425747 0
M  V30 26 N -8.249002 -3.115221 2.944534 0
M  V30 27 O -7.820446 -0.905059 2.873178 0
M  V30 28 C -6.159732 -3.487761 1.021412 0
M  V30 29 C -5.142743 -3.625106 0.088607 0
M  V30 30 C -4.472949 -2.507024 -0.359775 0
M  V30 31 C -4.746682 -1.247067 0.059301 0
M  V30 32 C -0.170683 0.882745 -0.718186 0
M  V30 33 C 5.597447 0.120942 -0.705793 0
M  V30 34 C 6.688738 -0.647347 -0.452844 0
M  V30 35 H 8.479409 -1.353486 2.737630 0
M  V30 36 H 9.977264 -1.467998 1.707226 0
M  V30 37 H 9.445327 -2.877709 2.755511 0
M  V30 38 H 5.487659 -2.639925 1.900309 0
M  V30 39 H 3.500532 -1.254642 1.451928 0
M  V30 40 H 1.867161 -0.106757 1.039034 0
M  V30 41 H 1.241422 2.776041 1.673173 0
M  V30 42 H -0.978920 3.918581 1.386182 0
M  V30 43 H -2.624820 3.043308 -0.287494 0
M  V30 44 H -2.933421 1.654917 -2.273951 0
M  V30 45 H -1.630975 0.590321 -2.783621 0
M  V30 46 H -2.696141 -1.172002 -1.783082 0
M  V30 47 H -5.670561 2.165391 1.357207 0
M  V30 48 H -9.189412 -3.588099 2.806543 0
M  V30 49 H -7.942042 -3.778772 3.711215 0
M  V30 50 H -6.700844 -4.351073 1.388838 0
M  V30 51 H -4.916632 -4.644164 -0.254142 0
M  V30 52 H -3.712815 -2.704383 -1.070017 0
M  V30 53 H 0.135559 0.011145 -1.280675 0
M  V30 54 H 5.715816 0.889679 -1.467878 0
M  V30 55 H 7.635370 -0.492080 -0.995114 0
M  V30 END ATOM
M  V30 BEGIN BOND
M  V30 1 1 1 2
M  V30 2 2 2 3
M  V30 3 2 2 4
M  V30 4 1 2 5
M  V30 5 2 5 6
M  V30 6 1 6 7
M  V30 7 2 7 8
M  V30 8 1 8 9
M  V30 9 2 9 10
M  V30 10 1 9 11
M  V30 11 1 11 12
M  V30 12 2 12 13
M  V30 13 1 13 14
M  V30 14 2 14 15
M  V30 15 1 15 16
M  V30 16 1 16 17
M  V30 17 1 17 18
M  V30 18 1 18 19
M  V30 19 2 19 20
M  V30 20 1 20 21
M  V30 21 2 21 22
M  V30 22 1 22 23
M  V30 23 2 23 24
M  V30 24 1 24 25
M  V30 25 1 25 26
M  V30 26 2 25 27
M  V30 27 1 24 28
M  V30 28 2 28 29
M  V30 29 1 29 30
M  V30 30 2 30 31
M  V30 31 2 16 32
M  V30 32 1 8 33
M  V30 33 2 33 34
M  V30 34 1 34 5
M  V30 35 1 32 12
M  V30 36 1 31 19
M  V30 37 1 31 23
M  V30 38 1 1 35
M  V30 39 1 1 36
M  V30 40 1 1 37
M  V30 41 1 6 38
M  V30 42 1 7 39
M  V30 43 1 11 40
M  V30 44 1 13 41
M  V30 45 1 14 42
M  V30 46 1 15 43
M  V30 47 1 17 44
M  V30 48 1 17 45
M  V30 49 1 18 46
M  V30 50 1 21 47
M  V30 51 1 26 48
M  V30 52 1 26 49
M  V30 53 1 28 50
M  V30 54 1 29 51
M  V30 55 1 30 52
M  V30 56 1 32 53
M  V30 57 1 33 54
M  V30 58 1 34 55
M  V30 END BOND
M  V30 END CTAB
M  END
>  <Dataset>  (916) 
ChEMBL_Kinases

>  <Ligand_Instance>  (916) 
nan

>  <PDB_ID>  (916) 
nan

>  <Standardized_SMILES>  (916) 
CS(=O)(=O)c1ccc(C(=O)Nc2cccc(CNc3ncnc4c(C(N)=O)cccc34)c2)cc1

>  <Name>  (916) 
nan

>  <Pocket>  (916) 
nan

>  <ATP_Site>  (916) 
nan

>  <Peripheral>  (916) 
nan

>  <Num_H_Atoms_ProtBoundConf>  (916) 
nan

>  <Num_Resolved_Atoms>  (916) 
nan

>  <Num_Not_Resolved_Atoms>  (916) 
nan

$$$$
CHEMBL3680474
     RDKit          3D

  0  0  0  0  0  0  0  0  0  0999 V3000
M  V30 BEGIN CTAB
M  V30 COUNTS 55 58 0 0 0
M  V30 BEGIN ATOM
M  V30 1 C 2.626198 -1.434708 6.990265 0
M  V30 2 C 2.300733 -1.575144 5.534423 0
M  V30 3 C 2.301749 -0.468856 4.685151 0
M  V30 4 C 1.960416 -1.015540 3.469726 0
M  V30 5 C 1.825694 -0.246427 2.225319 0
M  V30 6 O 1.711443 -0.791702 1.099981 0
M  V30 7 N 1.816330 1.188827 2.203932 0
M  V30 8 C 1.669571 1.550847 0.811642 0
M  V30 9 C 2.884426 1.689938 0.162836 0
M  V30 10 C 2.835620 2.027794 -1.171271 0
M  V30 11 C 1.623800 2.214592 -1.811895 0
M  V30 12 C 0.432474 2.066424 -1.128688 0
M  V30 13 C -0.861452 2.268517 -1.865948 0
M  V30 14 C -1.274464 3.687204 -1.617927 0
M  V30 15 N -1.842250 1.280628 -1.518551 0
M  V30 16 C -1.548634 -0.096675 -1.702027 0
M  V30 17 N -0.353693 -0.461073 -2.195720 0
M  V30 18 C -0.052314 -1.775151 -2.376370 0
M  V30 19 N -0.938533 -2.748888 -2.067053 0
M  V30 20 C -2.137811 -2.441280 -1.574096 0
M  V30 21 C -3.077108 -3.404882 -1.242198 0
M  V30 22 C -2.767072 -4.818740 -1.428234 0
M  V30 23 N -1.567342 -5.350834 -1.928270 0
M  V30 24 O -3.583930 -5.744046 -1.144746 0
M  V30 25 C -4.320990 -3.097926 -0.731586 0
M  V30 26 C -4.616518 -1.763537 -0.553735 0
M  V30 27 C -3.673363 -0.807239 -0.886608 0
M  V30 28 C -2.436494 -1.097965 -1.393438 0
M  V30 29 C 0.448048 1.728776 0.206688 0
M  V30 30 C 1.766847 -2.375112 3.591593 0
M  V30 31 C 1.387098 -3.292443 2.480815 0
M  V30 32 F 2.332732 -3.273925 1.484394 0
M  V30 33 F 1.221033 -4.573383 2.980442 0
M  V30 34 F 0.143245 -2.879973 2.008461 0
M  V30 35 O 1.985060 -2.651059 4.851685 0
M  V30 36 H 3.562471 -0.880266 7.134563 0
M  V30 37 H 2.634050 -2.441366 7.434635 0
M  V30 38 H 1.744526 -0.908201 7.428866 0
M  V30 39 H 2.510220 0.568110 4.882902 0
M  V30 40 H 1.908811 1.685188 3.127142 0
M  V30 41 H 3.848976 1.548492 0.647977 0
M  V30 42 H 3.772743 2.145404 -1.722236 0
M  V30 43 H 1.604007 2.484290 -2.874974 0
M  V30 44 H -0.649545 2.159220 -2.949877 0
M  V30 45 H -2.189263 3.980205 -2.172375 0
M  V30 46 H -0.452717 4.341450 -1.968438 0
M  V30 47 H -1.361293 3.887126 -0.518209 0
M  V30 48 H -2.719671 1.695729 -1.144636 0
M  V30 49 H 0.921939 -2.054146 -2.776514 0
M  V30 50 H -1.669454 -5.772388 -2.889053 0
M  V30 51 H -0.643322 -5.346604 -1.421972 0
M  V30 52 H -5.062191 -3.839633 -0.466082 0
M  V30 53 H -5.601980 -1.518303 -0.151837 0
M  V30 54 H -3.982827 0.204041 -0.717777 0
M  V30 55 H -0.450949 1.603676 0.776151 0
M  V30 END ATOM
M  V30 BEGIN BOND
M  V30 1 1 1 2
M  V30 2 2 2 3
M  V30 3 1 3 4
M  V30 4 1 4 5
M  V30 5 2 5 6
M  V30 6 1 5 7
M  V30 7 1 7 8
M  V30 8 2 8 9
M  V30 9 1 9 10
M  V30 10 2 10 11
M  V30 11 1 11 12
M  V30 12 1 12 13
M  V30 13 1 13 14
M  V30 14 1 13 15
M  V30 15 1 15 16
M  V30 16 2 16 17
M  V30 17 1 17 18
M  V30 18 2 18 19
M  V30 19 1 19 20
M  V30 20 2 20 21
M  V30 21 1 21 22
M  V30 22 1 22 23
M  V30 23 2 22 24
M  V30 24 1 21 25
M  V30 25 2 25 26
M  V30 26 1 26 27
M  V30 27 2 27 28
M  V30 28 2 12 29
M  V30 29 2 4 30
M  V30 30 1 30 31
M  V30 31 1 31 32
M  V30 32 1 31 33
M  V30 33 1 31 34
M  V30 34 1 30 35
M  V30 35 1 35 2
M  V30 36 1 29 8
M  V30 37 1 28 16
M  V30 38 1 28 20
M  V30 39 1 1 36
M  V30 40 1 1 37
M  V30 41 1 1 38
M  V30 42 1 3 39
M  V30 43 1 7 40
M  V30 44 1 9 41
M  V30 45 1 10 42
M  V30 46 1 11 43
M  V30 47 1 13 44
M  V30 48 1 14 45
M  V30 49 1 14 46
M  V30 50 1 14 47
M  V30 51 1 15 48
M  V30 52 1 18 49
M  V30 53 1 23 50
M  V30 54 1 23 51
M  V30 55 1 25 52
M  V30 56 1 26 53
M  V30 57 1 27 54
M  V30 58 1 29 55
M  V30 END BOND
M  V30 END CTAB
M  END
>  <Dataset>  (917) 
ChEMBL_Kinases

>  <Ligand_Instance>  (917) 
nan

>  <PDB_ID>  (917) 
nan

>  <Standardized_SMILES>  (917) 
Cc1cc(C(=O)Nc2cccc(C(C)Nc3ncnc4c(C(N)=O)cccc34)c2)c(C(F)(F)F)o1

>  <Name>  (917) 
nan

>  <Pocket>  (917) 
nan

>  <ATP_Site>  (917) 
nan

>  <Peripheral>  (917) 
nan

>  <Num_H_Atoms_ProtBoundConf>  (917) 
nan

>  <Num_Resolved_Atoms>  (917) 
nan

>  <Num_Not_Resolved_Atoms>  (917) 
nan

$$$$
CHEMBL3680480
     RDKit          3D

  0  0  0  0  0  0  0  0  0  0999 V3000
M  V30 BEGIN CTAB
M  V30 COUNTS 58 61 0 0 0
M  V30 BEGIN ATOM
M  V30 1 C 6.732747 -0.187238 4.525714 0
M  V30 2 C 7.159769 -0.575718 3.137385 0
M  V30 3 O 5.966678 -0.636627 2.338244 0
M  V30 4 C 5.173878 0.493600 2.183076 0
M  V30 5 C 4.029876 0.354853 1.391422 0
M  V30 6 C 3.273001 1.486257 1.260239 0
M  V30 7 C 2.032581 1.568903 0.477157 0
M  V30 8 O 1.300141 2.604173 0.340794 0
M  V30 9 N 1.481013 0.455660 -0.251257 0
M  V30 10 C 0.267634 0.909762 -0.893072 0
M  V30 11 C 0.367965 1.447240 -2.181301 0
M  V30 12 C -0.814382 1.866078 -2.754091 0
M  V30 13 C -2.040999 1.778532 -2.130509 0
M  V30 14 C -2.124117 1.246403 -0.861144 0
M  V30 15 C -3.313269 1.044145 0.008180 0
M  V30 16 C -4.622253 1.307867 -0.689768 0
M  V30 17 N -3.285758 -0.270914 0.625392 0
M  V30 18 C -3.255475 -1.414444 -0.251190 0
M  V30 19 N -3.252745 -1.249874 -1.578542 0
M  V30 20 C -3.224020 -2.314347 -2.390842 0
M  V30 21 N -3.196695 -3.588915 -1.940433 0
M  V30 22 C -3.198032 -3.810367 -0.621072 0
M  V30 23 C -3.169011 -5.106791 -0.167251 0
M  V30 24 C -3.138667 -6.251740 -1.061858 0
M  V30 25 N -3.140909 -5.996032 -2.457895 0
M  V30 26 O -3.110967 -7.437961 -0.661981 0
M  V30 27 C -3.170175 -5.307919 1.213827 0
M  V30 28 C -3.199764 -4.234056 2.104518 0
M  V30 29 C -3.227455 -2.970657 1.558652 0
M  V30 30 C -3.227691 -2.711408 0.205951 0
M  V30 31 C -0.962119 0.807740 -0.234959 0
M  V30 32 C 3.618505 2.679393 1.868635 0
M  V30 33 C 4.769035 2.768444 2.648462 0
M  V30 34 N 5.507972 1.653696 2.773429 0
M  V30 35 H 5.632711 -0.098509 4.624050 0
M  V30 36 H 7.199303 0.806196 4.773424 0
M  V30 37 H 7.037714 -0.913084 5.305611 0
M  V30 38 H 7.813388 0.216037 2.679615 0
M  V30 39 H 7.667067 -1.558049 3.128571 0
M  V30 40 H 3.710474 -0.536962 0.896406 0
M  V30 41 H 2.002209 -0.462057 -0.214689 0
M  V30 42 H 1.312741 1.525987 -2.687557 0
M  V30 43 H -0.802226 2.293811 -3.755136 0
M  V30 44 H -2.989779 2.083621 -2.518169 0
M  V30 45 H -3.216683 1.798846 0.813943 0
M  V30 46 H -4.886065 0.451637 -1.333574 0
M  V30 47 H -5.422860 1.375658 0.068281 0
M  V30 48 H -4.621320 2.205921 -1.300773 0
M  V30 49 H -3.289569 -0.324442 1.661327 0
M  V30 50 H -3.225057 -2.038966 -3.448463 0
M  V30 51 H -4.161058 -6.193889 -2.661978 0
M  V30 52 H -2.672272 -5.724815 -3.346719 0
M  V30 53 H -3.146627 -6.341258 1.525468 0
M  V30 54 H -3.198816 -4.462581 3.152264 0
M  V30 55 H -3.249497 -2.187062 2.300195 0
M  V30 56 H -0.893499 0.373683 0.754046 0
M  V30 57 H 3.034031 3.605548 1.784410 0
M  V30 58 H 5.104001 3.659138 3.152802 0
M  V30 END ATOM
M  V30 BEGIN BOND
M  V30 1 1 1 2
M  V30 2 1 2 3
M  V30 3 1 3 4
M  V30 4 2 4 5
M  V30 5 1 5 6
M  V30 6 1 6 7
M  V30 7 2 7 8
M  V30 8 1 7 9
M  V30 9 1 9 10
M  V30 10 2 10 11
M  V30 11 1 11 12
M  V30 12 2 12 13
M  V30 13 1 13 14
M  V30 14 1 14 15
M  V30 15 1 15 16
M  V30 16 1 15 17
M  V30 17 1 17 18
M  V30 18 2 18 19
M  V30 19 1 19 20
M  V30 20 2 20 21
M  V30 21 1 21 22
M  V30 22 2 22 23
M  V30 23 1 23 24
M  V30 24 1 24 25
M  V30 25 2 24 26
M  V30 26 1 23 27
M  V30 27 2 27 28
M  V30 28 1 28 29
M  V30 29 2 29 30
M  V30 30 2 14 31
M  V30 31 2 6 32
M  V30 32 1 32 33
M  V30 33 2 33 34
M  V30 34 1 34 4
M  V30 35 1 31 10
M  V30 36 1 30 18
M  V30 37 1 30 22
M  V30 38 1 1 35
M  V30 39 1 1 36
M  V30 40 1 1 37
M  V30 41 1 2 38
M  V30 42 1 2 39
M  V30 43 1 5 40
M  V30 44 1 9 41
M  V30 45 1 11 42
M  V30 46 1 12 43
M  V30 47 1 13 44
M  V30 48 1 15 45
M  V30 49 1 16 46
M  V30 50 1 16 47
M  V30 51 1 16 48
M  V30 52 1 17 49
M  V30 53 1 20 50
M  V30 54 1 25 51
M  V30 55 1 25 52
M  V30 56 1 27 53
M  V30 57 1 28 54
M  V30 58 1 29 55
M  V30 59 1 31 56
M  V30 60 1 32 57
M  V30 61 1 33 58
M  V30 END BOND
M  V30 END CTAB
M  END
>  <Dataset>  (918) 
ChEMBL_Kinases

>  <Ligand_Instance>  (918) 
nan

>  <PDB_ID>  (918) 
nan

>  <Standardized_SMILES>  (918) 
CCOc1cc(C(=O)Nc2cccc(C(C)Nc3ncnc4c(C(N)=O)cccc34)c2)ccn1

>  <Name>  (918) 
nan

>  <Pocket>  (918) 
nan

>  <ATP_Site>  (918) 
nan

>  <Peripheral>  (918) 
nan

>  <Num_H_Atoms_ProtBoundConf>  (918) 
nan

>  <Num_Resolved_Atoms>  (918) 
nan

>  <Num_Not_Resolved_Atoms>  (918) 
nan

$$$$
CHEMBL3680476
     RDKit          3D

  0  0  0  0  0  0  0  0  0  0999 V3000
M  V30 BEGIN CTAB
M  V30 COUNTS 67 70 0 0 0
M  V30 BEGIN ATOM
M  V30 1 C 5.422571 -4.556517 5.766110 0
M  V30 2 O 5.456656 -4.494141 4.374779 0
M  V30 3 C 4.948115 -3.517385 3.564058 0
M  V30 4 C 4.298869 -2.406103 4.057818 0
M  V30 5 C 3.811185 -1.460661 3.180165 0
M  V30 6 C 3.946941 -1.580918 1.813058 0
M  V30 7 C 3.451731 -0.619343 0.833596 0
M  V30 8 O 3.599291 -0.730967 -0.410777 0
M  V30 9 N 2.755427 0.526646 1.258577 0
M  V30 10 C 2.198020 1.575835 0.444856 0
M  V30 11 C 2.792708 2.733237 0.041399 0
M  V30 12 C 2.059603 3.593248 -0.745891 0
M  V30 13 C 0.765184 3.312462 -1.125107 0
M  V30 14 C 0.127110 2.132802 -0.727198 0
M  V30 15 C -1.276691 1.835874 -1.121259 0
M  V30 16 C -1.149094 1.057999 -2.435238 0
M  V30 17 C -0.358988 -0.187858 -2.318810 0
M  V30 18 N -0.282012 -0.933214 -3.568573 0
M  V30 19 C -1.556514 -1.473382 -3.928344 0
M  V30 20 C 0.358973 -0.198380 -4.623205 0
M  V30 21 N -2.100309 1.195947 -0.187146 0
M  V30 22 C -2.852803 0.785241 0.964734 0
M  V30 23 N -2.958681 1.259898 2.201523 0
M  V30 24 C -3.711198 0.669558 3.119932 0
M  V30 25 N -4.389893 -0.432546 2.816122 0
M  V30 26 C -4.357406 -0.991836 1.611957 0
M  V30 27 C -5.124039 -2.125047 1.453261 0
M  V30 28 C -5.913785 -2.689358 2.537381 0
M  V30 29 N -5.934368 -2.098877 3.817148 0
M  V30 30 O -6.596085 -3.727475 2.335246 0
M  V30 31 C -5.111832 -2.711628 0.205372 0
M  V30 32 C -4.361235 -2.161497 -0.797173 0
M  V30 33 C -3.629717 -1.027762 -0.536436 0
M  V30 34 C -3.571405 -0.365507 0.671070 0
M  V30 35 C 0.895093 1.291844 0.064093 0
M  V30 36 C 4.599348 -2.698464 1.328266 0
M  V30 37 C 5.104976 -3.674820 2.193427 0
M  V30 38 H 4.846698 -5.488815 6.036893 0
M  V30 39 H 6.463032 -4.767127 6.147065 0
M  V30 40 H 4.955088 -3.718465 6.281578 0
M  V30 41 H 4.159892 -2.252467 5.115562 0
M  V30 42 H 3.303312 -0.591439 3.566901 0
M  V30 43 H 2.550138 0.764471 2.253004 0
M  V30 44 H 3.806195 2.861840 0.389412 0
M  V30 45 H 2.571184 4.504971 -1.045694 0
M  V30 46 H 0.215115 4.019994 -1.750188 0
M  V30 47 H -1.690047 2.843164 -1.512411 0
M  V30 48 H -2.138669 0.917675 -2.921956 0
M  V30 49 H -0.598554 1.747930 -3.107090 0
M  V30 50 H 0.673551 0.097220 -1.996491 0
M  V30 51 H -0.761517 -0.864388 -1.556632 0
M  V30 52 H -1.926277 -2.050833 -3.045254 0
M  V30 53 H -2.328974 -0.712220 -4.131272 0
M  V30 54 H -1.442228 -2.195597 -4.760454 0
M  V30 55 H -0.337518 0.441609 -5.195403 0
M  V30 56 H 1.206822 0.346472 -4.161852 0
M  V30 57 H 0.792460 -0.928655 -5.337515 0
M  V30 58 H -1.764115 2.041221 0.365794 0
M  V30 59 H -3.672906 1.206316 4.078194 0
M  V30 60 H -5.731792 -2.711329 4.654240 0
M  V30 61 H -6.089785 -1.187959 4.310132 0
M  V30 62 H -5.701980 -3.600950 0.048473 0
M  V30 63 H -4.356039 -2.625194 -1.772752 0
M  V30 64 H -3.080705 -0.649333 -1.370422 0
M  V30 65 H 0.351041 0.392776 0.347253 0
M  V30 66 H 4.761951 -2.893882 0.270195 0
M  V30 67 H 5.619647 -4.554128 1.776672 0
M  V30 END ATOM
M  V30 BEGIN BOND
M  V30 1 1 1 2
M  V30 2 1 2 3
M  V30 3 2 3 4
M  V30 4 1 4 5
M  V30 5 2 5 6
M  V30 6 1 6 7
M  V30 7 2 7 8
M  V30 8 1 7 9
M  V30 9 1 9 10
M  V30 10 2 10 11
M  V30 11 1 11 12
M  V30 12 2 12 13
M  V30 13 1 13 14
M  V30 14 1 14 15
M  V30 15 1 15 16
M  V30 16 1 16 17
M  V30 17 1 17 18
M  V30 18 1 18 19
M  V30 19 1 18 20
M  V30 20 1 15 21
M  V30 21 1 21 22
M  V30 22 2 22 23
M  V30 23 1 23 24
M  V30 24 2 24 25
M  V30 25 1 25 26
M  V30 26 2 26 27
M  V30 27 1 27 28
M  V30 28 1 28 29
M  V30 29 2 28 30
M  V30 30 1 27 31
M  V30 31 2 31 32
M  V30 32 1 32 33
M  V30 33 2 33 34
M  V30 34 2 14 35
M  V30 35 1 6 36
M  V30 36 2 36 37
M  V30 37 1 37 3
M  V30 38 1 35 10
M  V30 39 1 34 22
M  V30 40 1 34 26
M  V30 41 1 1 38
M  V30 42 1 1 39
M  V30 43 1 1 40
M  V30 44 1 4 41
M  V30 45 1 5 42
M  V30 46 1 9 43
M  V30 47 1 11 44
M  V30 48 1 12 45
M  V30 49 1 13 46
M  V30 50 1 15 47
M  V30 51 1 16 48
M  V30 52 1 16 49
M  V30 53 1 17 50
M  V30 54 1 17 51
M  V30 55 1 19 52
M  V30 56 1 19 53
M  V30 57 1 19 54
M  V30 58 1 20 55
M  V30 59 1 20 56
M  V30 60 1 20 57
M  V30 61 1 21 58
M  V30 62 1 24 59
M  V30 63 1 29 60
M  V30 64 1 29 61
M  V30 65 1 31 62
M  V30 66 1 32 63
M  V30 67 1 33 64
M  V30 68 1 35 65
M  V30 69 1 36 66
M  V30 70 1 37 67
M  V30 END BOND
M  V30 END CTAB
M  END
>  <Dataset>  (919) 
ChEMBL_Kinases

>  <Ligand_Instance>  (919) 
nan

>  <PDB_ID>  (919) 
nan

>  <Standardized_SMILES>  (919) 
COc1ccc(C(=O)Nc2cccc(C(CCN(C)C)Nc3ncnc4c(C(N)=O)cccc34)c2)cc1

>  <Name>  (919) 
nan

>  <Pocket>  (919) 
nan

>  <ATP_Site>  (919) 
nan

>  <Peripheral>  (919) 
nan

>  <Num_H_Atoms_ProtBoundConf>  (919) 
nan

>  <Num_Resolved_Atoms>  (919) 
nan

>  <Num_Not_Resolved_Atoms>  (919) 
nan

$$$$
CHEMBL3680479
     RDKit          3D

  0  0  0  0  0  0  0  0  0  0999 V3000
M  V30 BEGIN CTAB
M  V30 COUNTS 63 66 0 0 0
M  V30 BEGIN ATOM
M  V30 1 C 3.682376 -4.308252 -0.491698 0
M  V30 2 O 2.918458 -3.253106 -0.024423 0
M  V30 3 C 3.450895 -2.014107 -0.261980 0
M  V30 4 C 2.562220 -0.948114 0.272882 0
M  V30 5 C 1.186838 -0.886317 -0.293915 0
M  V30 6 N 1.103931 -0.663449 -1.711310 0
M  V30 7 C 1.594999 0.512415 -2.304938 0
M  V30 8 N 2.147723 1.451197 -1.533968 0
M  V30 9 C 2.612915 2.576053 -2.102722 0
M  V30 10 N 2.564362 2.834727 -3.411061 0
M  V30 11 C 2.012406 1.915913 -4.249332 0
M  V30 12 C 1.959086 2.176487 -5.601774 0
M  V30 13 C 2.469950 3.398356 -6.178295 0
M  V30 14 N 3.044912 4.349768 -5.320814 0
M  V30 15 O 2.408297 3.617973 -7.414206 0
M  V30 16 C 1.388048 1.206459 -6.399200 0
M  V30 17 C 0.884658 0.016448 -5.883213 0
M  V30 18 C 0.980009 -0.160558 -4.516024 0
M  V30 19 C 1.536614 0.763267 -3.659715 0
M  V30 20 C 0.284095 -1.936250 0.225833 0
M  V30 21 C 0.058800 -3.138095 -0.417688 0
M  V30 22 C -0.770530 -4.142259 0.038751 0
M  V30 23 C -1.437689 -3.949826 1.231813 0
M  V30 24 C -1.264499 -2.772872 1.935053 0
M  V30 25 N -1.902071 -2.455853 3.184333 0
M  V30 26 C -3.161639 -1.796403 3.230330 0
M  V30 27 O -3.709120 -1.494706 2.138925 0
M  V30 28 C -3.857011 -1.448721 4.466605 0
M  V30 29 C -5.075602 -0.810346 4.344556 0
M  V30 30 C -5.759980 -0.467143 5.506134 0
M  V30 31 C -5.266018 -0.741186 6.784416 0
M  V30 32 O -5.966465 -0.389292 7.929249 0
M  V30 33 C -5.774020 0.874404 8.548720 0
M  V30 34 F -4.440188 0.972272 8.919226 0
M  V30 35 F -6.519575 1.011396 9.685349 0
M  V30 36 F -6.053819 1.901640 7.686622 0
M  V30 37 C -4.045095 -1.380409 6.875638 0
M  V30 38 C -3.344034 -1.732380 5.715215 0
M  V30 39 C -0.413297 -1.787799 1.429144 0
M  V30 40 H 3.793767 -4.199696 -1.581953 0
M  V30 41 H 4.645168 -4.423457 0.025490 0
M  V30 42 H 3.060303 -5.230402 -0.346009 0
M  V30 43 H 4.399275 -1.960169 0.330068 0
M  V30 44 H 3.770284 -1.852458 -1.309371 0
M  V30 45 H 3.092340 0.020009 0.088308 0
M  V30 46 H 2.583291 -1.056239 1.375847 0
M  V30 47 H 0.755377 0.077372 0.148034 0
M  V30 48 H 0.649030 -1.470917 -2.185735 0
M  V30 49 H 3.063146 3.340194 -1.470747 0
M  V30 50 H 2.910283 5.311977 -4.928012 0
M  V30 51 H 3.577421 4.937664 -4.673558 0
M  V30 52 H 1.374106 1.467745 -7.456875 0
M  V30 53 H 0.450839 -0.699900 -6.564402 0
M  V30 54 H 0.586712 -1.080682 -4.148407 0
M  V30 55 H 0.546881 -3.349076 -1.359707 0
M  V30 56 H -0.911509 -5.059097 -0.499739 0
M  V30 57 H -2.110029 -4.667421 1.681321 0
M  V30 58 H -1.434156 -2.713381 4.081316 0
M  V30 59 H -5.541813 -0.554606 3.379849 0
M  V30 60 H -6.715485 0.033157 5.412705 0
M  V30 61 H -3.634979 -1.607117 7.870234 0
M  V30 62 H -2.389727 -2.232381 5.814731 0
M  V30 63 H -0.266926 -0.865018 1.964390 0
M  V30 END ATOM
M  V30 BEGIN BOND
M  V30 1 1 1 2
M  V30 2 1 2 3
M  V30 3 1 3 4
M  V30 4 1 4 5
M  V30 5 1 5 6
M  V30 6 1 6 7
M  V30 7 2 7 8
M  V30 8 1 8 9
M  V30 9 2 9 10
M  V30 10 1 10 11
M  V30 11 2 11 12
M  V30 12 1 12 13
M  V30 13 1 13 14
M  V30 14 2 13 15
M  V30 15 1 12 16
M  V30 16 2 16 17
M  V30 17 1 17 18
M  V30 18 2 18 19
M  V30 19 1 5 20
M  V30 20 2 20 21
M  V30 21 1 21 22
M  V30 22 2 22 23
M  V30 23 1 23 24
M  V30 24 1 24 25
M  V30 25 1 25 26
M  V30 26 2 26 27
M  V30 27 1 26 28
M  V30 28 2 28 29
M  V30 29 1 29 30
M  V30 30 2 30 31
M  V30 31 1 31 32
M  V30 32 1 32 33
M  V30 33 1 33 34
M  V30 34 1 33 35
M  V30 35 1 33 36
M  V30 36 1 31 37
M  V30 37 2 37 38
M  V30 38 2 24 39
M  V30 39 1 19 7
M  V30 40 1 39 20
M  V30 41 1 19 11
M  V30 42 1 38 28
M  V30 43 1 1 40
M  V30 44 1 1 41
M  V30 45 1 1 42
M  V30 46 1 3 43
M  V30 47 1 3 44
M  V30 48 1 4 45
M  V30 49 1 4 46
M  V30 50 1 5 47
M  V30 51 1 6 48
M  V30 52 1 9 49
M  V30 53 1 14 50
M  V30 54 1 14 51
M  V30 55 1 16 52
M  V30 56 1 17 53
M  V30 57 1 18 54
M  V30 58 1 21 55
M  V30 59 1 22 56
M  V30 60 1 23 57
M  V30 61 1 25 58
M  V30 62 1 29 59
M  V30 63 1 30 60
M  V30 64 1 37 61
M  V30 65 1 38 62
M  V30 66 1 39 63
M  V30 END BOND
M  V30 END CTAB
M  END
>  <Dataset>  (920) 
ChEMBL_Kinases

>  <Ligand_Instance>  (920) 
nan

>  <PDB_ID>  (920) 
nan

>  <Standardized_SMILES>  (920) 
COCCC(Nc1ncnc2c(C(N)=O)cccc12)c1cccc(NC(=O)c2ccc(OC(F)(F)F)cc2)c1

>  <Name>  (920) 
nan

>  <Pocket>  (920) 
nan

>  <ATP_Site>  (920) 
nan

>  <Peripheral>  (920) 
nan

>  <Num_H_Atoms_ProtBoundConf>  (920) 
nan

>  <Num_Resolved_Atoms>  (920) 
nan

>  <Num_Not_Resolved_Atoms>  (920) 
nan

$$$$
CHEMBL3680458
     RDKit          3D

  0  0  0  0  0  0  0  0  0  0999 V3000
M  V30 BEGIN CTAB
M  V30 COUNTS 63 66 0 0 0
M  V30 BEGIN ATOM
M  V30 1 C -2.509529 -2.227887 3.460093 0
M  V30 2 N -1.876704 -3.154515 2.564095 0
M  V30 3 C -0.904825 -3.966271 3.224965 0
M  V30 4 C -1.386560 -2.504556 1.352165 0
M  V30 5 C -0.761979 -3.544103 0.510420 0
M  V30 6 C -0.156627 -3.155031 -0.783874 0
M  V30 7 N -1.059388 -2.532481 -1.727914 0
M  V30 8 C -1.582122 -1.212146 -1.734929 0
M  V30 9 N -1.255889 -0.307598 -0.836598 0
M  V30 10 C -1.699662 0.943711 -0.817776 0
M  V30 11 N -2.549884 1.367123 -1.768825 0
M  V30 12 C -2.921020 0.504754 -2.707113 0
M  V30 13 C -3.791497 0.925751 -3.686303 0
M  V30 14 C -4.278980 2.322060 -3.653757 0
M  V30 15 N -3.860666 3.231166 -2.636398 0
M  V30 16 O -5.071248 2.775053 -4.502280 0
M  V30 17 C -4.251100 0.129284 -4.712638 0
M  V30 18 C -3.762158 -1.151970 -4.684594 0
M  V30 19 C -2.892954 -1.623850 -3.732304 0
M  V30 20 C -2.454410 -0.806271 -2.724648 0
M  V30 21 C 1.039412 -2.268759 -0.615500 0
M  V30 22 C 1.424668 -1.726031 -1.846396 0
M  V30 23 C 2.523571 -0.866095 -1.964498 0
M  V30 24 C 3.213987 -0.575925 -0.804703 0
M  V30 25 C 2.837873 -1.108927 0.410986 0
M  V30 26 N 3.538444 -0.825376 1.645775 0
M  V30 27 C 2.931056 0.321474 2.223391 0
M  V30 28 O 1.986017 0.708936 1.470635 0
M  V30 29 C 3.288037 0.983283 3.462388 0
M  V30 30 C 2.493372 2.092393 3.780323 0
M  V30 31 C 2.708446 2.823503 4.923638 0
M  V30 32 F 1.920336 3.886628 5.195539 0
M  V30 33 C 3.714656 2.480921 5.787179 0
M  V30 34 C 4.523859 1.400535 5.522284 0
M  V30 35 C 4.277634 0.695768 4.369987 0
M  V30 36 F 5.039413 -0.366735 4.065396 0
M  V30 37 C 1.756956 -1.952712 0.515278 0
M  V30 38 H -1.853474 -1.352109 3.703233 0
M  V30 39 H -2.612935 -2.775370 4.443566 0
M  V30 40 H -3.520148 -1.949745 3.145536 0
M  V30 41 H 0.140987 -3.622563 3.140208 0
M  V30 42 H -1.220771 -4.103801 4.278761 0
M  V30 43 H -0.913378 -4.966702 2.716191 0
M  V30 44 H -2.336464 -2.187027 0.819204 0
M  V30 45 H -0.824615 -1.599185 1.559764 0
M  V30 46 H -1.585342 -4.284394 0.256115 0
M  V30 47 H -0.014257 -4.173962 1.049555 0
M  V30 48 H 0.295198 -4.104712 -1.203549 0
M  V30 49 H -1.317456 -3.210826 -2.474697 0
M  V30 50 H -1.340564 1.574202 -0.012599 0
M  V30 51 H -3.029901 3.665631 -2.159963 0
M  V30 52 H -4.540533 3.753617 -2.037176 0
M  V30 53 H -4.928932 0.532538 -5.438116 0
M  V30 54 H -4.099062 -1.830029 -5.485212 0
M  V30 55 H -2.580745 -2.629816 -3.807291 0
M  V30 56 H 0.943575 -1.897096 -2.812770 0
M  V30 57 H 2.842969 -0.435648 -2.892096 0
M  V30 58 H 4.064198 0.077860 -0.842693 0
M  V30 59 H 4.326309 -1.259112 2.144132 0
M  V30 60 H 1.675929 2.414814 3.133212 0
M  V30 61 H 3.879680 3.062577 6.688497 0
M  V30 62 H 5.328271 1.084899 6.160429 0
M  V30 63 H 1.375461 -2.431713 1.404564 0
M  V30 END ATOM
M  V30 BEGIN BOND
M  V30 1 1 1 2
M  V30 2 1 2 3
M  V30 3 1 2 4
M  V30 4 1 4 5
M  V30 5 1 5 6
M  V30 6 1 6 7
M  V30 7 1 7 8
M  V30 8 2 8 9
M  V30 9 1 9 10
M  V30 10 2 10 11
M  V30 11 1 11 12
M  V30 12 2 12 13
M  V30 13 1 13 14
M  V30 14 1 14 15
M  V30 15 2 14 16
M  V30 16 1 13 17
M  V30 17 2 17 18
M  V30 18 1 18 19
M  V30 19 2 19 20
M  V30 20 1 6 21
M  V30 21 2 21 22
M  V30 22 1 22 23
M  V30 23 2 23 24
M  V30 24 1 24 25
M  V30 25 1 25 26
M  V30 26 1 26 27
M  V30 27 2 27 28
M  V30 28 1 27 29
M  V30 29 2 29 30
M  V30 30 1 30 31
M  V30 31 1 31 32
M  V30 32 2 31 33
M  V30 33 1 33 34
M  V30 34 2 34 35
M  V30 35 1 35 36
M  V30 36 2 25 37
M  V30 37 1 20 8
M  V30 38 1 37 21
M  V30 39 1 20 12
M  V30 40 1 35 29
M  V30 41 1 1 38
M  V30 42 1 1 39
M  V30 43 1 1 40
M  V30 44 1 3 41
M  V30 45 1 3 42
M  V30 46 1 3 43
M  V30 47 1 4 44
M  V30 48 1 4 45
M  V30 49 1 5 46
M  V30 50 1 5 47
M  V30 51 1 6 48
M  V30 52 1 7 49
M  V30 53 1 10 50
M  V30 54 1 15 51
M  V30 55 1 15 52
M  V30 56 1 17 53
M  V30 57 1 18 54
M  V30 58 1 19 55
M  V30 59 1 22 56
M  V30 60 1 23 57
M  V30 61 1 24 58
M  V30 62 1 26 59
M  V30 63 1 30 60
M  V30 64 1 33 61
M  V30 65 1 34 62
M  V30 66 1 37 63
M  V30 END BOND
M  V30 END CTAB
M  END
>  <Dataset>  (921) 
ChEMBL_Kinases

>  <Ligand_Instance>  (921) 
nan

>  <PDB_ID>  (921) 
nan

>  <Standardized_SMILES>  (921) 
CN(C)CCC(Nc1ncnc2c(C(N)=O)cccc12)c1cccc(NC(=O)c2cc(F)ccc2F)c1

>  <Name>  (921) 
nan

>  <Pocket>  (921) 
nan

>  <ATP_Site>  (921) 
nan

>  <Peripheral>  (921) 
nan

>  <Num_H_Atoms_ProtBoundConf>  (921) 
nan

>  <Num_Resolved_Atoms>  (921) 
nan

>  <Num_Not_Resolved_Atoms>  (921) 
nan

$$$$
CHEMBL3680532
     RDKit          3D

  0  0  0  0  0  0  0  0  0  0999 V3000
M  V30 BEGIN CTAB
M  V30 COUNTS 56 59 0 0 0
M  V30 BEGIN ATOM
M  V30 1 C 6.865474 -2.961593 5.220433 0
M  V30 2 O 5.480302 -2.875545 5.047645 0
M  V30 3 C 4.818780 -1.987655 4.212877 0
M  V30 4 C 5.471167 -1.053644 3.428801 0
M  V30 5 C 4.753053 -0.179467 2.601805 0
M  V30 6 C 3.375626 -0.218695 2.540078 0
M  V30 7 C 2.691633 0.719566 1.656815 0
M  V30 8 O 3.430748 1.510745 1.021437 0
M  V30 9 N 1.295327 0.799436 1.470098 0
M  V30 10 C 0.547202 1.666651 0.642828 0
M  V30 11 C 1.032350 2.649312 -0.182379 0
M  V30 12 C 0.277276 3.481109 -0.980803 0
M  V30 13 C -1.104547 3.304637 -0.943597 0
M  V30 14 C -1.637405 2.311641 -0.113444 0
M  V30 15 C -3.101195 2.260988 -0.184255 0
M  V30 16 N -3.642597 1.447281 -1.236007 0
M  V30 17 C -3.456493 0.057650 -1.371138 0
M  V30 18 N -2.744840 -0.703437 -0.523830 0
M  V30 19 C -2.548721 -2.015048 -0.615401 0
M  V30 20 N -3.078836 -2.731091 -1.624923 0
M  V30 21 C -3.811099 -2.055485 -2.528486 0
M  V30 22 C -4.358444 -2.774206 -3.565808 0
M  V30 23 C -4.136074 -4.210080 -3.654502 0
M  V30 24 N -3.351605 -4.907664 -2.676929 0
M  V30 25 O -4.618923 -4.902029 -4.587633 0
M  V30 26 C -5.121436 -2.170893 -4.537982 0
M  V30 27 C -5.310077 -0.799695 -4.417723 0
M  V30 28 C -4.750561 -0.113464 -3.371557 0
M  V30 29 C -3.984530 -0.704358 -2.391223 0
M  V30 30 C -0.817498 1.525322 0.650854 0
M  V30 31 C 2.756897 -1.161341 3.334429 0
M  V30 32 C 3.435060 -2.034828 4.158059 0
M  V30 33 C 2.715800 -3.032741 4.993946 0
M  V30 34 F 1.357660 -2.894176 4.779113 0
M  V30 35 F 3.052943 -4.337763 4.690796 0
M  V30 36 F 2.929393 -2.786022 6.350676 0
M  V30 37 H 7.246349 -2.323750 6.059651 0
M  V30 38 H 7.123891 -4.024859 5.405501 0
M  V30 39 H 7.372721 -2.666405 4.278991 0
M  V30 40 H 6.549041 -0.995623 3.453112 0
M  V30 41 H 5.363193 0.521106 2.022127 0
M  V30 42 H 0.811791 0.086748 2.057649 0
M  V30 43 H 2.088713 2.814421 -0.237833 0
M  V30 44 H 0.727483 4.234837 -1.606956 0
M  V30 45 H -1.689880 3.972209 -1.582831 0
M  V30 46 H -3.547470 1.833267 0.768925 0
M  V30 47 H -3.553657 3.271078 -0.238121 0
M  V30 48 H -4.213834 1.955505 -1.941455 0
M  V30 49 H -1.949335 -2.540770 0.132415 0
M  V30 50 H -2.365300 -5.168720 -2.442282 0
M  V30 51 H -4.053277 -5.262701 -1.971052 0
M  V30 52 H -5.527607 -2.768339 -5.326884 0
M  V30 53 H -5.918124 -0.351097 -5.202153 0
M  V30 54 H -4.970519 0.928421 -3.395530 0
M  V30 55 H -1.281978 0.781840 1.277535 0
M  V30 56 H 1.699493 -1.226451 3.318967 0
M  V30 END ATOM
M  V30 BEGIN BOND
M  V30 1 1 1 2
M  V30 2 1 2 3
M  V30 3 2 3 4
M  V30 4 1 4 5
M  V30 5 2 5 6
M  V30 6 1 6 7
M  V30 7 2 7 8
M  V30 8 1 7 9
M  V30 9 1 9 10
M  V30 10 2 10 11
M  V30 11 1 11 12
M  V30 12 2 12 13
M  V30 13 1 13 14
M  V30 14 1 14 15
M  V30 15 1 15 16
M  V30 16 1 16 17
M  V30 17 2 17 18
M  V30 18 1 18 19
M  V30 19 2 19 20
M  V30 20 1 20 21
M  V30 21 2 21 22
M  V30 22 1 22 23
M  V30 23 1 23 24
M  V30 24 2 23 25
M  V30 25 1 22 26
M  V30 26 2 26 27
M  V30 27 1 27 28
M  V30 28 2 28 29
M  V30 29 2 14 30
M  V30 30 1 6 31
M  V30 31 2 31 32
M  V30 32 1 32 33
M  V30 33 1 33 34
M  V30 34 1 33 35
M  V30 35 1 33 36
M  V30 36 1 32 3
M  V30 37 1 30 10
M  V30 38 1 29 17
M  V30 39 1 29 21
M  V30 40 1 1 37
M  V30 41 1 1 38
M  V30 42 1 1 39
M  V30 43 1 4 40
M  V30 44 1 5 41
M  V30 45 1 9 42
M  V30 46 1 11 43
M  V30 47 1 12 44
M  V30 48 1 13 45
M  V30 49 1 15 46
M  V30 50 1 15 47
M  V30 51 1 16 48
M  V30 52 1 19 49
M  V30 53 1 24 50
M  V30 54 1 24 51
M  V30 55 1 26 52
M  V30 56 1 27 53
M  V30 57 1 28 54
M  V30 58 1 30 55
M  V30 59 1 31 56
M  V30 END BOND
M  V30 END CTAB
M  END
>  <Dataset>  (922) 
ChEMBL_Kinases

>  <Ligand_Instance>  (922) 
nan

>  <PDB_ID>  (922) 
nan

>  <Standardized_SMILES>  (922) 
COc1ccc(C(=O)Nc2cccc(CNc3ncnc4c(C(N)=O)cccc34)c2)cc1C(F)(F)F

>  <Name>  (922) 
nan

>  <Pocket>  (922) 
nan

>  <ATP_Site>  (922) 
nan

>  <Peripheral>  (922) 
nan

>  <Num_H_Atoms_ProtBoundConf>  (922) 
nan

>  <Num_Resolved_Atoms>  (922) 
nan

>  <Num_Not_Resolved_Atoms>  (922) 
nan

$$$$
CHEMBL3680531
     RDKit          3D

  0  0  0  0  0  0  0  0  0  0999 V3000
M  V30 BEGIN CTAB
M  V30 COUNTS 69 73 0 0 0
M  V30 BEGIN ATOM
M  V30 1 N 4.962011 1.965539 5.270721 0
M  V30 2 C 4.849027 0.558676 5.196560 0
M  V30 3 O 5.490183 0.169994 6.204816 0
M  V30 4 C 4.160157 -0.237953 4.198160 0
M  V30 5 C 3.571121 0.463374 3.247910 0
M  V30 6 N 3.619466 1.810469 3.228239 0
M  V30 7 C 2.997154 2.479168 2.225239 0
M  V30 8 N 2.344817 1.813025 1.269107 0
M  V30 9 C 2.239285 0.487301 1.199434 0
M  V30 10 N 1.531424 -0.174345 0.149757 0
M  V30 11 C 0.877785 0.557108 -0.898067 0
M  V30 12 C -0.247359 1.427765 -0.355972 0
M  V30 13 C -0.924242 2.186437 -1.468149 0
M  V30 14 N -1.983287 3.028742 -1.100292 0
M  V30 15 C -1.721523 4.188340 -0.339878 0
M  V30 16 C -2.406700 4.052812 0.994580 0
M  V30 17 C -3.427591 2.982131 0.754347 0
M  V30 18 C -3.167192 2.389306 -0.610957 0
M  V30 19 C 0.418591 -0.350979 -1.951942 0
M  V30 20 C 0.571603 -0.178900 -3.320475 0
M  V30 21 C 0.084369 -1.117609 -4.199598 0
M  V30 22 C -0.570686 -2.262689 -3.813518 0
M  V30 23 C -0.740522 -2.465976 -2.460263 0
M  V30 24 N -1.407893 -3.626818 -1.989105 0
M  V30 25 C -2.782992 -3.783415 -1.752211 0
M  V30 26 O -3.471619 -2.742867 -2.000547 0
M  V30 27 C -3.369002 -5.025714 -1.265342 0
M  V30 28 C -2.655182 -6.187445 -0.970867 0
M  V30 29 C -3.315148 -7.316035 -0.513715 0
M  V30 30 C -4.688799 -7.324684 -0.337275 0
M  V30 31 C -5.416085 -6.202290 -0.617112 0
M  V30 32 C -4.733393 -5.096466 -1.069511 0
M  V30 33 C -0.245892 -1.512780 -1.563977 0
M  V30 34 C 2.881202 -0.151561 2.230145 0
M  V30 35 C 2.870476 -1.470889 2.300177 0
M  V30 36 C 3.473314 -2.408819 3.286375 0
M  V30 37 C 4.214532 -1.700488 4.389411 0
M  V30 38 H 4.005087 2.342594 5.524828 0
M  V30 39 H 4.070338 2.456805 5.517335 0
M  V30 40 H 3.038265 3.564485 2.210970 0
M  V30 41 H 1.451896 -1.207039 0.088474 0
M  V30 42 H 1.667426 1.214268 -1.355806 0
M  V30 43 H 0.220601 2.140669 0.349397 0
M  V30 44 H -0.951535 0.816064 0.223126 0
M  V30 45 H -0.141678 2.811195 -1.969463 0
M  V30 46 H -1.270030 1.468302 -2.224426 0
M  V30 47 H -0.650342 4.456553 -0.246405 0
M  V30 48 H -2.210239 5.058120 -0.859285 0
M  V30 49 H -1.682093 3.809619 1.784017 0
M  V30 50 H -2.919315 5.010707 1.277509 0
M  V30 51 H -3.321357 2.209822 1.557957 0
M  V30 52 H -4.453689 3.402263 0.783661 0
M  V30 53 H -4.006117 2.662323 -1.307768 0
M  V30 54 H -3.114560 1.289714 -0.598148 0
M  V30 55 H 1.084674 0.715756 -3.627211 0
M  V30 56 H 0.231646 -0.932555 -5.253992 0
M  V30 57 H -0.924395 -2.952393 -4.543503 0
M  V30 58 H -0.755660 -4.424318 -1.815938 0
M  V30 59 H -1.590758 -6.152343 -1.117426 0
M  V30 60 H -2.754232 -8.208003 -0.288964 0
M  V30 61 H -5.242550 -8.202765 0.023322 0
M  V30 62 H -6.501267 -6.183705 -0.485878 0
M  V30 63 H -5.348774 -4.220499 -1.282163 0
M  V30 64 H -0.422302 -1.750124 -0.506013 0
M  V30 65 H 2.373793 -2.068339 1.575609 0
M  V30 66 H 2.655809 -3.022587 3.743644 0
M  V30 67 H 4.195508 -3.104403 2.780243 0
M  V30 68 H 5.263133 -2.062822 4.429216 0
M  V30 69 H 3.730147 -1.964607 5.371202 0
M  V30 END ATOM
M  V30 BEGIN BOND
M  V30 1 1 1 2
M  V30 2 2 2 3
M  V30 3 1 2 4
M  V30 4 2 4 5
M  V30 5 1 5 6
M  V30 6 2 6 7
M  V30 7 1 7 8
M  V30 8 2 8 9
M  V30 9 1 9 10
M  V30 10 1 10 11
M  V30 11 1 11 12
M  V30 12 1 12 13
M  V30 13 1 13 14
M  V30 14 1 14 15
M  V30 15 1 15 16
M  V30 16 1 16 17
M  V30 17 1 17 18
M  V30 18 1 11 19
M  V30 19 2 19 20
M  V30 20 1 20 21
M  V30 21 2 21 22
M  V30 22 1 22 23
M  V30 23 1 23 24
M  V30 24 1 24 25
M  V30 25 2 25 26
M  V30 26 1 25 27
M  V30 27 2 27 28
M  V30 28 1 28 29
M  V30 29 2 29 30
M  V30 30 1 30 31
M  V30 31 2 31 32
M  V30 32 2 23 33
M  V30 33 1 9 34
M  V30 34 2 34 35
M  V30 35 1 35 36
M  V30 36 1 36 37
M  V30 37 1 37 4
M  V30 38 1 34 5
M  V30 39 1 18 14
M  V30 40 1 33 19
M  V30 41 1 32 27
M  V30 42 1 1 38
M  V30 43 1 1 39
M  V30 44 1 7 40
M  V30 45 1 10 41
M  V30 46 1 11 42
M  V30 47 1 12 43
M  V30 48 1 12 44
M  V30 49 1 13 45
M  V30 50 1 13 46
M  V30 51 1 15 47
M  V30 52 1 15 48
M  V30 53 1 16 49
M  V30 54 1 16 50
M  V30 55 1 17 51
M  V30 56 1 17 52
M  V30 57 1 18 53
M  V30 58 1 18 54
M  V30 59 1 20 55
M  V30 60 1 21 56
M  V30 61 1 22 57
M  V30 62 1 24 58
M  V30 63 1 28 59
M  V30 64 1 29 60
M  V30 65 1 30 61
M  V30 66 1 31 62
M  V30 67 1 32 63
M  V30 68 1 33 64
M  V30 69 1 35 65
M  V30 70 1 36 66
M  V30 71 1 36 67
M  V30 72 1 37 68
M  V30 73 1 37 69
M  V30 END BOND
M  V30 END CTAB
M  END
>  <Dataset>  (923) 
ChEMBL_Kinases

>  <Ligand_Instance>  (923) 
nan

>  <PDB_ID>  (923) 
nan

>  <Standardized_SMILES>  (923) 
NC(=O)C1=c2ncnc(NC(CCN3CCCC3)c3cccc(NC(=O)c4ccccc4)c3)c2=CCC1

>  <Name>  (923) 
nan

>  <Pocket>  (923) 
nan

>  <ATP_Site>  (923) 
nan

>  <Peripheral>  (923) 
nan

>  <Num_H_Atoms_ProtBoundConf>  (923) 
nan

>  <Num_Resolved_Atoms>  (923) 
nan

>  <Num_Not_Resolved_Atoms>  (923) 
nan

$$$$
CHEMBL519965
     RDKit          3D

  0  0  0  0  0  0  0  0  0  0999 V3000
M  V30 BEGIN CTAB
M  V30 COUNTS 45 47 0 0 0
M  V30 BEGIN ATOM
M  V30 1 N 2.848466 -5.369867 -1.872243 0
M  V30 2 C 2.126949 -4.255970 -1.366353 0
M  V30 3 C 1.271643 -3.530245 -2.387137 0
M  V30 4 N 2.035973 -2.983579 -3.468178 0
M  V30 5 S 0.855545 -2.193310 -4.510098 0
M  V30 6 O -0.180917 -3.254669 -4.777761 0
M  V30 7 O 1.452090 -1.704597 -5.768308 0
M  V30 8 C 0.074257 -0.923538 -3.571588 0
M  V30 9 C 0.867929 0.189222 -3.333979 0
M  V30 10 C 0.279566 1.195926 -2.562129 0
M  V30 11 C -1.029122 1.069431 -2.071128 0
M  V30 12 C -1.546173 2.143410 -1.258286 0
M  V30 13 C -1.424023 3.506465 -1.558626 0
M  V30 14 C -1.976743 4.347157 -0.638878 0
M  V30 15 N -2.606835 3.989919 0.480506 0
M  V30 16 C -2.754584 2.668865 0.814924 0
M  V30 17 N -3.338120 2.083045 1.864398 0
M  V30 18 C -3.206146 0.754859 1.725825 0
M  V30 19 C -3.599303 -0.463214 2.509900 0
M  V30 20 C -2.380672 -1.143475 3.068239 0
M  V30 21 N -1.098435 -1.123355 2.451861 0
M  V30 22 O -1.816530 -1.854952 3.991341 0
M  V30 23 C -2.520126 0.529127 0.554470 0
M  V30 24 C -2.203451 1.740884 -0.086751 0
M  V30 25 C -1.759958 -0.054130 -2.348322 0
M  V30 26 C -1.217004 -1.084393 -3.109022 0
M  V30 27 H 3.872897 -5.216205 -1.955825 0
M  V30 28 H 2.602035 -6.294507 -1.457034 0
M  V30 29 H 1.399797 -4.646512 -0.590424 0
M  V30 30 H 2.800730 -3.555727 -0.856506 0
M  V30 31 H 0.474379 -4.196480 -2.798085 0
M  V30 32 H 0.801387 -2.685235 -1.848237 0
M  V30 33 H 2.350830 -3.809123 -4.063937 0
M  V30 34 H 1.877209 0.255705 -3.716231 0
M  V30 35 H 0.845345 2.119567 -2.332022 0
M  V30 36 H -0.919252 3.766292 -2.461732 0
M  V30 37 H -1.915622 5.411265 -0.811090 0
M  V30 38 H -3.828858 2.485349 2.676891 0
M  V30 39 H -4.106674 -1.135823 1.824263 0
M  V30 40 H -4.209910 -0.116232 3.388635 0
M  V30 41 H -0.228869 -1.006954 1.871415 0
M  V30 42 H -0.252462 -1.009245 1.885846 0
M  V30 43 H -2.195491 -0.427328 0.106850 0
M  V30 44 H -2.797403 -0.239443 -2.047110 0
M  V30 45 H -1.746927 -2.000463 -3.358979 0
M  V30 END ATOM
M  V30 BEGIN BOND
M  V30 1 1 1 2
M  V30 2 1 2 3
M  V30 3 1 3 4
M  V30 4 1 4 5
M  V30 5 2 5 6
M  V30 6 2 5 7
M  V30 7 1 5 8
M  V30 8 2 8 9
M  V30 9 1 9 10
M  V30 10 2 10 11
M  V30 11 1 11 12
M  V30 12 2 12 13
M  V30 13 1 13 14
M  V30 14 2 14 15
M  V30 15 1 15 16
M  V30 16 1 16 17
M  V30 17 1 17 18
M  V30 18 1 18 19
M  V30 19 1 19 20
M  V30 20 1 20 21
M  V30 21 2 20 22
M  V30 22 2 18 23
M  V30 23 1 23 24
M  V30 24 1 11 25
M  V30 25 2 25 26
M  V30 26 1 26 8
M  V30 27 1 24 12
M  V30 28 2 24 16
M  V30 29 1 1 27
M  V30 30 1 1 28
M  V30 31 1 2 29
M  V30 32 1 2 30
M  V30 33 1 3 31
M  V30 34 1 3 32
M  V30 35 1 4 33
M  V30 36 1 9 34
M  V30 37 1 10 35
M  V30 38 1 13 36
M  V30 39 1 14 37
M  V30 40 1 17 38
M  V30 41 1 19 39
M  V30 42 1 19 40
M  V30 43 1 21 41
M  V30 44 1 21 42
M  V30 45 1 23 43
M  V30 46 1 25 44
M  V30 47 1 26 45
M  V30 END BOND
M  V30 END CTAB
M  END
>  <Dataset>  (924) 
ChEMBL_Kinases

>  <Ligand_Instance>  (924) 
nan

>  <PDB_ID>  (924) 
nan

>  <Standardized_SMILES>  (924) 
NCCNS(=O)(=O)c1ccc(-c2ccnc3[nH]c(CC(N)=O)cc23)cc1

>  <Name>  (924) 
nan

>  <Pocket>  (924) 
nan

>  <ATP_Site>  (924) 
nan

>  <Peripheral>  (924) 
nan

>  <Num_H_Atoms_ProtBoundConf>  (924) 
nan

>  <Num_Resolved_Atoms>  (924) 
nan

>  <Num_Not_Resolved_Atoms>  (924) 
nan

$$$$
CHEMBL3680395
     RDKit          3D

  0  0  0  0  0  0  0  0  0  0999 V3000
M  V30 BEGIN CTAB
M  V30 COUNTS 67 70 0 0 0
M  V30 BEGIN ATOM
M  V30 1 C 1.237296 -6.870556 1.177047 0
M  V30 2 N 1.011138 -5.909348 0.055537 0
M  V30 3 C -0.448902 -5.904932 -0.088399 0
M  V30 4 C 1.489172 -4.612105 0.418776 0
M  V30 5 C 1.599223 -3.582792 -0.633875 0
M  V30 6 C 0.418196 -3.097478 -1.361605 0
M  V30 7 N 0.833968 -2.160421 -2.370042 0
M  V30 8 C 1.264277 -1.242564 -3.413300 0
M  V30 9 N 1.675873 -1.532948 -4.599460 0
M  V30 10 C 2.059289 -0.766739 -5.617152 0
M  V30 11 N 1.944176 0.475251 -5.181972 0
M  V30 12 C 1.551921 0.953267 -4.038512 0
M  V30 13 C 1.566193 2.321281 -3.968005 0
M  V30 14 C 2.032419 3.332471 -4.878764 0
M  V30 15 N 1.682025 4.673296 -4.849400 0
M  V30 16 O 2.793099 2.632699 -5.615710 0
M  V30 17 C 1.120219 2.760998 -2.693377 0
M  V30 18 C 0.701725 1.993859 -1.578452 0
M  V30 19 C 0.779535 0.660728 -1.901201 0
M  V30 20 C 1.176382 0.069963 -3.056880 0
M  V30 21 C -0.621272 -2.384474 -0.569717 0
M  V30 22 C -1.766592 -2.110590 -1.335190 0
M  V30 23 C -2.853166 -1.410356 -0.882050 0
M  V30 24 C -2.812530 -0.946901 0.408122 0
M  V30 25 C -1.719307 -1.163356 1.262435 0
M  V30 26 N -1.713432 -0.638752 2.550184 0
M  V30 27 C -2.023432 -0.752121 3.887945 0
M  V30 28 O -2.606939 -1.789997 4.296338 0
M  V30 29 C -1.679523 0.334479 4.820067 0
M  V30 30 C -2.185104 0.351261 6.087109 0
M  V30 31 C -1.891287 1.367023 7.010894 0
M  V30 32 C -1.040959 2.352393 6.517261 0
M  V30 33 O -0.739450 3.376973 7.422830 0
M  V30 34 C -1.549706 4.545120 7.492814 0
M  V30 35 F -1.004724 5.355019 8.483798 0
M  V30 36 F -2.853762 4.279212 7.818042 0
M  V30 37 F -1.508608 5.238505 6.288721 0
M  V30 38 C -0.474659 2.419509 5.238613 0
M  V30 39 C -0.840795 1.366843 4.433751 0
M  V30 40 C -0.721065 -1.874604 0.672489 0
M  V30 41 H 1.418358 -7.836092 0.628421 0
M  V30 42 H 0.311311 -7.000974 1.762735 0
M  V30 43 H 2.125855 -6.577937 1.738946 0
M  V30 44 H -0.744061 -5.999248 -1.152931 0
M  V30 45 H -0.909977 -6.780119 0.483362 0
M  V30 46 H -0.889827 -5.023220 0.389327 0
M  V30 47 H 2.542649 -4.744327 0.824471 0
M  V30 48 H 0.933228 -4.265153 1.330783 0
M  V30 49 H 2.335045 -4.004331 -1.400949 0
M  V30 50 H 2.213451 -2.714779 -0.215361 0
M  V30 51 H -0.101185 -3.962842 -1.851172 0
M  V30 52 H 1.144860 -3.038724 -2.913414 0
M  V30 53 H 2.354024 -1.259523 -6.523279 0
M  V30 54 H 1.082226 5.065563 -4.114554 0
M  V30 55 H 1.971602 5.398511 -5.533842 0
M  V30 56 H 1.093089 3.857397 -2.528719 0
M  V30 57 H 0.397575 2.520419 -0.721770 0
M  V30 58 H 0.500412 0.004228 -1.113974 0
M  V30 59 H -1.876222 -2.445479 -2.357479 0
M  V30 60 H -3.724885 -1.213578 -1.482379 0
M  V30 61 H -3.635319 -0.380173 0.835016 0
M  V30 62 H -1.259598 0.239099 2.238832 0
M  V30 63 H -2.834407 -0.461208 6.369825 0
M  V30 64 H -2.287806 1.392512 8.005410 0
M  V30 65 H 0.166115 3.245015 4.996095 0
M  V30 66 H -0.358119 1.458470 3.448728 0
M  V30 67 H 0.161454 -2.082835 1.252939 0
M  V30 END ATOM
M  V30 BEGIN BOND
M  V30 1 1 1 2
M  V30 2 1 2 3
M  V30 3 1 2 4
M  V30 4 1 4 5
M  V30 5 1 5 6
M  V30 6 1 6 7
M  V30 7 1 7 8
M  V30 8 2 8 9
M  V30 9 1 9 10
M  V30 10 2 10 11
M  V30 11 1 11 12
M  V30 12 2 12 13
M  V30 13 1 13 14
M  V30 14 1 14 15
M  V30 15 2 14 16
M  V30 16 1 13 17
M  V30 17 2 17 18
M  V30 18 1 18 19
M  V30 19 2 19 20
M  V30 20 1 6 21
M  V30 21 2 21 22
M  V30 22 1 22 23
M  V30 23 2 23 24
M  V30 24 1 24 25
M  V30 25 1 25 26
M  V30 26 1 26 27
M  V30 27 2 27 28
M  V30 28 1 27 29
M  V30 29 2 29 30
M  V30 30 1 30 31
M  V30 31 2 31 32
M  V30 32 1 32 33
M  V30 33 1 33 34
M  V30 34 1 34 35
M  V30 35 1 34 36
M  V30 36 1 34 37
M  V30 37 1 32 38
M  V30 38 2 38 39
M  V30 39 2 25 40
M  V30 40 1 20 8
M  V30 41 1 40 21
M  V30 42 1 20 12
M  V30 43 1 39 29
M  V30 44 1 1 41
M  V30 45 1 1 42
M  V30 46 1 1 43
M  V30 47 1 3 44
M  V30 48 1 3 45
M  V30 49 1 3 46
M  V30 50 1 4 47
M  V30 51 1 4 48
M  V30 52 1 5 49
M  V30 53 1 5 50
M  V30 54 1 6 51
M  V30 55 1 7 52
M  V30 56 1 10 53
M  V30 57 1 15 54
M  V30 58 1 15 55
M  V30 59 1 17 56
M  V30 60 1 18 57
M  V30 61 1 19 58
M  V30 62 1 22 59
M  V30 63 1 23 60
M  V30 64 1 24 61
M  V30 65 1 26 62
M  V30 66 1 30 63
M  V30 67 1 31 64
M  V30 68 1 38 65
M  V30 69 1 39 66
M  V30 70 1 40 67
M  V30 END BOND
M  V30 END CTAB
M  END
>  <Dataset>  (925) 
ChEMBL_Kinases

>  <Ligand_Instance>  (925) 
nan

>  <PDB_ID>  (925) 
nan

>  <Standardized_SMILES>  (925) 
CN(C)CCC(Nc1ncnc2c(C(N)=O)cccc12)c1cccc(NC(=O)c2ccc(OC(F)(F)F)cc2)c1

>  <Name>  (925) 
nan

>  <Pocket>  (925) 
nan

>  <ATP_Site>  (925) 
nan

>  <Peripheral>  (925) 
nan

>  <Num_H_Atoms_ProtBoundConf>  (925) 
nan

>  <Num_Resolved_Atoms>  (925) 
nan

>  <Num_Not_Resolved_Atoms>  (925) 
nan

$$$$
CHEMBL3680523
     RDKit          3D

  0  0  0  0  0  0  0  0  0  0999 V3000
M  V30 BEGIN CTAB
M  V30 COUNTS 60 63 0 0 0
M  V30 BEGIN ATOM
M  V30 1 C 6.406842 -1.899288 2.160409 0
M  V30 2 O 7.071636 -1.193114 1.177606 0
M  V30 3 C 6.407500 0.001224 0.814114 0
M  V30 4 C 7.239220 0.627924 -0.267723 0
M  V30 5 N 6.748307 1.858079 -0.793802 0
M  V30 6 C 5.446362 1.406629 -1.225925 0
M  V30 7 C 4.357796 1.776729 -0.425453 0
M  V30 8 C 3.096836 1.366122 -0.775685 0
M  V30 9 C 2.013801 1.819632 0.095217 0
M  V30 10 O 2.249663 2.639474 1.016326 0
M  V30 11 N 0.722799 1.305708 -0.143179 0
M  V30 12 C -0.571778 1.465610 0.421570 0
M  V30 13 C -1.454377 2.389197 -0.105809 0
M  V30 14 C -2.742989 2.601968 0.384651 0
M  V30 15 C -3.127797 1.829697 1.458329 0
M  V30 16 C -2.278765 0.897169 2.014425 0
M  V30 17 C -2.599251 -0.016468 3.159407 0
M  V30 18 N -2.962127 -1.296181 2.577200 0
M  V30 19 C -3.978427 -1.598397 1.640960 0
M  V30 20 N -4.759020 -0.623675 1.162133 0
M  V30 21 C -5.730232 -0.806149 0.273532 0
M  V30 22 N -5.973526 -2.055404 -0.201781 0
M  V30 23 C -5.200053 -3.070086 0.263092 0
M  V30 24 C -5.376714 -4.359323 -0.159810 0
M  V30 25 C -6.416389 -4.621380 -1.139325 0
M  V30 26 N -7.043136 -5.634758 -1.860668 0
M  V30 27 O -7.078192 -3.636010 -1.584254 0
M  V30 28 C -4.649504 -5.457121 0.250189 0
M  V30 29 C -3.640705 -5.234409 1.181568 0
M  V30 30 C -3.435507 -3.929447 1.631850 0
M  V30 31 C -4.191878 -2.891613 1.183688 0
M  V30 32 C -1.006741 0.713866 1.501236 0
M  V30 33 C 2.907120 0.602275 -1.895060 0
M  V30 34 C 3.982332 0.241009 -2.677319 0
M  V30 35 N 5.238787 0.644273 -2.339528 0
M  V30 36 H 6.273528 -1.349945 3.112778 0
M  V30 37 H 6.980394 -2.841226 2.372624 0
M  V30 38 H 5.413467 -2.260213 1.779223 0
M  V30 39 H 6.416959 0.614969 1.746051 0
M  V30 40 H 5.384983 -0.242327 0.530916 0
M  V30 41 H 8.229730 0.871804 0.219063 0
M  V30 42 H 7.444537 -0.124291 -1.068836 0
M  V30 43 H 7.186970 2.796209 -0.852041 0
M  V30 44 H 4.551557 2.388337 0.459233 0
M  V30 45 H 0.417650 0.618829 -0.867263 0
M  V30 46 H -1.179798 3.017516 -0.959419 0
M  V30 47 H -3.422930 3.329298 -0.037653 0
M  V30 48 H -4.101513 1.945020 1.892148 0
M  V30 49 H -1.718915 -0.063427 3.823044 0
M  V30 50 H -3.470186 0.453841 3.671327 0
M  V30 51 H -2.333452 -2.038527 2.959461 0
M  V30 52 H -6.275159 0.094109 -0.014157 0
M  V30 53 H -6.692723 -5.881309 -2.811646 0
M  V30 54 H -7.848320 -6.073923 -1.346317 0
M  V30 55 H -4.827618 -6.460339 -0.120535 0
M  V30 56 H -3.043790 -6.072633 1.532088 0
M  V30 57 H -2.641624 -3.838729 2.345869 0
M  V30 58 H -0.260770 -0.001919 1.876683 0
M  V30 59 H 1.916908 0.276609 -2.173675 0
M  V30 60 H 3.884897 -0.366456 -3.576281 0
M  V30 END ATOM
M  V30 BEGIN BOND
M  V30 1 1 1 2
M  V30 2 1 2 3
M  V30 3 1 3 4
M  V30 4 1 4 5
M  V30 5 1 5 6
M  V30 6 2 6 7
M  V30 7 1 7 8
M  V30 8 1 8 9
M  V30 9 2 9 10
M  V30 10 1 9 11
M  V30 11 1 11 12
M  V30 12 2 12 13
M  V30 13 1 13 14
M  V30 14 2 14 15
M  V30 15 1 15 16
M  V30 16 1 16 17
M  V30 17 1 17 18
M  V30 18 1 18 19
M  V30 19 2 19 20
M  V30 20 1 20 21
M  V30 21 2 21 22
M  V30 22 1 22 23
M  V30 23 2 23 24
M  V30 24 1 24 25
M  V30 25 1 25 26
M  V30 26 2 25 27
M  V30 27 1 24 28
M  V30 28 2 28 29
M  V30 29 1 29 30
M  V30 30 2 30 31
M  V30 31 2 16 32
M  V30 32 2 8 33
M  V30 33 1 33 34
M  V30 34 2 34 35
M  V30 35 1 35 6
M  V30 36 1 32 12
M  V30 37 1 31 19
M  V30 38 1 31 23
M  V30 39 1 1 36
M  V30 40 1 1 37
M  V30 41 1 1 38
M  V30 42 1 3 39
M  V30 43 1 3 40
M  V30 44 1 4 41
M  V30 45 1 4 42
M  V30 46 1 5 43
M  V30 47 1 7 44
M  V30 48 1 11 45
M  V30 49 1 13 46
M  V30 50 1 14 47
M  V30 51 1 15 48
M  V30 52 1 17 49
M  V30 53 1 17 50
M  V30 54 1 18 51
M  V30 55 1 21 52
M  V30 56 1 26 53
M  V30 57 1 26 54
M  V30 58 1 28 55
M  V30 59 1 29 56
M  V30 60 1 30 57
M  V30 61 1 32 58
M  V30 62 1 33 59
M  V30 63 1 34 60
M  V30 END BOND
M  V30 END CTAB
M  END
>  <Dataset>  (926) 
ChEMBL_Kinases

>  <Ligand_Instance>  (926) 
nan

>  <PDB_ID>  (926) 
nan

>  <Standardized_SMILES>  (926) 
COCCNc1cc(C(=O)Nc2cccc(CNc3ncnc4c(C(N)=O)cccc34)c2)ccn1

>  <Name>  (926) 
nan

>  <Pocket>  (926) 
nan

>  <ATP_Site>  (926) 
nan

>  <Peripheral>  (926) 
nan

>  <Num_H_Atoms_ProtBoundConf>  (926) 
nan

>  <Num_Resolved_Atoms>  (926) 
nan

>  <Num_Not_Resolved_Atoms>  (926) 
nan

$$$$
CHEMBL3680522
     RDKit          3D

  0  0  0  0  0  0  0  0  0  0999 V3000
M  V30 BEGIN CTAB
M  V30 COUNTS 54 57 0 0 0
M  V30 BEGIN ATOM
M  V30 1 C 8.184113 -2.293885 4.829010 0
M  V30 2 O 7.342715 -2.852590 3.835718 0
M  V30 3 C 6.388967 -2.140828 3.157548 0
M  V30 4 C 6.135481 -0.800511 3.360311 0
M  V30 5 C 5.180116 -0.077634 2.684337 0
M  V30 6 C 4.426273 -0.740748 1.740527 0
M  V30 7 C 3.371765 -0.105948 0.940521 0
M  V30 8 O 2.669731 -0.704647 0.065938 0
M  V30 9 N 3.017556 1.266717 1.060029 0
M  V30 10 C 1.950621 1.552259 0.131238 0
M  V30 11 C 2.368872 1.970347 -1.137319 0
M  V30 12 C 1.399702 2.259039 -2.073834 0
M  V30 13 C 0.056367 2.143456 -1.782215 0
M  V30 14 C -0.305612 1.723585 -0.505454 0
M  V30 15 C -1.764516 1.618279 -0.253086 0
M  V30 16 N -2.238646 0.283857 -0.590488 0
M  V30 17 C -3.624473 0.021419 -0.402300 0
M  V30 18 C -4.484819 0.982352 0.077211 0
M  V30 19 C -5.840676 0.767086 0.274784 0
M  V30 20 N -6.352047 -0.442065 -0.014714 0
M  V30 21 C -5.566743 -1.445737 -0.493264 0
M  V30 22 C -6.129822 -2.666539 -0.776427 0
M  V30 23 C -7.538585 -2.883158 -0.568609 0
M  V30 24 N -8.147567 -4.132466 -0.853131 0
M  V30 25 O -8.210332 -1.926908 -0.126362 0
M  V30 26 C -5.352032 -3.691046 -1.260346 0
M  V30 27 C -3.986649 -3.470453 -1.458045 0
M  V30 28 C -3.488631 -2.222941 -1.153435 0
M  V30 29 C -4.220061 -1.175707 -0.671369 0
M  V30 30 C 0.617443 1.424606 0.460588 0
M  V30 31 C 4.619487 -2.092362 1.476199 0
M  V30 32 C 5.596928 -2.738730 2.198824 0
M  V30 33 F 5.812444 -4.065218 1.964227 0
M  V30 34 H 7.693144 -1.467959 5.394906 0
M  V30 35 H 8.576718 -3.075940 5.519026 0
M  V30 36 H 9.055728 -1.872984 4.287361 0
M  V30 37 H 6.705722 -0.252470 4.089606 0
M  V30 38 H 4.993491 0.969724 2.853710 0
M  V30 39 H 3.530303 1.867173 1.753403 0
M  V30 40 H 3.435636 2.067421 -1.385343 0
M  V30 41 H 1.739841 2.582280 -3.053833 0
M  V30 42 H -0.672520 2.386280 -2.565910 0
M  V30 43 H -1.886888 1.681113 0.864741 0
M  V30 44 H -2.337114 2.423598 -0.741557 0
M  V30 45 H -1.545500 -0.385060 -0.942944 0
M  V30 46 H -4.097804 1.976487 0.321796 0
M  V30 47 H -6.441106 1.578799 0.654994 0
M  V30 48 H -8.775287 -4.359819 -1.646767 0
M  V30 49 H -8.779036 -4.349043 -1.657231 0
M  V30 50 H -5.768389 -4.662167 -1.491823 0
M  V30 51 H -3.390458 -4.289426 -1.839889 0
M  V30 52 H -2.437643 -2.127512 -1.329684 0
M  V30 53 H 0.340617 1.104712 1.433625 0
M  V30 54 H 4.064130 -2.661541 0.753902 0
M  V30 END ATOM
M  V30 BEGIN BOND
M  V30 1 1 1 2
M  V30 2 1 2 3
M  V30 3 2 3 4
M  V30 4 1 4 5
M  V30 5 2 5 6
M  V30 6 1 6 7
M  V30 7 2 7 8
M  V30 8 1 7 9
M  V30 9 1 9 10
M  V30 10 2 10 11
M  V30 11 1 11 12
M  V30 12 2 12 13
M  V30 13 1 13 14
M  V30 14 1 14 15
M  V30 15 1 15 16
M  V30 16 1 16 17
M  V30 17 2 17 18
M  V30 18 1 18 19
M  V30 19 2 19 20
M  V30 20 1 20 21
M  V30 21 2 21 22
M  V30 22 1 22 23
M  V30 23 1 23 24
M  V30 24 2 23 25
M  V30 25 1 22 26
M  V30 26 2 26 27
M  V30 27 1 27 28
M  V30 28 2 28 29
M  V30 29 2 14 30
M  V30 30 1 6 31
M  V30 31 2 31 32
M  V30 32 1 32 33
M  V30 33 1 32 3
M  V30 34 1 30 10
M  V30 35 1 29 17
M  V30 36 1 29 21
M  V30 37 1 1 34
M  V30 38 1 1 35
M  V30 39 1 1 36
M  V30 40 1 4 37
M  V30 41 1 5 38
M  V30 42 1 9 39
M  V30 43 1 11 40
M  V30 44 1 12 41
M  V30 45 1 13 42
M  V30 46 1 15 43
M  V30 47 1 15 44
M  V30 48 1 16 45
M  V30 49 1 18 46
M  V30 50 1 19 47
M  V30 51 1 24 48
M  V30 52 1 24 49
M  V30 53 1 26 50
M  V30 54 1 27 51
M  V30 55 1 28 52
M  V30 56 1 30 53
M  V30 57 1 31 54
M  V30 END BOND
M  V30 END CTAB
M  END
>  <Dataset>  (927) 
ChEMBL_Kinases

>  <Ligand_Instance>  (927) 
nan

>  <PDB_ID>  (927) 
nan

>  <Standardized_SMILES>  (927) 
COc1ccc(C(=O)Nc2cccc(CNc3ccnc4c(C(N)=O)cccc34)c2)cc1F

>  <Name>  (927) 
nan

>  <Pocket>  (927) 
nan

>  <ATP_Site>  (927) 
nan

>  <Peripheral>  (927) 
nan

>  <Num_H_Atoms_ProtBoundConf>  (927) 
nan

>  <Num_Resolved_Atoms>  (927) 
nan

>  <Num_Not_Resolved_Atoms>  (927) 
nan

$$$$
CHEMBL3680521
     RDKit          3D

  0  0  0  0  0  0  0  0  0  0999 V3000
M  V30 BEGIN CTAB
M  V30 COUNTS 50 53 0 0 0
M  V30 BEGIN ATOM
M  V30 1 N 0.078047 -6.689634 1.229761 0
M  V30 2 C 1.338895 -6.255423 1.727140 0
M  V30 3 O 1.998160 -7.170896 2.273831 0
M  V30 4 C 1.770147 -4.871940 1.587319 0
M  V30 5 C 2.991919 -4.461544 2.074946 0
M  V30 6 C 3.333930 -3.116381 1.901091 0
M  V30 7 C 2.447873 -2.276503 1.260435 0
M  V30 8 C 1.239400 -2.651890 0.770419 0
M  V30 9 C 0.423169 -1.731187 0.143604 0
M  V30 10 N 0.797449 -0.366560 -0.021361 0
M  V30 11 C -0.212329 0.389105 -0.699913 0 CFG=2
M  V30 12 C 0.033081 1.831876 -0.878581 0
M  V30 13 N 0.187934 2.669826 0.249596 0
M  V30 14 C 0.285246 4.076901 -0.239713 0
M  V30 15 C 0.908160 4.827815 0.889910 0
M  V30 16 C 1.757926 3.824781 1.597210 0
M  V30 17 C 1.455581 2.504481 0.933127 0
M  V30 18 C -1.583382 0.073796 -0.203002 0
M  V30 19 C -1.856439 -0.019800 1.159499 0
M  V30 20 C -3.118087 -0.309879 1.613473 0
M  V30 21 C -4.165656 -0.520295 0.744587 0
M  V30 22 C -3.931540 -0.435057 -0.628389 0
M  V30 23 C -2.665044 -0.144925 -1.040755 0
M  V30 24 N -0.739666 -2.274761 -0.281633 0
M  V30 25 C -1.074416 -3.560834 -0.119110 0
M  V30 26 N -0.262827 -4.438732 0.494825 0
M  V30 27 C 0.937085 -3.980174 0.959350 0
M  V30 28 H -0.435101 -6.821985 0.342488 0
M  V30 29 H -0.846374 -7.055738 1.605133 0
M  V30 30 H 3.585803 -5.226762 2.555229 0
M  V30 31 H 4.297922 -2.862435 2.303539 0
M  V30 32 H 2.857296 -1.284399 1.208710 0
M  V30 33 H 1.696890 -0.054974 0.323764 0
M  V30 34 H -0.217580 -0.050390 -1.751569 0
M  V30 35 H -0.718496 2.303793 -1.588080 0
M  V30 36 H 0.988067 1.920513 -1.496187 0
M  V30 37 H 1.040629 4.006104 -1.049796 0
M  V30 38 H -0.694873 4.448917 -0.574180 0
M  V30 39 H 0.149390 5.238106 1.604736 0
M  V30 40 H 1.553399 5.653748 0.492216 0
M  V30 41 H 1.548142 3.803340 2.690004 0
M  V30 42 H 2.828658 4.047274 1.425575 0
M  V30 43 H 1.336811 1.766706 1.734137 0
M  V30 44 H 2.261154 2.192288 0.254551 0
M  V30 45 H -1.039548 0.143948 1.860291 0
M  V30 46 H -3.349423 -0.386194 2.651581 0
M  V30 47 H -5.159197 -0.747580 1.058128 0
M  V30 48 H -4.701369 -0.586704 -1.388127 0
M  V30 49 H -2.436516 -0.068187 -2.111246 0
M  V30 50 H -2.018785 -3.942991 -0.479302 0
M  V30 END ATOM
M  V30 BEGIN BOND
M  V30 1 1 1 2
M  V30 2 2 2 3
M  V30 3 1 2 4
M  V30 4 2 4 5
M  V30 5 1 5 6
M  V30 6 2 6 7
M  V30 7 1 7 8
M  V30 8 2 8 9
M  V30 9 1 9 10
M  V30 10 1 10 11
M  V30 11 1 11 12
M  V30 12 1 12 13
M  V30 13 1 13 14
M  V30 14 1 14 15
M  V30 15 1 15 16
M  V30 16 1 16 17
M  V30 17 1 11 18
M  V30 18 2 18 19
M  V30 19 1 19 20
M  V30 20 2 20 21
M  V30 21 1 21 22
M  V30 22 2 22 23
M  V30 23 1 9 24
M  V30 24 2 24 25
M  V30 25 1 25 26
M  V30 26 2 26 27
M  V30 27 1 27 4
M  V30 28 1 27 8
M  V30 29 1 17 13
M  V30 30 1 23 18
M  V30 31 1 1 28
M  V30 32 1 1 29
M  V30 33 1 5 30
M  V30 34 1 6 31
M  V30 35 1 7 32
M  V30 36 1 10 33
M  V30 37 1 11 34 CFG=3
M  V30 38 1 12 35
M  V30 39 1 12 36
M  V30 40 1 14 37
M  V30 41 1 14 38
M  V30 42 1 15 39
M  V30 43 1 15 40
M  V30 44 1 16 41
M  V30 45 1 16 42
M  V30 46 1 17 43
M  V30 47 1 17 44
M  V30 48 1 19 45
M  V30 49 1 20 46
M  V30 50 1 21 47
M  V30 51 1 22 48
M  V30 52 1 23 49
M  V30 53 1 25 50
M  V30 END BOND
M  V30 END CTAB
M  END
>  <Dataset>  (928) 
ChEMBL_Kinases

>  <Ligand_Instance>  (928) 
nan

>  <PDB_ID>  (928) 
nan

>  <Standardized_SMILES>  (928) 
NC(=O)c1cccc2c(N[C@H](CN3CCCC3)c3ccccc3)ncnc12

>  <Name>  (928) 
nan

>  <Pocket>  (928) 
nan

>  <ATP_Site>  (928) 
nan

>  <Peripheral>  (928) 
nan

>  <Num_H_Atoms_ProtBoundConf>  (928) 
nan

>  <Num_Resolved_Atoms>  (928) 
nan

>  <Num_Not_Resolved_Atoms>  (928) 
nan

$$$$
CHEMBL3680403
     RDKit          3D

  0  0  0  0  0  0  0  0  0  0999 V3000
M  V30 BEGIN CTAB
M  V30 COUNTS 49 52 0 0 0
M  V30 BEGIN ATOM
M  V30 1 N 2.644420 -5.377124 1.530448 0
M  V30 2 C 3.993414 -4.957287 1.824532 0
M  V30 3 O 3.954822 -6.140135 2.130088 0
M  V30 4 C 4.197873 -3.554445 1.510089 0
M  V30 5 C 5.512169 -3.178099 1.806287 0
M  V30 6 C 5.903571 -1.871472 1.576917 0
M  V30 7 C 4.921640 -1.050999 1.063155 0
M  V30 8 C 3.648274 -1.432543 0.781013 0
M  V30 9 C 2.685999 -0.564058 0.259539 0
M  V30 10 N 2.989146 0.772593 -0.003584 0
M  V30 11 C 2.125724 1.806774 -0.539028 0
M  V30 12 C 0.961517 2.068082 0.336875 0
M  V30 13 C 1.162372 2.965951 1.373233 0
M  V30 14 C 0.114542 3.257990 2.206660 0
M  V30 15 C -1.110273 2.673461 2.018552 0
M  V30 16 C -1.365255 1.767927 0.997243 0
M  V30 17 N -2.655276 1.221567 0.880437 0
M  V30 18 C -3.177913 0.269443 -0.025926 0
M  V30 19 O -2.381546 -0.189462 -0.884101 0
M  V30 20 C -4.540445 -0.198565 -0.026283 0
M  V30 21 C -5.584368 0.224913 0.818572 0
M  V30 22 C -6.836822 -0.290439 0.728066 0
M  V30 23 C -7.187888 -1.246558 -0.173523 0
M  V30 24 Cl -8.806778 -1.895187 -0.271796 0
M  V30 25 C -6.196062 -1.714388 -1.046261 0
M  V30 26 Cl -6.536780 -2.942078 -2.244406 0
M  V30 27 C -4.946138 -1.159041 -0.912155 0
M  V30 28 C -0.293266 1.519287 0.208111 0
M  V30 29 N 1.467899 -1.070869 0.025299 0
M  V30 30 C 1.113673 -2.342650 0.255733 0
M  V30 31 N 2.024217 -3.201490 0.759633 0
M  V30 32 C 3.237986 -2.720946 0.999287 0
M  V30 33 H 1.586694 -5.389064 1.558572 0
M  V30 34 H 1.648053 -5.692661 1.308793 0
M  V30 35 H 6.227774 -3.884802 2.209603 0
M  V30 36 H 6.893601 -1.524977 1.782771 0
M  V30 37 H 5.249075 -0.043839 0.893482 0
M  V30 38 H 3.931930 1.165644 0.178992 0
M  V30 39 H 2.627228 2.763868 -0.686314 0
M  V30 40 H 1.759560 1.491666 -1.552124 0
M  V30 41 H 2.128586 3.428690 1.523082 0
M  V30 42 H 0.225499 3.948184 3.022427 0
M  V30 43 H -1.922169 2.940248 2.712885 0
M  V30 44 H -3.388256 1.544001 1.557356 0
M  V30 45 H -5.323877 0.993367 1.550364 0
M  V30 46 H -7.617158 0.065017 1.403523 0
M  V30 47 H -4.197939 -1.544136 -1.605706 0
M  V30 48 H -0.383955 0.848218 -0.611978 0
M  V30 49 H 0.107805 -2.667027 0.037166 0
M  V30 END ATOM
M  V30 BEGIN BOND
M  V30 1 1 1 2
M  V30 2 2 2 3
M  V30 3 1 2 4
M  V30 4 2 4 5
M  V30 5 1 5 6
M  V30 6 2 6 7
M  V30 7 1 7 8
M  V30 8 2 8 9
M  V30 9 1 9 10
M  V30 10 1 10 11
M  V30 11 1 11 12
M  V30 12 2 12 13
M  V30 13 1 13 14
M  V30 14 2 14 15
M  V30 15 1 15 16
M  V30 16 1 16 17
M  V30 17 1 17 18
M  V30 18 2 18 19
M  V30 19 1 18 20
M  V30 20 2 20 21
M  V30 21 1 21 22
M  V30 22 2 22 23
M  V30 23 1 23 24
M  V30 24 1 23 25
M  V30 25 1 25 26
M  V30 26 2 25 27
M  V30 27 2 16 28
M  V30 28 1 9 29
M  V30 29 2 29 30
M  V30 30 1 30 31
M  V30 31 2 31 32
M  V30 32 1 32 4
M  V30 33 1 32 8
M  V30 34 1 28 12
M  V30 35 1 27 20
M  V30 36 1 1 33
M  V30 37 1 1 34
M  V30 38 1 5 35
M  V30 39 1 6 36
M  V30 40 1 7 37
M  V30 41 1 10 38
M  V30 42 1 11 39
M  V30 43 1 11 40
M  V30 44 1 13 41
M  V30 45 1 14 42
M  V30 46 1 15 43
M  V30 47 1 17 44
M  V30 48 1 21 45
M  V30 49 1 22 46
M  V30 50 1 27 47
M  V30 51 1 28 48
M  V30 52 1 30 49
M  V30 END BOND
M  V30 END CTAB
M  END
>  <Dataset>  (929) 
ChEMBL_Kinases

>  <Ligand_Instance>  (929) 
nan

>  <PDB_ID>  (929) 
nan

>  <Standardized_SMILES>  (929) 
NC(=O)c1cccc2c(NCc3cccc(NC(=O)c4ccc(Cl)c(Cl)c4)c3)ncnc12

>  <Name>  (929) 
nan

>  <Pocket>  (929) 
nan

>  <ATP_Site>  (929) 
nan

>  <Peripheral>  (929) 
nan

>  <Num_H_Atoms_ProtBoundConf>  (929) 
nan

>  <Num_Resolved_Atoms>  (929) 
nan

>  <Num_Not_Resolved_Atoms>  (929) 
nan

$$$$
CHEMBL3680518
     RDKit          3D

  0  0  0  0  0  0  0  0  0  0999 V3000
M  V30 BEGIN CTAB
M  V30 COUNTS 64 68 0 0 0
M  V30 BEGIN ATOM
M  V30 1 N 5.795874 4.054844 5.583841 0
M  V30 2 C 6.356971 2.965115 4.862653 0
M  V30 3 O 7.347178 2.452214 5.442267 0
M  V30 4 C 5.909028 2.425407 3.586717 0
M  V30 5 C 6.626515 1.357979 3.102148 0
M  V30 6 C 6.202512 0.833885 1.876620 0
M  V30 7 C 5.120902 1.387243 1.224818 0
M  V30 8 C 4.413880 2.440034 1.703278 0
M  V30 9 C 3.336808 2.971641 1.028966 0
M  V30 10 N 2.894270 2.456807 -0.213625 0
M  V30 11 C 1.774356 2.942165 -0.999518 0
M  V30 12 C 0.470348 2.849782 -0.302299 0
M  V30 13 C -0.180710 3.812943 0.436484 0
M  V30 14 C -1.394297 3.596567 1.051886 0
M  V30 15 C -2.032742 2.377011 0.956472 0
M  V30 16 C -1.422979 1.378137 0.227247 0
M  V30 17 N -2.079400 0.119616 0.127457 0
M  V30 18 C -3.019923 -0.375673 -0.816471 0
M  V30 19 O -3.329888 0.438472 -1.726817 0
M  V30 20 C -3.531605 -1.734270 -0.662299 0
M  V30 21 C -3.207466 -2.656910 0.323358 0
M  V30 22 C -3.796079 -3.904637 0.312041 0
M  V30 23 C -4.710052 -4.313034 -0.635809 0
M  V30 24 C -5.271717 -5.668371 -0.540010 0
M  V30 25 N -4.545728 -6.688358 -1.223838 0
M  V30 26 C -4.407728 -6.519948 -2.634644 0
M  V30 27 C -2.968215 -6.213695 -2.922144 0
M  V30 28 C -2.235508 -6.393226 -1.636132 0
M  V30 29 C -3.232828 -6.970340 -0.691801 0
M  V30 30 C -5.012300 -3.364829 -1.608235 0
M  V30 31 C -4.441698 -2.108922 -1.625628 0
M  V30 32 C -0.208108 1.626249 -0.376557 0
M  V30 33 N 2.714808 3.998156 1.581409 0
M  V30 34 C 3.134287 4.487372 2.755703 0
M  V30 35 N 4.184946 4.007047 3.463660 0
M  V30 36 C 4.836562 2.951295 2.910436 0
M  V30 37 H 4.984749 3.562176 6.024421 0
M  V30 38 H 5.989357 5.060668 5.737288 0
M  V30 39 H 7.473883 0.921376 3.608893 0
M  V30 40 H 6.771507 -0.009641 1.496879 0
M  V30 41 H 4.898882 0.903860 0.310410 0
M  V30 42 H 3.399978 1.649137 -0.636497 0
M  V30 43 H 1.688000 2.319960 -1.912324 0
M  V30 44 H 1.962130 3.973793 -1.379793 0
M  V30 45 H 0.312180 4.769186 0.503635 0
M  V30 46 H -1.809047 4.447690 1.612771 0
M  V30 47 H -2.974509 2.274401 1.459138 0
M  V30 48 H -1.712728 -0.419438 0.943205 0
M  V30 49 H -2.488455 -2.300783 1.047191 0
M  V30 50 H -3.437458 -4.501470 1.146657 0
M  V30 51 H -6.279559 -5.612532 -1.047647 0
M  V30 52 H -5.459417 -5.873080 0.515995 0
M  V30 53 H -5.108933 -5.833459 -3.108180 0
M  V30 54 H -4.626322 -7.532736 -3.087580 0
M  V30 55 H -2.826052 -5.202527 -3.369311 0
M  V30 56 H -2.548978 -6.913478 -3.674679 0
M  V30 57 H -1.852732 -5.387167 -1.335259 0
M  V30 58 H -1.358255 -7.081020 -1.769750 0
M  V30 59 H -3.125143 -8.093106 -0.760323 0
M  V30 60 H -3.100727 -6.735180 0.362299 0
M  V30 61 H -5.723680 -3.651215 -2.361363 0
M  V30 62 H -4.756626 -1.458552 -2.433610 0
M  V30 63 H 0.197175 0.781574 -0.929577 0
M  V30 64 H 2.630974 5.338419 3.229193 0
M  V30 END ATOM
M  V30 BEGIN BOND
M  V30 1 1 1 2
M  V30 2 2 2 3
M  V30 3 1 2 4
M  V30 4 2 4 5
M  V30 5 1 5 6
M  V30 6 2 6 7
M  V30 7 1 7 8
M  V30 8 2 8 9
M  V30 9 1 9 10
M  V30 10 1 10 11
M  V30 11 1 11 12
M  V30 12 2 12 13
M  V30 13 1 13 14
M  V30 14 2 14 15
M  V30 15 1 15 16
M  V30 16 1 16 17
M  V30 17 1 17 18
M  V30 18 2 18 19
M  V30 19 1 18 20
M  V30 20 2 20 21
M  V30 21 1 21 22
M  V30 22 2 22 23
M  V30 23 1 23 24
M  V30 24 1 24 25
M  V30 25 1 25 26
M  V30 26 1 26 27
M  V30 27 1 27 28
M  V30 28 1 28 29
M  V30 29 1 23 30
M  V30 30 2 30 31
M  V30 31 2 16 32
M  V30 32 1 9 33
M  V30 33 2 33 34
M  V30 34 1 34 35
M  V30 35 2 35 36
M  V30 36 1 36 4
M  V30 37 1 36 8
M  V30 38 1 32 12
M  V30 39 1 31 20
M  V30 40 1 29 25
M  V30 41 1 1 37
M  V30 42 1 1 38
M  V30 43 1 5 39
M  V30 44 1 6 40
M  V30 45 1 7 41
M  V30 46 1 10 42
M  V30 47 1 11 43
M  V30 48 1 11 44
M  V30 49 1 13 45
M  V30 50 1 14 46
M  V30 51 1 15 47
M  V30 52 1 17 48
M  V30 53 1 21 49
M  V30 54 1 22 50
M  V30 55 1 24 51
M  V30 56 1 24 52
M  V30 57 1 26 53
M  V30 58 1 26 54
M  V30 59 1 27 55
M  V30 60 1 27 56
M  V30 61 1 28 57
M  V30 62 1 28 58
M  V30 63 1 29 59
M  V30 64 1 29 60
M  V30 65 1 30 61
M  V30 66 1 31 62
M  V30 67 1 32 63
M  V30 68 1 34 64
M  V30 END BOND
M  V30 END CTAB
M  END
>  <Dataset>  (930) 
ChEMBL_Kinases

>  <Ligand_Instance>  (930) 
nan

>  <PDB_ID>  (930) 
nan

>  <Standardized_SMILES>  (930) 
NC(=O)c1cccc2c(NCc3cccc(NC(=O)c4ccc(CN5CCCC5)cc4)c3)ncnc12

>  <Name>  (930) 
nan

>  <Pocket>  (930) 
nan

>  <ATP_Site>  (930) 
nan

>  <Peripheral>  (930) 
nan

>  <Num_H_Atoms_ProtBoundConf>  (930) 
nan

>  <Num_Resolved_Atoms>  (930) 
nan

>  <Num_Not_Resolved_Atoms>  (930) 
nan

$$$$
CHEMBL3680410
     RDKit          3D

  0  0  0  0  0  0  0  0  0  0999 V3000
M  V30 BEGIN CTAB
M  V30 COUNTS 60 63 0 0 0
M  V30 BEGIN ATOM
M  V30 1 N 4.859989 -2.602380 3.710375 0
M  V30 2 C 5.469603 -1.525487 4.415287 0
M  V30 3 O 6.252756 -1.782117 5.365551 0
M  V30 4 C 5.184835 -0.147608 4.034491 0
M  V30 5 C 5.774699 0.896184 4.716729 0
M  V30 6 C 5.482583 2.200713 4.328152 0
M  V30 7 C 4.611977 2.370323 3.273671 0
M  V30 8 C 3.997166 1.371721 2.560317 0
M  V30 9 C 3.138154 1.627199 1.517434 0
M  V30 10 N 2.835573 2.938285 1.108784 0
M  V30 11 C 1.944826 3.300177 0.027989 0
M  V30 12 C 0.546304 2.862159 0.266686 0
M  V30 13 C -0.120054 3.836780 0.992803 0
M  V30 14 C -1.464277 3.694720 1.358999 0
M  V30 15 C -2.150037 2.542663 0.983320 0
M  V30 16 C -1.465299 1.594629 0.264771 0
M  V30 17 N -2.097939 0.390339 -0.154136 0
M  V30 18 C -2.771516 0.253710 -1.390436 0
M  V30 19 O -2.778799 1.276436 -2.110645 0
M  V30 20 C -3.438287 -0.944404 -1.880711 0
M  V30 21 C -4.032476 -0.864377 -3.122065 0
M  V30 22 C -4.691304 -1.937534 -3.683720 0
M  V30 23 C -4.747754 -3.111764 -2.972929 0
M  V30 24 C -4.183627 -3.280347 -1.730283 0
M  V30 25 O -4.081333 -4.292734 -0.821241 0
M  V30 26 C -4.571539 -5.571163 -0.936193 0
M  V30 27 C -4.052356 -6.420997 -2.042641 0
M  V30 28 C -2.555120 -6.630649 -1.969406 0
M  V30 29 O -1.928832 -5.408308 -2.041575 0
M  V30 30 C -3.522445 -2.160285 -1.196285 0
M  V30 31 C -0.140546 1.747167 -0.089906 0
M  V30 32 N 2.639408 0.537906 0.946335 0
M  V30 33 C 2.930302 -0.704715 1.331707 0
M  V30 34 N 3.776108 -0.962093 2.358757 0
M  V30 35 C 4.324287 0.108110 2.989922 0
M  V30 36 H 3.921218 -2.943439 4.024552 0
M  V30 37 H 5.112421 -3.197677 2.895891 0
M  V30 38 H 6.439176 0.625561 5.525643 0
M  V30 39 H 5.949347 2.986523 4.869635 0
M  V30 40 H 4.444059 3.410414 3.042248 0
M  V30 41 H 3.225515 3.787768 1.549238 0
M  V30 42 H 2.014464 4.341718 -0.300055 0
M  V30 43 H 2.330781 2.705931 -0.859582 0
M  V30 44 H 0.255252 4.794412 1.368933 0
M  V30 45 H -2.046088 4.400479 1.917212 0
M  V30 46 H -3.182820 2.317856 1.205098 0
M  V30 47 H -2.064763 -0.435788 0.481027 0
M  V30 48 H -4.019651 0.033161 -3.725728 0
M  V30 49 H -5.179866 -1.955270 -4.646514 0
M  V30 50 H -5.238567 -4.014084 -3.298064 0
M  V30 51 H -4.435465 -6.171023 0.016441 0
M  V30 52 H -5.697835 -5.549412 -1.075619 0
M  V30 53 H -4.487455 -7.455117 -1.859284 0
M  V30 54 H -4.360601 -6.152898 -3.060828 0
M  V30 55 H -2.264138 -7.138527 -1.036795 0
M  V30 56 H -2.239277 -7.242613 -2.838497 0
M  V30 57 H -1.401928 -5.183539 -1.230949 0
M  V30 58 H -3.007973 -2.069933 -0.232732 0
M  V30 59 H 0.459910 1.051383 -0.657955 0
M  V30 60 H 2.455929 -1.493111 0.781645 0
M  V30 END ATOM
M  V30 BEGIN BOND
M  V30 1 1 1 2
M  V30 2 2 2 3
M  V30 3 1 2 4
M  V30 4 2 4 5
M  V30 5 1 5 6
M  V30 6 2 6 7
M  V30 7 1 7 8
M  V30 8 2 8 9
M  V30 9 1 9 10
M  V30 10 1 10 11
M  V30 11 1 11 12
M  V30 12 2 12 13
M  V30 13 1 13 14
M  V30 14 2 14 15
M  V30 15 1 15 16
M  V30 16 1 16 17
M  V30 17 1 17 18
M  V30 18 2 18 19
M  V30 19 1 18 20
M  V30 20 2 20 21
M  V30 21 1 21 22
M  V30 22 2 22 23
M  V30 23 1 23 24
M  V30 24 1 24 25
M  V30 25 1 25 26
M  V30 26 1 26 27
M  V30 27 1 27 28
M  V30 28 1 28 29
M  V30 29 2 24 30
M  V30 30 2 16 31
M  V30 31 1 9 32
M  V30 32 2 32 33
M  V30 33 1 33 34
M  V30 34 2 34 35
M  V30 35 1 35 4
M  V30 36 1 35 8
M  V30 37 1 31 12
M  V30 38 1 30 20
M  V30 39 1 1 36
M  V30 40 1 1 37
M  V30 41 1 5 38
M  V30 42 1 6 39
M  V30 43 1 7 40
M  V30 44 1 10 41
M  V30 45 1 11 42
M  V30 46 1 11 43
M  V30 47 1 13 44
M  V30 48 1 14 45
M  V30 49 1 15 46
M  V30 50 1 17 47
M  V30 51 1 21 48
M  V30 52 1 22 49
M  V30 53 1 23 50
M  V30 54 1 26 51
M  V30 55 1 26 52
M  V30 56 1 27 53
M  V30 57 1 27 54
M  V30 58 1 28 55
M  V30 59 1 28 56
M  V30 60 1 29 57
M  V30 61 1 30 58
M  V30 62 1 31 59
M  V30 63 1 33 60
M  V30 END BOND
M  V30 END CTAB
M  END
>  <Dataset>  (931) 
ChEMBL_Kinases

>  <Ligand_Instance>  (931) 
nan

>  <PDB_ID>  (931) 
nan

>  <Standardized_SMILES>  (931) 
NC(=O)c1cccc2c(NCc3cccc(NC(=O)c4cccc(OCCCO)c4)c3)ncnc12

>  <Name>  (931) 
nan

>  <Pocket>  (931) 
nan

>  <ATP_Site>  (931) 
nan

>  <Peripheral>  (931) 
nan

>  <Num_H_Atoms_ProtBoundConf>  (931) 
nan

>  <Num_Resolved_Atoms>  (931) 
nan

>  <Num_Not_Resolved_Atoms>  (931) 
nan

$$$$
CHEMBL3680440
     RDKit          3D

  0  0  0  0  0  0  0  0  0  0999 V3000
M  V30 BEGIN CTAB
M  V30 COUNTS 68 72 0 0 0
M  V30 BEGIN ATOM
M  V30 1 C 3.716787 -3.409019 4.984050 0
M  V30 2 N 3.595365 -2.545500 3.870113 0
M  V30 3 C 3.648103 -3.089156 2.580299 0
M  V30 4 C 4.152189 -2.205066 1.490057 0
M  V30 5 N 3.993983 -0.812095 1.711683 0
M  V30 6 C 3.331632 0.132715 0.884472 0
M  V30 7 C 2.624120 -0.241282 -0.239209 0
M  V30 8 C 1.986396 0.742527 -1.011998 0
M  V30 9 C 2.047056 2.106964 -0.675882 0
M  V30 10 N 1.299253 2.891036 -1.630345 0
M  V30 11 C -0.094204 3.136607 -1.383102 0
M  V30 12 O -0.531183 2.626397 -0.301707 0
M  V30 13 N -1.072718 3.855674 -2.153270 0
M  V30 14 C -2.317143 3.758242 -1.405342 0
M  V30 15 C -2.847516 4.647286 -0.498277 0
M  V30 16 C -4.024748 4.293138 0.119227 0
M  V30 17 C -4.627136 3.090016 -0.176754 0
M  V30 18 C -4.107542 2.198568 -1.078045 0
M  V30 19 C -4.766942 0.861642 -1.341813 0
M  V30 20 N -4.236638 -0.220208 -0.629685 0
M  V30 21 C -3.724065 -1.255460 0.171488 0
M  V30 22 N -3.580250 -1.451265 1.486695 0
M  V30 23 C -3.042708 -2.563247 1.990563 0
M  V30 24 N -2.624468 -3.530810 1.184318 0
M  V30 25 C -2.721520 -3.438026 -0.143264 0
M  V30 26 C -2.245270 -4.516395 -0.848253 0
M  V30 27 C -1.674618 -5.697018 -0.222108 0
M  V30 28 N -1.180202 -6.753521 -1.018299 0
M  V30 29 O -1.563822 -5.899684 1.010083 0
M  V30 30 C -2.331949 -4.443432 -2.220958 0
M  V30 31 C -2.872073 -3.338497 -2.835827 0
M  V30 32 C -3.324406 -2.304271 -2.053126 0
M  V30 33 C -3.277768 -2.286745 -0.656399 0
M  V30 34 C -2.934681 2.543308 -1.700442 0
M  V30 35 C 2.761726 2.439712 0.450592 0
M  V30 36 C 3.383389 1.472847 1.203675 0
M  V30 37 C 4.642775 -0.600144 2.963353 0
M  V30 38 C 3.768384 -1.162711 4.060888 0
M  V30 39 H 2.673457 -3.674025 5.316138 0
M  V30 40 H 4.183264 -2.933216 5.868550 0
M  V30 41 H 4.239148 -4.370406 4.766909 0
M  V30 42 H 4.312298 -3.980199 2.601109 0
M  V30 43 H 2.641357 -3.507910 2.321387 0
M  V30 44 H 5.243288 -2.399710 1.272501 0
M  V30 45 H 3.626002 -2.503732 0.569179 0
M  V30 46 H 2.544207 -1.259479 -0.548004 0
M  V30 47 H 1.443313 0.349483 -1.890204 0
M  V30 48 H 1.598606 3.352385 -2.536134 0
M  V30 49 H -0.657389 4.250725 -3.019931 0
M  V30 50 H -2.254035 5.542838 -0.384389 0
M  V30 51 H -4.408349 5.015193 0.826363 0
M  V30 52 H -5.552921 2.825467 0.316585 0
M  V30 53 H -5.852647 1.051998 -1.308046 0
M  V30 54 H -4.555743 0.735734 -2.465083 0
M  V30 55 H -4.504114 0.377533 0.222674 0
M  V30 56 H -2.997233 -2.571723 3.068011 0
M  V30 57 H -0.345840 -7.344427 -0.854056 0
M  V30 58 H -0.326345 -7.353432 -0.844086 0
M  V30 59 H -1.984184 -5.241980 -2.860068 0
M  V30 60 H -2.948385 -3.261052 -3.909669 0
M  V30 61 H -3.739468 -1.458277 -2.538610 0
M  V30 62 H -2.561742 1.791082 -2.412221 0
M  V30 63 H 2.740887 3.504917 0.604794 0
M  V30 64 H 3.888831 1.918400 2.044180 0
M  V30 65 H 4.709522 0.490691 3.155331 0
M  V30 66 H 5.668694 -0.991586 3.057600 0
M  V30 67 H 2.825298 -0.577837 4.139346 0
M  V30 68 H 4.305412 -0.991449 5.017159 0
M  V30 END ATOM
M  V30 BEGIN BOND
M  V30 1 1 1 2
M  V30 2 1 2 3
M  V30 3 1 3 4
M  V30 4 1 4 5
M  V30 5 1 5 6
M  V30 6 2 6 7
M  V30 7 1 7 8
M  V30 8 2 8 9
M  V30 9 1 9 10
M  V30 10 1 10 11
M  V30 11 2 11 12
M  V30 12 1 11 13
M  V30 13 1 13 14
M  V30 14 2 14 15
M  V30 15 1 15 16
M  V30 16 2 16 17
M  V30 17 1 17 18
M  V30 18 1 18 19
M  V30 19 1 19 20
M  V30 20 1 20 21
M  V30 21 2 21 22
M  V30 22 1 22 23
M  V30 23 2 23 24
M  V30 24 1 24 25
M  V30 25 2 25 26
M  V30 26 1 26 27
M  V30 27 1 27 28
M  V30 28 2 27 29
M  V30 29 1 26 30
M  V30 30 2 30 31
M  V30 31 1 31 32
M  V30 32 2 32 33
M  V30 33 2 18 34
M  V30 34 1 9 35
M  V30 35 2 35 36
M  V30 36 1 5 37
M  V30 37 1 37 38
M  V30 38 1 38 2
M  V30 39 1 36 6
M  V30 40 1 34 14
M  V30 41 1 33 21
M  V30 42 1 33 25
M  V30 43 1 1 39
M  V30 44 1 1 40
M  V30 45 1 1 41
M  V30 46 1 3 42
M  V30 47 1 3 43
M  V30 48 1 4 44
M  V30 49 1 4 45
M  V30 50 1 7 46
M  V30 51 1 8 47
M  V30 52 1 10 48
M  V30 53 1 13 49
M  V30 54 1 15 50
M  V30 55 1 16 51
M  V30 56 1 17 52
M  V30 57 1 19 53
M  V30 58 1 19 54
M  V30 59 1 20 55
M  V30 60 1 23 56
M  V30 61 1 28 57
M  V30 62 1 28 58
M  V30 63 1 30 59
M  V30 64 1 31 60
M  V30 65 1 32 61
M  V30 66 1 34 62
M  V30 67 1 35 63
M  V30 68 1 36 64
M  V30 69 1 37 65
M  V30 70 1 37 66
M  V30 71 1 38 67
M  V30 72 1 38 68
M  V30 END BOND
M  V30 END CTAB
M  END
>  <Dataset>  (932) 
ChEMBL_Kinases

>  <Ligand_Instance>  (932) 
nan

>  <PDB_ID>  (932) 
nan

>  <Standardized_SMILES>  (932) 
CN1CCN(c2ccc(NC(=O)Nc3cccc(CNc4ncnc5c(C(N)=O)cccc45)c3)cc2)CC1

>  <Name>  (932) 
nan

>  <Pocket>  (932) 
nan

>  <ATP_Site>  (932) 
nan

>  <Peripheral>  (932) 
nan

>  <Num_H_Atoms_ProtBoundConf>  (932) 
nan

>  <Num_Resolved_Atoms>  (932) 
nan

>  <Num_Not_Resolved_Atoms>  (932) 
nan

$$$$
CHEMBL3680417
     RDKit          3D

  0  0  0  0  0  0  0  0  0  0999 V3000
M  V30 BEGIN CTAB
M  V30 COUNTS 54 58 0 0 0
M  V30 BEGIN ATOM
M  V30 1 N -8.597518 -3.632756 -0.977381 0
M  V30 2 C -7.487965 -3.336836 -0.265976 0
M  V30 3 O -7.269838 -2.766474 -1.387891 0
M  V30 4 C -6.334090 -3.027765 0.470599 0
M  V30 5 C -6.509804 -3.593980 1.736525 0
M  V30 6 C -5.459782 -3.475120 2.677979 0
M  V30 7 C -4.371417 -2.800176 2.221154 0
M  V30 8 C -4.121030 -2.209666 0.986636 0
M  V30 9 C -2.979663 -1.512619 0.519179 0
M  V30 10 N -2.095303 -1.588340 1.669418 0
M  V30 11 C -0.780036 -1.212643 2.140646 0
M  V30 12 C 0.369049 -1.482711 1.248744 0
M  V30 13 C 1.023944 -2.711617 1.099357 0
M  V30 14 C 2.093181 -2.806422 0.239604 0
M  V30 15 C 2.494646 -1.684435 -0.454117 0
M  V30 16 C 1.910924 -0.446347 -0.365817 0
M  V30 17 N 2.308265 0.709024 -1.088698 0
M  V30 18 C 3.136976 0.910359 -2.226295 0
M  V30 19 O 3.551836 -0.232496 -2.608330 0
M  V30 20 C 3.323031 2.286692 -2.679901 0
M  V30 21 C 2.292140 3.198171 -2.403938 0
M  V30 22 C 2.496301 4.511775 -2.764363 0
M  V30 23 C 3.653443 4.925922 -3.366316 0
M  V30 24 C 4.694282 4.016680 -3.649736 0
M  V30 25 C 4.512794 2.695063 -3.299023 0
M  V30 26 C 5.822646 4.790160 -4.310458 0
M  V30 27 C 5.571813 6.138892 -3.599794 0
M  V30 28 O 4.136901 6.181448 -3.833123 0
M  V30 29 C 0.848662 -0.435807 0.512141 0
M  V30 30 N -3.070799 -1.060875 -0.763719 0
M  V30 31 C -4.104406 -1.221664 -1.570891 0
M  V30 32 N -5.156804 -1.885351 -1.091400 0
M  V30 33 C -5.184376 -2.375007 0.149288 0
M  V30 34 H -9.227326 -3.870054 -1.728012 0
M  V30 35 H -9.556023 -3.683585 -0.594180 0
M  V30 36 H -7.349247 -4.149175 2.169531 0
M  V30 37 H -5.452061 -3.860873 3.689685 0
M  V30 38 H -3.551747 -2.695992 2.928827 0
M  V30 39 H -1.589871 -1.060723 0.954738 0
M  V30 40 H -0.766205 -0.225367 2.584193 0
M  V30 41 H -0.557083 -1.898809 3.039053 0
M  V30 42 H 0.611859 -3.510856 1.698471 0
M  V30 43 H 2.580861 -3.766670 0.144489 0
M  V30 44 H 3.331395 -1.873754 -1.085353 0
M  V30 45 H 1.892092 1.593186 -0.655097 0
M  V30 46 H 1.346447 2.996010 -1.949057 0
M  V30 47 H 1.723160 5.276330 -2.575424 0
M  V30 48 H 5.276492 1.964797 -3.493941 0
M  V30 49 H 5.681018 4.873470 -5.394361 0
M  V30 50 H 6.796203 4.428026 -3.966281 0
M  V30 51 H 5.686444 5.963592 -2.504666 0
M  V30 52 H 6.104454 6.971919 -4.014946 0
M  V30 53 H 0.321627 0.527985 0.630488 0
M  V30 54 H -3.849003 -0.745777 -2.501844 0
M  V30 END ATOM
M  V30 BEGIN BOND
M  V30 1 1 1 2
M  V30 2 2 2 3
M  V30 3 1 2 4
M  V30 4 2 4 5
M  V30 5 1 5 6
M  V30 6 2 6 7
M  V30 7 1 7 8
M  V30 8 2 8 9
M  V30 9 1 9 10
M  V30 10 1 10 11
M  V30 11 1 11 12
M  V30 12 2 12 13
M  V30 13 1 13 14
M  V30 14 2 14 15
M  V30 15 1 15 16
M  V30 16 1 16 17
M  V30 17 1 17 18
M  V30 18 2 18 19
M  V30 19 1 18 20
M  V30 20 2 20 21
M  V30 21 1 21 22
M  V30 22 2 22 23
M  V30 23 1 23 24
M  V30 24 2 24 25
M  V30 25 1 24 26
M  V30 26 1 26 27
M  V30 27 1 27 28
M  V30 28 2 16 29
M  V30 29 1 9 30
M  V30 30 2 30 31
M  V30 31 1 31 32
M  V30 32 2 32 33
M  V30 33 1 33 4
M  V30 34 1 33 8
M  V30 35 1 29 12
M  V30 36 1 25 20
M  V30 37 1 28 23
M  V30 38 1 1 34
M  V30 39 1 1 35
M  V30 40 1 5 36
M  V30 41 1 6 37
M  V30 42 1 7 38
M  V30 43 1 10 39
M  V30 44 1 11 40
M  V30 45 1 11 41
M  V30 46 1 13 42
M  V30 47 1 14 43
M  V30 48 1 15 44
M  V30 49 1 17 45
M  V30 50 1 21 46
M  V30 51 1 22 47
M  V30 52 1 25 48
M  V30 53 1 26 49
M  V30 54 1 26 50
M  V30 55 1 27 51
M  V30 56 1 27 52
M  V30 57 1 29 53
M  V30 58 1 31 54
M  V30 END BOND
M  V30 END CTAB
M  END
>  <Dataset>  (933) 
ChEMBL_Kinases

>  <Ligand_Instance>  (933) 
nan

>  <PDB_ID>  (933) 
nan

>  <Standardized_SMILES>  (933) 
NC(=O)c1cccc2c(NCc3cccc(NC(=O)c4ccc5c(c4)CCO5)c3)ncnc12

>  <Name>  (933) 
nan

>  <Pocket>  (933) 
nan

>  <ATP_Site>  (933) 
nan

>  <Peripheral>  (933) 
nan

>  <Num_H_Atoms_ProtBoundConf>  (933) 
nan

>  <Num_Resolved_Atoms>  (933) 
nan

>  <Num_Not_Resolved_Atoms>  (933) 
nan

$$$$
CHEMBL3680418
     RDKit          3D

  0  0  0  0  0  0  0  0  0  0999 V3000
M  V30 BEGIN CTAB
M  V30 COUNTS 65 68 0 0 0
M  V30 BEGIN ATOM
M  V30 1 C 3.199312 0.379094 3.846905 0
M  V30 2 N 2.037979 -0.512656 3.862601 0
M  V30 3 C 2.258562 -1.574764 4.852911 0
M  V30 4 C 1.888175 -1.178936 2.587011 0
M  V30 5 C 1.495881 -0.204313 1.489447 0
M  V30 6 C 1.365944 -0.975362 0.223704 0
M  V30 7 N 0.985862 -0.084293 -0.871443 0
M  V30 8 C 1.818208 0.977308 -1.308731 0
M  V30 9 N 3.006992 1.196168 -0.727021 0
M  V30 10 C 3.826845 2.188771 -1.116557 0
M  V30 11 N 3.530318 3.043257 -2.115358 0
M  V30 12 C 2.334652 2.872000 -2.746098 0
M  V30 13 C 1.935939 3.695006 -3.781151 0
M  V30 14 C 2.831696 4.765014 -4.196041 0
M  V30 15 N 4.090044 4.973522 -3.566415 0
M  V30 16 O 2.514256 5.557351 -5.146000 0
M  V30 17 C 0.733259 3.546161 -4.435684 0
M  V30 18 C -0.097052 2.518009 -4.019630 0
M  V30 19 C 0.310202 1.701831 -2.985461 0
M  V30 20 C 1.512871 1.848540 -2.329015 0
M  V30 21 C 0.546929 -2.179604 0.316261 0
M  V30 22 C 1.016372 -3.413267 0.066337 0
M  V30 23 C 0.327029 -4.717777 0.114497 0
M  V30 24 C -1.106365 -4.688579 0.506241 0
M  V30 25 C -1.602203 -3.319930 0.775942 0
M  V30 26 N -2.970990 -3.283072 1.140826 0
M  V30 27 C -3.864272 -2.271333 1.470366 0
M  V30 28 O -3.353801 -1.097740 1.443796 0
M  V30 29 C -5.264628 -2.318892 1.835604 0
M  V30 30 C -6.059636 -3.434172 1.963391 0
M  V30 31 F -5.532335 -4.655026 1.741969 0
M  V30 32 C -7.390081 -3.449032 2.308035 0
M  V30 33 C -7.994440 -2.237749 2.550598 0
M  V30 34 C -7.269900 -1.075654 2.444457 0
M  V30 35 C -5.943899 -1.147558 2.094892 0
M  V30 36 F -5.325240 0.075273 2.021322 0
M  V30 37 C -0.858766 -2.229837 0.686901 0
M  V30 38 H 2.893502 1.269227 3.243752 0
M  V30 39 H 3.316216 0.737519 4.884481 0
M  V30 40 H 4.085502 -0.070818 3.395346 0
M  V30 41 H 2.852678 -1.169512 5.711613 0
M  V30 42 H 1.322364 -2.058074 5.146866 0
M  V30 43 H 2.914446 -2.346355 4.396609 0
M  V30 44 H 1.137742 -1.983301 2.715414 0
M  V30 45 H 2.855143 -1.672817 2.364516 0
M  V30 46 H 0.630854 0.400552 1.755285 0
M  V30 47 H 2.348906 0.500141 1.418440 0
M  V30 48 H 2.399609 -1.326570 -0.076764 0
M  V30 49 H 0.056925 -0.330795 -1.265202 0
M  V30 50 H 4.754833 2.225601 -0.537283 0
M  V30 51 H 3.845219 5.447495 -2.668908 0
M  V30 52 H 4.948703 4.641804 -4.076312 0
M  V30 53 H 0.472508 4.222652 -5.242266 0
M  V30 54 H -1.040827 2.406508 -4.538359 0
M  V30 55 H -0.393280 0.939299 -2.734769 0
M  V30 56 H 2.072596 -3.539928 -0.224146 0
M  V30 57 H 0.441552 -5.148291 -0.919297 0
M  V30 58 H 0.915813 -5.401114 0.775811 0
M  V30 59 H -1.701901 -5.195372 -0.287083 0
M  V30 60 H -1.241876 -5.334343 1.426287 0
M  V30 61 H -3.501939 -4.183326 1.197804 0
M  V30 62 H -7.964916 -4.358710 2.393288 0
M  V30 63 H -9.029664 -2.191321 2.822591 0
M  V30 64 H -7.774255 -0.140316 2.641173 0
M  V30 65 H -1.231238 -1.235400 0.886490 0
M  V30 END ATOM
M  V30 BEGIN BOND
M  V30 1 1 1 2
M  V30 2 1 2 3
M  V30 3 1 2 4
M  V30 4 1 4 5
M  V30 5 1 5 6
M  V30 6 1 6 7
M  V30 7 1 7 8
M  V30 8 2 8 9
M  V30 9 1 9 10
M  V30 10 2 10 11
M  V30 11 1 11 12
M  V30 12 2 12 13
M  V30 13 1 13 14
M  V30 14 1 14 15
M  V30 15 2 14 16
M  V30 16 1 13 17
M  V30 17 2 17 18
M  V30 18 1 18 19
M  V30 19 2 19 20
M  V30 20 1 6 21
M  V30 21 2 21 22
M  V30 22 1 22 23
M  V30 23 1 23 24
M  V30 24 1 24 25
M  V30 25 1 25 26
M  V30 26 1 26 27
M  V30 27 2 27 28
M  V30 28 1 27 29
M  V30 29 2 29 30
M  V30 30 1 30 31
M  V30 31 1 30 32
M  V30 32 2 32 33
M  V30 33 1 33 34
M  V30 34 2 34 35
M  V30 35 1 35 36
M  V30 36 2 25 37
M  V30 37 1 20 8
M  V30 38 1 37 21
M  V30 39 1 20 12
M  V30 40 1 35 29
M  V30 41 1 1 38
M  V30 42 1 1 39
M  V30 43 1 1 40
M  V30 44 1 3 41
M  V30 45 1 3 42
M  V30 46 1 3 43
M  V30 47 1 4 44
M  V30 48 1 4 45
M  V30 49 1 5 46
M  V30 50 1 5 47
M  V30 51 1 6 48
M  V30 52 1 7 49
M  V30 53 1 10 50
M  V30 54 1 15 51
M  V30 55 1 15 52
M  V30 56 1 17 53
M  V30 57 1 18 54
M  V30 58 1 19 55
M  V30 59 1 22 56
M  V30 60 1 23 57
M  V30 61 1 23 58
M  V30 62 1 24 59
M  V30 63 1 24 60
M  V30 64 1 26 61
M  V30 65 1 32 62
M  V30 66 1 33 63
M  V30 67 1 34 64
M  V30 68 1 37 65
M  V30 END BOND
M  V30 END CTAB
M  END
>  <Dataset>  (934) 
ChEMBL_Kinases

>  <Ligand_Instance>  (934) 
nan

>  <PDB_ID>  (934) 
nan

>  <Standardized_SMILES>  (934) 
CN(C)CCC(Nc1ncnc2c(C(N)=O)cccc12)C1=CCCC(NC(=O)c2c(F)cccc2F)=C1

>  <Name>  (934) 
nan

>  <Pocket>  (934) 
nan

>  <ATP_Site>  (934) 
nan

>  <Peripheral>  (934) 
nan

>  <Num_H_Atoms_ProtBoundConf>  (934) 
nan

>  <Num_Resolved_Atoms>  (934) 
nan

>  <Num_Not_Resolved_Atoms>  (934) 
nan

$$$$
CHEMBL3680420
     RDKit          3D

  0  0  0  0  0  0  0  0  0  0999 V3000
M  V30 BEGIN CTAB
M  V30 COUNTS 58 61 0 0 0
M  V30 BEGIN ATOM
M  V30 1 C 2.332227 -1.923610 5.707741 0
M  V30 2 C 3.408809 -0.871300 5.520057 0
M  V30 3 C 3.071316 0.337608 6.353890 0
M  V30 4 C 3.538554 -0.492189 4.082621 0
M  V30 5 C 2.548059 0.143585 3.358177 0
M  V30 6 C 3.030300 0.315284 2.101326 0
M  V30 7 C 2.283872 0.956277 1.025133 0
M  V30 8 O 1.117218 1.398223 1.302671 0
M  V30 9 N 2.683061 1.161639 -0.319749 0
M  V30 10 C 1.582528 1.840842 -0.972314 0
M  V30 11 C 1.621170 3.220913 -0.940694 0
M  V30 12 C 0.599900 3.930015 -1.541484 0
M  V30 13 C -0.416333 3.204710 -2.148336 0
M  V30 14 C -0.429189 1.825037 -2.164747 0
M  V30 15 C -1.577904 1.106614 -2.848398 0
M  V30 16 C -1.035566 0.541835 -4.172550 0
M  V30 17 N -2.047196 0.034820 -2.046685 0
M  V30 18 C -2.554889 -0.939068 -1.125721 0
M  V30 19 N -3.043187 -0.748394 0.108277 0
M  V30 20 C -3.496193 -1.680943 0.928659 0
M  V30 21 N -3.439217 -2.909495 0.431057 0
M  V30 22 C -2.978154 -3.227859 -0.774724 0
M  V30 23 C -3.020593 -4.571260 -1.067529 0
M  V30 24 C -3.520154 -5.577727 -0.154369 0
M  V30 25 N -4.005410 -5.181830 1.141553 0
M  V30 26 O -3.558422 -6.802588 -0.426768 0
M  V30 27 C -2.557718 -4.990090 -2.310378 0
M  V30 28 C -2.081331 -4.033113 -3.180857 0
M  V30 29 C -2.083304 -2.732327 -2.792819 0
M  V30 30 C -2.516283 -2.233572 -1.598340 0
M  V30 31 C 0.571369 1.104176 -1.576321 0
M  V30 32 N 4.273173 -0.201082 2.069027 0
M  V30 33 N 4.571558 -0.682807 3.257799 0
M  V30 34 H 1.314030 -1.468219 5.753023 0
M  V30 35 H 2.475233 -2.481645 6.647545 0
M  V30 36 H 2.414334 -2.596302 4.810384 0
M  V30 37 H 4.360470 -1.305755 5.854403 0
M  V30 38 H 3.510111 1.275207 5.919505 0
M  V30 39 H 3.420493 0.261229 7.408737 0
M  V30 40 H 1.960820 0.513804 6.371288 0
M  V30 41 H 1.588579 0.426878 3.765284 0
M  V30 42 H 3.649327 0.788789 -0.537496 0
M  V30 43 H 2.403396 3.790968 -0.473567 0
M  V30 44 H 0.504136 5.007714 -1.592319 0
M  V30 45 H -1.244229 3.716709 -2.635441 0
M  V30 46 H -2.349229 1.866770 -3.127797 0
M  V30 47 H -0.259959 -0.200870 -3.954912 0
M  V30 48 H -1.879816 0.044299 -4.662260 0
M  V30 49 H -0.597343 1.357826 -4.770043 0
M  V30 50 H -2.252053 0.848164 -1.386741 0
M  V30 51 H -3.847449 -1.336473 1.877961 0
M  V30 52 H -4.810463 -4.701186 1.634329 0
M  V30 53 H -4.902521 -4.681419 1.352522 0
M  V30 54 H -2.587100 -6.034670 -2.546109 0
M  V30 55 H -1.712986 -4.315993 -4.155587 0
M  V30 56 H -1.711038 -2.018814 -3.487670 0
M  V30 57 H 0.603244 0.044462 -1.563164 0
M  V30 58 H 4.822551 -0.161647 1.160191 0
M  V30 END ATOM
M  V30 BEGIN BOND
M  V30 1 1 1 2
M  V30 2 1 2 3
M  V30 3 1 2 4
M  V30 4 1 4 5
M  V30 5 2 5 6
M  V30 6 1 6 7
M  V30 7 2 7 8
M  V30 8 1 7 9
M  V30 9 1 9 10
M  V30 10 2 10 11
M  V30 11 1 11 12
M  V30 12 2 12 13
M  V30 13 1 13 14
M  V30 14 1 14 15
M  V30 15 1 15 16
M  V30 16 1 15 17
M  V30 17 1 17 18
M  V30 18 2 18 19
M  V30 19 1 19 20
M  V30 20 2 20 21
M  V30 21 1 21 22
M  V30 22 2 22 23
M  V30 23 1 23 24
M  V30 24 1 24 25
M  V30 25 2 24 26
M  V30 26 1 23 27
M  V30 27 2 27 28
M  V30 28 1 28 29
M  V30 29 2 29 30
M  V30 30 2 14 31
M  V30 31 1 6 32
M  V30 32 1 32 33
M  V30 33 2 33 4
M  V30 34 1 31 10
M  V30 35 1 30 18
M  V30 36 1 30 22
M  V30 37 1 1 34
M  V30 38 1 1 35
M  V30 39 1 1 36
M  V30 40 1 2 37
M  V30 41 1 3 38
M  V30 42 1 3 39
M  V30 43 1 3 40
M  V30 44 1 5 41
M  V30 45 1 9 42
M  V30 46 1 11 43
M  V30 47 1 12 44
M  V30 48 1 13 45
M  V30 49 1 15 46
M  V30 50 1 16 47
M  V30 51 1 16 48
M  V30 52 1 16 49
M  V30 53 1 17 50
M  V30 54 1 20 51
M  V30 55 1 25 52
M  V30 56 1 25 53
M  V30 57 1 27 54
M  V30 58 1 28 55
M  V30 59 1 29 56
M  V30 60 1 31 57
M  V30 61 1 32 58
M  V30 END BOND
M  V30 END CTAB
M  END
>  <Dataset>  (935) 
ChEMBL_Kinases

>  <Ligand_Instance>  (935) 
nan

>  <PDB_ID>  (935) 
nan

>  <Standardized_SMILES>  (935) 
CC(C)c1cc(C(=O)Nc2cccc(C(C)Nc3ncnc4c(C(N)=O)cccc34)c2)[nH]n1

>  <Name>  (935) 
nan

>  <Pocket>  (935) 
nan

>  <ATP_Site>  (935) 
nan

>  <Peripheral>  (935) 
nan

>  <Num_H_Atoms_ProtBoundConf>  (935) 
nan

>  <Num_Resolved_Atoms>  (935) 
nan

>  <Num_Not_Resolved_Atoms>  (935) 
nan

$$$$
CHEMBL3680421
     RDKit          3D

  0  0  0  0  0  0  0  0  0  0999 V3000
M  V30 BEGIN CTAB
M  V30 COUNTS 58 61 0 0 0
M  V30 BEGIN ATOM
M  V30 1 C 3.637010 0.021041 5.484046 0
M  V30 2 C 3.840576 -0.601003 4.128976 0
M  V30 3 N 4.189833 0.350447 3.097373 0
M  V30 4 N 5.379359 0.738981 2.673898 0
M  V30 5 C 5.238523 1.628601 1.671856 0
M  V30 6 C 6.382060 2.265120 0.970625 0
M  V30 7 F 6.972812 1.360898 0.110601 0
M  V30 8 F 7.319666 2.747087 1.859307 0
M  V30 9 F 5.891555 3.301749 0.186416 0
M  V30 10 C 3.880751 1.768811 1.498941 0
M  V30 11 C 3.208297 0.948774 2.414610 0
M  V30 12 C 1.763075 1.032211 2.350954 0
M  V30 13 O 1.056124 1.635917 1.466264 0
M  V30 14 N 0.821566 0.470414 3.248861 0
M  V30 15 C -0.523998 0.763255 2.856279 0
M  V30 16 C -1.077241 1.928759 3.359672 0
M  V30 17 C -2.374263 2.258423 3.011816 0
M  V30 18 C -3.118188 1.449255 2.177481 0
M  V30 19 C -2.536693 0.291181 1.691038 0
M  V30 20 C -3.198144 -0.709728 0.771448 0
M  V30 21 C -4.340132 0.051454 0.080091 0
M  V30 22 N -2.271910 -1.089207 -0.295414 0
M  V30 23 C -2.647422 -2.071690 -1.220146 0
M  V30 24 N -3.835743 -2.697730 -1.161102 0
M  V30 25 C -4.230222 -3.649754 -2.024983 0
M  V30 26 N -3.442366 -4.054407 -3.037088 0
M  V30 27 C -2.226777 -3.486677 -3.183461 0
M  V30 28 C -1.393148 -3.873730 -4.205594 0
M  V30 29 C -1.836366 -4.906954 -5.134000 0
M  V30 30 N -3.110638 -5.523250 -5.010614 0
M  V30 31 O -1.098980 -5.286286 -6.078593 0
M  V30 32 C -0.149103 -3.308750 -4.374592 0
M  V30 33 C 0.214380 -2.341759 -3.472142 0
M  V30 34 C -0.625083 -1.962229 -2.455169 0
M  V30 35 C -1.872280 -2.516066 -2.270744 0
M  V30 36 C -1.241319 -0.067688 2.019539 0
M  V30 37 H 2.753821 -0.496827 5.953680 0
M  V30 38 H 3.298743 1.092558 5.416487 0
M  V30 39 H 4.467380 -0.103650 6.184141 0
M  V30 40 H 3.064994 -1.283183 3.790513 0
M  V30 41 H 4.736581 -1.299263 4.293612 0
M  V30 42 H 3.559079 2.463753 0.713094 0
M  V30 43 H 1.138812 -0.060244 4.060136 0
M  V30 44 H -0.523645 2.591995 4.019599 0
M  V30 45 H -2.883208 3.165901 3.370218 0
M  V30 46 H -4.132261 1.620311 1.850216 0
M  V30 47 H -3.599427 -1.572676 1.296853 0
M  V30 48 H -3.973473 1.052407 -0.235931 0
M  V30 49 H -5.195271 0.154408 0.753514 0
M  V30 50 H -4.588472 -0.496303 -0.842175 0
M  V30 51 H -1.363094 -0.586576 -0.297694 0
M  V30 52 H -5.238178 -4.044013 -1.812578 0
M  V30 53 H -3.955595 -4.930165 -5.188901 0
M  V30 54 H -3.217234 -6.542418 -4.749653 0
M  V30 55 H 0.516506 -3.601731 -5.171809 0
M  V30 56 H 1.193693 -1.897485 -3.605834 0
M  V30 57 H -0.238076 -1.197703 -1.809306 0
M  V30 58 H -0.722637 -0.932418 1.692636 0
M  V30 END ATOM
M  V30 BEGIN BOND
M  V30 1 1 1 2
M  V30 2 1 2 3
M  V30 3 1 3 4
M  V30 4 2 4 5
M  V30 5 1 5 6
M  V30 6 1 6 7
M  V30 7 1 6 8
M  V30 8 1 6 9
M  V30 9 1 5 10
M  V30 10 2 10 11
M  V30 11 1 11 12
M  V30 12 2 12 13
M  V30 13 1 12 14
M  V30 14 1 14 15
M  V30 15 2 15 16
M  V30 16 1 16 17
M  V30 17 2 17 18
M  V30 18 1 18 19
M  V30 19 1 19 20
M  V30 20 1 20 21
M  V30 21 1 20 22
M  V30 22 1 22 23
M  V30 23 2 23 24
M  V30 24 1 24 25
M  V30 25 2 25 26
M  V30 26 1 26 27
M  V30 27 2 27 28
M  V30 28 1 28 29
M  V30 29 1 29 30
M  V30 30 2 29 31
M  V30 31 1 28 32
M  V30 32 2 32 33
M  V30 33 1 33 34
M  V30 34 2 34 35
M  V30 35 2 19 36
M  V30 36 1 11 3
M  V30 37 1 36 15
M  V30 38 1 35 23
M  V30 39 1 35 27
M  V30 40 1 1 37
M  V30 41 1 1 38
M  V30 42 1 1 39
M  V30 43 1 2 40
M  V30 44 1 2 41
M  V30 45 1 10 42
M  V30 46 1 14 43
M  V30 47 1 16 44
M  V30 48 1 17 45
M  V30 49 1 18 46
M  V30 50 1 20 47
M  V30 51 1 21 48
M  V30 52 1 21 49
M  V30 53 1 21 50
M  V30 54 1 22 51
M  V30 55 1 25 52
M  V30 56 1 30 53
M  V30 57 1 30 54
M  V30 58 1 32 55
M  V30 59 1 33 56
M  V30 60 1 34 57
M  V30 61 1 36 58
M  V30 END BOND
M  V30 END CTAB
M  END
>  <Dataset>  (936) 
ChEMBL_Kinases

>  <Ligand_Instance>  (936) 
nan

>  <PDB_ID>  (936) 
nan

>  <Standardized_SMILES>  (936) 
CCn1nc(C(F)(F)F)cc1C(=O)Nc1cccc(C(C)Nc2ncnc3c(C(N)=O)cccc23)c1

>  <Name>  (936) 
nan

>  <Pocket>  (936) 
nan

>  <ATP_Site>  (936) 
nan

>  <Peripheral>  (936) 
nan

>  <Num_H_Atoms_ProtBoundConf>  (936) 
nan

>  <Num_Resolved_Atoms>  (936) 
nan

>  <Num_Not_Resolved_Atoms>  (936) 
nan

$$$$
CHEMBL3680509
     RDKit          3D

  0  0  0  0  0  0  0  0  0  0999 V3000
M  V30 BEGIN CTAB
M  V30 COUNTS 57 60 0 0 0
M  V30 BEGIN ATOM
M  V30 1 C 4.762649 -5.956900 -1.358162 0
M  V30 2 O 4.797173 -4.735975 -2.080015 0
M  V30 3 C 4.118185 -3.601957 -1.662469 0
M  V30 4 C 3.342091 -3.502170 -0.529678 0
M  V30 5 C 2.697208 -2.339502 -0.180036 0
M  V30 6 C 2.794185 -1.181412 -0.962996 0
M  V30 7 C 2.060336 -0.056722 -0.455542 0
M  V30 8 O 1.378409 -0.105355 0.613892 0
M  V30 9 N 1.941528 1.252400 -0.989338 0
M  V30 10 C 1.102565 2.067358 -0.151716 0
M  V30 11 C 1.658783 2.797874 0.877476 0
M  V30 12 C 0.797625 3.558106 1.641017 0
M  V30 13 C -0.549003 3.550605 1.344423 0
M  V30 14 C -1.117940 2.809716 0.299920 0
M  V30 15 C -2.589479 2.981237 0.178828 0
M  V30 16 N -3.221001 2.037396 1.083059 0
M  V30 17 C -3.155908 0.625129 1.072627 0
M  V30 18 N -2.461201 -0.068227 0.164751 0
M  V30 19 C -2.357135 -1.383402 0.090600 0
M  V30 20 N -3.001336 -2.123059 1.003118 0
M  V30 21 C -3.725994 -1.516602 1.956135 0
M  V30 22 C -4.382312 -2.283807 2.886063 0
M  V30 23 C -4.226391 -3.717344 2.748210 0
M  V30 24 N -4.829961 -4.641884 3.616575 0
M  V30 25 O -3.548094 -4.269377 1.854728 0
M  V30 26 C -5.146372 -1.755308 3.896025 0
M  V30 27 C -5.229245 -0.362538 3.937425 0
M  V30 28 C -4.560117 0.394646 2.990698 0
M  V30 29 C -3.808471 -0.141962 1.997920 0
M  V30 30 C -0.243971 2.057837 -0.451135 0
M  V30 31 C 3.562413 -1.305365 -2.070596 0
M  V30 32 O 3.666768 -0.169211 -2.852958 0
M  V30 33 C 4.453924 -0.236031 -4.020871 0
M  V30 34 C 4.213326 -2.467517 -2.429733 0
M  V30 35 H 5.256724 -5.814884 -0.374923 0
M  V30 36 H 5.298865 -6.716975 -1.941208 0
M  V30 37 H 3.714153 -6.248777 -1.125220 0
M  V30 38 H 3.249431 -4.371524 0.088149 0
M  V30 39 H 2.103952 -2.371629 0.745605 0
M  V30 40 H 2.447270 1.453502 -1.872824 0
M  V30 41 H 2.720778 2.760470 1.057736 0
M  V30 42 H 1.203855 4.142053 2.455071 0
M  V30 43 H -1.151670 4.188253 2.010335 0
M  V30 44 H -2.824442 2.675463 -0.885505 0
M  V30 45 H -2.839872 4.025770 0.354908 0
M  V30 46 H -3.770860 2.548102 1.797594 0
M  V30 47 H -1.759688 -1.815121 -0.698519 0
M  V30 48 H -5.572324 -5.292347 3.920706 0
M  V30 49 H -5.255971 -5.314932 4.261655 0
M  V30 50 H -5.646479 -2.400563 4.607559 0
M  V30 51 H -5.826776 0.076867 4.726059 0
M  V30 52 H -4.688620 1.440124 3.112090 0
M  V30 53 H -0.709643 1.512415 -1.243984 0
M  V30 54 H 4.380619 0.677681 -4.639829 0
M  V30 55 H 4.200717 -1.081139 -4.691780 0
M  V30 56 H 5.529087 -0.307724 -3.700676 0
M  V30 57 H 4.809671 -2.489514 -3.330158 0
M  V30 END ATOM
M  V30 BEGIN BOND
M  V30 1 1 1 2
M  V30 2 1 2 3
M  V30 3 2 3 4
M  V30 4 1 4 5
M  V30 5 2 5 6
M  V30 6 1 6 7
M  V30 7 2 7 8
M  V30 8 1 7 9
M  V30 9 1 9 10
M  V30 10 2 10 11
M  V30 11 1 11 12
M  V30 12 2 12 13
M  V30 13 1 13 14
M  V30 14 1 14 15
M  V30 15 1 15 16
M  V30 16 1 16 17
M  V30 17 2 17 18
M  V30 18 1 18 19
M  V30 19 2 19 20
M  V30 20 1 20 21
M  V30 21 2 21 22
M  V30 22 1 22 23
M  V30 23 1 23 24
M  V30 24 2 23 25
M  V30 25 1 22 26
M  V30 26 2 26 27
M  V30 27 1 27 28
M  V30 28 2 28 29
M  V30 29 2 14 30
M  V30 30 1 6 31
M  V30 31 1 31 32
M  V30 32 1 32 33
M  V30 33 2 31 34
M  V30 34 1 34 3
M  V30 35 1 30 10
M  V30 36 1 29 17
M  V30 37 1 29 21
M  V30 38 1 1 35
M  V30 39 1 1 36
M  V30 40 1 1 37
M  V30 41 1 4 38
M  V30 42 1 5 39
M  V30 43 1 9 40
M  V30 44 1 11 41
M  V30 45 1 12 42
M  V30 46 1 13 43
M  V30 47 1 15 44
M  V30 48 1 15 45
M  V30 49 1 16 46
M  V30 50 1 19 47
M  V30 51 1 24 48
M  V30 52 1 24 49
M  V30 53 1 26 50
M  V30 54 1 27 51
M  V30 55 1 28 52
M  V30 56 1 30 53
M  V30 57 1 33 54
M  V30 58 1 33 55
M  V30 59 1 33 56
M  V30 60 1 34 57
M  V30 END BOND
M  V30 END CTAB
M  END
>  <Dataset>  (937) 
ChEMBL_Kinases

>  <Ligand_Instance>  (937) 
nan

>  <PDB_ID>  (937) 
nan

>  <Standardized_SMILES>  (937) 
COc1ccc(C(=O)Nc2cccc(CNc3ncnc4c(C(N)=O)cccc34)c2)c(OC)c1

>  <Name>  (937) 
nan

>  <Pocket>  (937) 
nan

>  <ATP_Site>  (937) 
nan

>  <Peripheral>  (937) 
nan

>  <Num_H_Atoms_ProtBoundConf>  (937) 
nan

>  <Num_Resolved_Atoms>  (937) 
nan

>  <Num_Not_Resolved_Atoms>  (937) 
nan

$$$$
CHEMBL3680508
     RDKit          3D

  0  0  0  0  0  0  0  0  0  0999 V3000
M  V30 BEGIN CTAB
M  V30 COUNTS 49 52 0 0 0
M  V30 BEGIN ATOM
M  V30 1 N -8.743362 -0.735168 -3.186390 0
M  V30 2 C -7.748533 -1.015865 -4.159122 0
M  V30 3 O -8.190299 -1.310448 -5.301521 0
M  V30 4 C -6.318938 -0.983202 -3.919521 0
M  V30 5 C -5.498833 -1.284377 -4.983438 0
M  V30 6 C -4.125431 -1.246894 -4.730298 0
M  V30 7 C -3.642107 -0.925920 -3.485374 0
M  V30 8 C -4.454211 -0.627681 -2.431831 0
M  V30 9 C -3.902696 -0.315680 -1.215056 0
M  V30 10 N -2.518193 -0.274875 -0.948385 0
M  V30 11 C -2.059875 0.071641 0.390282 0
M  V30 12 C -0.591320 0.075184 0.523787 0
M  V30 13 C 0.081071 1.265231 0.266134 0
M  V30 14 C 1.462570 1.342534 0.371877 0
M  V30 15 C 2.180974 0.219899 0.738777 0
M  V30 16 N 3.591426 0.117604 0.895344 0
M  V30 17 C 4.511186 0.297506 1.949763 0
M  V30 18 O 4.108808 0.633708 3.090666 0
M  V30 19 C 5.893641 0.047344 1.524412 0
M  V30 20 C 6.484016 -0.325244 0.316733 0
M  V30 21 C 7.844383 -0.407170 0.532241 0
M  V30 22 C 8.669021 -0.799189 -0.658864 0
M  V30 23 F 8.098670 -1.912760 -1.273214 0
M  V30 24 F 9.912135 -1.210536 -0.198600 0
M  V30 25 F 8.760919 0.227563 -1.579308 0
M  V30 26 N 8.118356 -0.099516 1.827122 0
M  V30 27 N 6.933855 0.168634 2.399329 0
M  V30 28 C 1.511831 -0.972922 0.997471 0
M  V30 29 C 0.119506 -1.063389 0.894268 0
M  V30 30 N -4.786849 -0.037356 -0.242216 0
M  V30 31 C -6.108988 -0.057678 -0.426726 0
M  V30 32 N -6.621683 -0.367290 -1.631358 0
M  V30 33 C -5.811033 -0.665425 -2.684596 0
M  V30 34 H -9.126629 0.244910 -3.173864 0
M  V30 35 H -9.164251 -1.358367 -2.466625 0
M  V30 36 H -5.839555 -1.540309 -5.972438 0
M  V30 37 H -3.458033 -1.481831 -5.557972 0
M  V30 38 H -2.585931 -0.922071 -3.384505 0
M  V30 39 H -1.747596 -0.469876 -1.617449 0
M  V30 40 H -2.477011 1.093468 0.627073 0
M  V30 41 H -2.544265 -0.593486 1.143316 0
M  V30 42 H -0.458836 2.152656 -0.021331 0
M  V30 43 H 2.048299 2.226400 0.188423 0
M  V30 44 H 3.828455 -0.164700 -0.102091 0
M  V30 45 H 5.841774 -0.480174 -0.532476 0
M  V30 46 H 6.858867 0.441513 3.423532 0
M  V30 47 H 2.012229 -1.898294 1.291499 0
M  V30 48 H -0.409921 -1.967487 1.088308 0
M  V30 49 H -6.790100 0.173115 0.384240 0
M  V30 END ATOM
M  V30 BEGIN BOND
M  V30 1 1 1 2
M  V30 2 2 2 3
M  V30 3 1 2 4
M  V30 4 2 4 5
M  V30 5 1 5 6
M  V30 6 2 6 7
M  V30 7 1 7 8
M  V30 8 2 8 9
M  V30 9 1 9 10
M  V30 10 1 10 11
M  V30 11 1 11 12
M  V30 12 2 12 13
M  V30 13 1 13 14
M  V30 14 2 14 15
M  V30 15 1 15 16
M  V30 16 1 16 17
M  V30 17 2 17 18
M  V30 18 1 17 19
M  V30 19 2 19 20
M  V30 20 1 20 21
M  V30 21 1 21 22
M  V30 22 1 22 23
M  V30 23 1 22 24
M  V30 24 1 22 25
M  V30 25 2 21 26
M  V30 26 1 26 27
M  V30 27 1 15 28
M  V30 28 2 28 29
M  V30 29 1 9 30
M  V30 30 2 30 31
M  V30 31 1 31 32
M  V30 32 2 32 33
M  V30 33 1 33 4
M  V30 34 1 33 8
M  V30 35 1 29 12
M  V30 36 1 27 19
M  V30 37 1 1 34
M  V30 38 1 1 35
M  V30 39 1 5 36
M  V30 40 1 6 37
M  V30 41 1 7 38
M  V30 42 1 10 39
M  V30 43 1 11 40
M  V30 44 1 11 41
M  V30 45 1 13 42
M  V30 46 1 14 43
M  V30 47 1 16 44
M  V30 48 1 20 45
M  V30 49 1 27 46
M  V30 50 1 28 47
M  V30 51 1 29 48
M  V30 52 1 31 49
M  V30 END BOND
M  V30 END CTAB
M  END
>  <Dataset>  (938) 
ChEMBL_Kinases

>  <Ligand_Instance>  (938) 
nan

>  <PDB_ID>  (938) 
nan

>  <Standardized_SMILES>  (938) 
NC(=O)c1cccc2c(NCc3ccc(NC(=O)c4cc(C(F)(F)F)n[nH]4)cc3)ncnc12

>  <Name>  (938) 
nan

>  <Pocket>  (938) 
nan

>  <ATP_Site>  (938) 
nan

>  <Peripheral>  (938) 
nan

>  <Num_H_Atoms_ProtBoundConf>  (938) 
nan

>  <Num_Resolved_Atoms>  (938) 
nan

>  <Num_Not_Resolved_Atoms>  (938) 
nan

$$$$
CHEMBL3680429
     RDKit          3D

  0  0  0  0  0  0  0  0  0  0999 V3000
M  V30 BEGIN CTAB
M  V30 COUNTS 60 63 0 0 0
M  V30 BEGIN ATOM
M  V30 1 C 3.173258 -4.183653 4.667940 0
M  V30 2 O 2.028227 -3.525930 4.148297 0
M  V30 3 C 2.213514 -2.354489 3.426140 0
M  V30 4 C 3.447146 -1.780887 3.177006 0
M  V30 5 C 3.542494 -0.607642 2.445510 0
M  V30 6 C 2.380893 -0.030815 1.975417 0
M  V30 7 C 2.436645 1.240459 1.178585 0
M  V30 8 O 1.402554 2.016665 1.750558 0
M  V30 9 N 2.101625 0.851193 -0.179514 0
M  V30 10 C 1.774398 1.729107 -1.066453 0
M  V30 11 C 1.757821 3.142977 -0.633023 0
M  V30 12 C 1.021689 4.018839 -1.306037 0
M  V30 13 C 0.168010 3.713197 -2.511632 0
M  V30 14 C 0.080877 2.223594 -2.742479 0
M  V30 15 C -0.934903 1.613869 -1.801715 0
M  V30 16 N -1.075846 0.181920 -1.966900 0
M  V30 17 C -1.994189 -0.512258 -1.135793 0
M  V30 18 N -2.717053 0.146000 -0.215176 0
M  V30 19 C -3.595769 -0.476187 0.589580 0
M  V30 20 N -3.814143 -1.801960 0.530758 0
M  V30 21 C -3.124796 -2.516851 -0.366424 0
M  V30 22 C -3.309427 -3.875504 -0.468765 0
M  V30 23 C -4.249805 -4.577739 0.384647 0
M  V30 24 N -5.061343 -3.989790 1.385626 0
M  V30 25 O -4.452550 -5.813693 0.328414 0
M  V30 26 C -2.612592 -4.624656 -1.381647 0
M  V30 27 C -1.702860 -3.993721 -2.217748 0
M  V30 28 C -1.539451 -2.632327 -2.092044 0
M  V30 29 C -2.226205 -1.866480 -1.186281 0
M  V30 30 C 1.404131 1.536600 -2.483323 0
M  V30 31 C 1.108859 -0.570952 2.199904 0
M  V30 32 C 1.050536 -1.750061 2.938482 0
M  V30 33 C -0.293542 -2.372290 3.208188 0
M  V30 34 H 3.741923 -4.565873 3.782375 0
M  V30 35 H 3.816604 -3.429800 5.167430 0
M  V30 36 H 2.925593 -5.045055 5.285576 0
M  V30 37 H 4.327678 -2.272055 3.567378 0
M  V30 38 H 4.501256 -0.138538 2.237185 0
M  V30 39 H 3.420652 1.720652 1.250834 0
M  V30 40 H 1.861528 2.573748 2.426724 0
M  V30 41 H 2.314858 3.519094 0.210616 0
M  V30 42 H 0.997231 5.072902 -0.998589 0
M  V30 43 H -0.866175 4.082986 -2.329216 0
M  V30 44 H 0.546360 4.277741 -3.388490 0
M  V30 45 H -0.249421 2.069565 -3.789968 0
M  V30 46 H -0.555246 1.858659 -0.767262 0
M  V30 47 H -1.917102 2.114126 -1.867038 0
M  V30 48 H -0.472196 -0.228337 -2.706010 0
M  V30 49 H -4.128975 0.154220 1.300693 0
M  V30 50 H -4.771895 -4.165504 2.387925 0
M  V30 51 H -5.135109 -3.912975 2.411762 0
M  V30 52 H -2.764902 -5.697380 -1.455465 0
M  V30 53 H -1.149054 -4.590579 -2.943577 0
M  V30 54 H -0.819593 -2.199694 -2.768325 0
M  V30 55 H 2.157815 2.102345 -3.105378 0
M  V30 56 H 1.412527 0.514722 -2.841621 0
M  V30 57 H 0.212963 -0.092081 1.815863 0
M  V30 58 H -0.733160 -2.042759 4.157276 0
M  V30 59 H -0.104160 -3.467535 3.247030 0
M  V30 60 H -1.001529 -2.114093 2.397044 0
M  V30 END ATOM
M  V30 BEGIN BOND
M  V30 1 1 1 2
M  V30 2 1 2 3
M  V30 3 2 3 4
M  V30 4 1 4 5
M  V30 5 2 5 6
M  V30 6 1 6 7
M  V30 7 1 7 8
M  V30 8 1 7 9
M  V30 9 2 9 10
M  V30 10 1 10 11
M  V30 11 2 11 12
M  V30 12 1 12 13
M  V30 13 1 13 14
M  V30 14 1 14 15
M  V30 15 1 15 16
M  V30 16 1 16 17
M  V30 17 2 17 18
M  V30 18 1 18 19
M  V30 19 2 19 20
M  V30 20 1 20 21
M  V30 21 2 21 22
M  V30 22 1 22 23
M  V30 23 1 23 24
M  V30 24 2 23 25
M  V30 25 1 22 26
M  V30 26 2 26 27
M  V30 27 1 27 28
M  V30 28 2 28 29
M  V30 29 1 14 30
M  V30 30 1 6 31
M  V30 31 2 31 32
M  V30 32 1 32 33
M  V30 33 1 32 3
M  V30 34 1 30 10
M  V30 35 1 29 17
M  V30 36 1 29 21
M  V30 37 1 1 34
M  V30 38 1 1 35
M  V30 39 1 1 36
M  V30 40 1 4 37
M  V30 41 1 5 38
M  V30 42 1 7 39
M  V30 43 1 8 40
M  V30 44 1 11 41
M  V30 45 1 12 42
M  V30 46 1 13 43
M  V30 47 1 13 44
M  V30 48 1 14 45
M  V30 49 1 15 46
M  V30 50 1 15 47
M  V30 51 1 16 48
M  V30 52 1 19 49
M  V30 53 1 24 50
M  V30 54 1 24 51
M  V30 55 1 26 52
M  V30 56 1 27 53
M  V30 57 1 28 54
M  V30 58 1 30 55
M  V30 59 1 30 56
M  V30 60 1 31 57
M  V30 61 1 33 58
M  V30 62 1 33 59
M  V30 63 1 33 60
M  V30 END BOND
M  V30 END CTAB
M  END
>  <Dataset>  (939) 
ChEMBL_Kinases

>  <Ligand_Instance>  (939) 
nan

>  <PDB_ID>  (939) 
nan

>  <Standardized_SMILES>  (939) 
COc1ccc(C(O)/N=C2\C=CCC(CNc3ncnc4c(C(N)=O)cccc34)C2)cc1C

>  <Name>  (939) 
nan

>  <Pocket>  (939) 
nan

>  <ATP_Site>  (939) 
nan

>  <Peripheral>  (939) 
nan

>  <Num_H_Atoms_ProtBoundConf>  (939) 
nan

>  <Num_Resolved_Atoms>  (939) 
nan

>  <Num_Not_Resolved_Atoms>  (939) 
nan

$$$$
CHEMBL3680507
     RDKit          3D

  0  0  0  0  0  0  0  0  0  0999 V3000
M  V30 BEGIN CTAB
M  V30 COUNTS 70 74 0 0 0
M  V30 BEGIN ATOM
M  V30 1 N 4.477955 1.748298 5.099431 0
M  V30 2 C 5.177322 0.755949 4.371322 0
M  V30 3 O 6.196908 0.245378 4.896154 0
M  V30 4 C 4.707112 0.361150 3.061151 0
M  V30 5 C 5.403341 -0.599339 2.374268 0
M  V30 6 C 4.952041 -0.976153 1.121791 0
M  V30 7 C 3.825735 -0.379269 0.606942 0
M  V30 8 C 3.108050 0.582283 1.266318 0
M  V30 9 C 1.967510 1.155809 0.693645 0
M  V30 10 N 1.501012 0.774071 -0.589962 0
M  V30 11 C 0.316832 1.408936 -1.116820 0
M  V30 12 C -0.032751 0.894570 -2.475917 0
M  V30 13 C -0.309012 -0.561152 -2.551002 0
M  V30 14 N -0.644234 -0.993866 -3.913299 0
M  V30 15 C -1.919917 -0.465645 -4.346260 0
M  V30 16 C -2.388725 -1.251821 -5.528652 0
M  V30 17 C -1.266562 -1.941324 -6.285639 0
M  V30 18 C -0.439121 -2.846047 -5.415131 0
M  V30 19 C -0.724428 -2.444732 -3.978782 0
M  V30 20 C -0.831124 1.416746 -0.183807 0
M  V30 21 C -1.601614 2.568583 0.023823 0
M  V30 22 C -2.669471 2.547597 0.899704 0
M  V30 23 C -2.996429 1.389417 1.586953 0
M  V30 24 C -2.207488 0.271672 1.351883 0
M  V30 25 N -2.610086 -0.874436 2.095418 0
M  V30 26 C -2.233123 -1.343754 3.367406 0
M  V30 27 O -1.392116 -0.656705 3.990266 0
M  V30 28 C -2.783959 -2.548243 3.923236 0
M  V30 29 C -2.340761 -2.908448 5.158450 0
M  V30 30 C -2.768794 -4.040148 5.839792 0
M  V30 31 C -3.712773 -4.841851 5.196401 0
M  V30 32 Br -4.388737 -6.429863 6.020627 0
M  V30 33 C -4.159637 -4.469266 3.939054 0
M  V30 34 C -3.702906 -3.329297 3.297703 0
M  V30 35 C -1.149430 0.269449 0.492317 0
M  V30 36 N 1.317363 2.083878 1.389109 0
M  V30 37 C 1.794716 2.415562 2.600271 0
M  V30 38 N 2.886711 1.884611 3.179509 0
M  V30 39 C 3.580427 0.941728 2.518102 0
M  V30 40 H 3.963255 1.276234 5.890014 0
M  V30 41 H 3.988783 2.497425 5.597084 0
M  V30 42 H 6.258613 -0.994199 2.864587 0
M  V30 43 H 5.523464 -1.739939 0.599121 0
M  V30 44 H 3.543327 -0.721107 -0.356594 0
M  V30 45 H 1.935054 0.061018 -1.214508 0
M  V30 46 H 0.603159 2.481850 -1.265432 0
M  V30 47 H -0.871925 1.479867 -2.897728 0
M  V30 48 H 0.862030 1.100011 -3.122439 0
M  V30 49 H -1.206227 -0.783720 -1.921226 0
M  V30 50 H 0.485140 -1.217434 -2.223852 0
M  V30 51 H -2.634928 -0.693148 -3.505356 0
M  V30 52 H -1.901335 0.630502 -4.499124 0
M  V30 53 H -2.801578 -0.495215 -6.256614 0
M  V30 54 H -3.161874 -2.003796 -5.270059 0
M  V30 55 H -1.754701 -2.588202 -7.048787 0
M  V30 56 H -0.639781 -1.154358 -6.768299 0
M  V30 57 H -0.610521 -3.922392 -5.588627 0
M  V30 58 H 0.647440 -2.591270 -5.593615 0
M  V30 59 H -0.031953 -2.925858 -3.262289 0
M  V30 60 H -1.745345 -2.798441 -3.688862 0
M  V30 61 H -1.346286 3.470398 -0.512276 0
M  V30 62 H -3.251851 3.466004 1.039476 0
M  V30 63 H -3.827850 1.414536 2.253628 0
M  V30 64 H -3.308399 -1.371438 1.483154 0
M  V30 65 H -1.604314 -2.338738 5.730426 0
M  V30 66 H -2.412526 -4.326511 6.827353 0
M  V30 67 H -4.904418 -5.117031 3.451486 0
M  V30 68 H -4.068308 -3.067614 2.324101 0
M  V30 69 H -0.638840 -0.655400 0.413339 0
M  V30 70 H 1.254630 3.179311 3.164653 0
M  V30 END ATOM
M  V30 BEGIN BOND
M  V30 1 1 1 2
M  V30 2 2 2 3
M  V30 3 1 2 4
M  V30 4 2 4 5
M  V30 5 1 5 6
M  V30 6 2 6 7
M  V30 7 1 7 8
M  V30 8 2 8 9
M  V30 9 1 9 10
M  V30 10 1 10 11
M  V30 11 1 11 12
M  V30 12 1 12 13
M  V30 13 1 13 14
M  V30 14 1 14 15
M  V30 15 1 15 16
M  V30 16 1 16 17
M  V30 17 1 17 18
M  V30 18 1 18 19
M  V30 19 1 11 20
M  V30 20 2 20 21
M  V30 21 1 21 22
M  V30 22 2 22 23
M  V30 23 1 23 24
M  V30 24 1 24 25
M  V30 25 1 25 26
M  V30 26 2 26 27
M  V30 27 1 26 28
M  V30 28 2 28 29
M  V30 29 1 29 30
M  V30 30 2 30 31
M  V30 31 1 31 32
M  V30 32 1 31 33
M  V30 33 2 33 34
M  V30 34 2 24 35
M  V30 35 1 9 36
M  V30 36 2 36 37
M  V30 37 1 37 38
M  V30 38 2 38 39
M  V30 39 1 39 4
M  V30 40 1 39 8
M  V30 41 1 19 14
M  V30 42 1 35 20
M  V30 43 1 34 28
M  V30 44 1 1 40
M  V30 45 1 1 41
M  V30 46 1 5 42
M  V30 47 1 6 43
M  V30 48 1 7 44
M  V30 49 1 10 45
M  V30 50 1 11 46
M  V30 51 1 12 47
M  V30 52 1 12 48
M  V30 53 1 13 49
M  V30 54 1 13 50
M  V30 55 1 15 51
M  V30 56 1 15 52
M  V30 57 1 16 53
M  V30 58 1 16 54
M  V30 59 1 17 55
M  V30 60 1 17 56
M  V30 61 1 18 57
M  V30 62 1 18 58
M  V30 63 1 19 59
M  V30 64 1 19 60
M  V30 65 1 21 61
M  V30 66 1 22 62
M  V30 67 1 23 63
M  V30 68 1 25 64
M  V30 69 1 29 65
M  V30 70 1 30 66
M  V30 71 1 33 67
M  V30 72 1 34 68
M  V30 73 1 35 69
M  V30 74 1 37 70
M  V30 END BOND
M  V30 END CTAB
M  END
>  <Dataset>  (940) 
ChEMBL_Kinases

>  <Ligand_Instance>  (940) 
nan

>  <PDB_ID>  (940) 
nan

>  <Standardized_SMILES>  (940) 
NC(=O)c1cccc2c(NC(CCN3CCCCC3)c3cccc(NC(=O)c4ccc(Br)cc4)c3)ncnc12

>  <Name>  (940) 
nan

>  <Pocket>  (940) 
nan

>  <ATP_Site>  (940) 
nan

>  <Peripheral>  (940) 
nan

>  <Num_H_Atoms_ProtBoundConf>  (940) 
nan

>  <Num_Resolved_Atoms>  (940) 
nan

>  <Num_Not_Resolved_Atoms>  (940) 
nan

$$$$
CHEMBL3680436
     RDKit          3D

  0  0  0  0  0  0  0  0  0  0999 V3000
M  V30 BEGIN CTAB
M  V30 COUNTS 57 60 0 0 0
M  V30 BEGIN ATOM
M  V30 1 C 4.080329 -5.073362 4.699792 0
M  V30 2 O 3.639845 -3.963169 3.977940 0
M  V30 3 C 3.747353 -3.810977 2.594697 0
M  V30 4 C 3.228200 -2.612873 2.150729 0
M  V30 5 C 3.254798 -2.302747 0.804396 0
M  V30 6 C 2.753394 -1.088379 0.164881 0
M  V30 7 O 2.807050 -0.861967 -1.080589 0
M  V30 8 N 2.164564 -0.075524 0.937532 0
M  V30 9 C 1.612187 1.176637 0.548912 0
M  V30 10 C 2.060401 2.343436 0.986803 0
M  V30 11 C 1.530080 3.654241 0.619843 0
M  V30 12 C 0.388504 3.665835 -0.330260 0
M  V30 13 C -0.076163 2.343980 -0.789123 0
M  V30 14 C -1.209936 2.486603 -1.733262 0
M  V30 15 C -2.334123 3.234542 -1.007889 0
M  V30 16 N -1.742010 1.156363 -1.989983 0
M  V30 17 C -2.321707 0.371119 -0.960057 0
M  V30 18 N -2.415559 0.809750 0.304728 0
M  V30 19 C -2.964254 0.076368 1.287987 0
M  V30 20 N -3.466843 -1.156642 1.097505 0
M  V30 21 C -3.397260 -1.647385 -0.162018 0
M  V30 22 C -3.896115 -2.908812 -0.424034 0
M  V30 23 C -4.493545 -3.712872 0.635694 0
M  V30 24 N -4.600473 -3.262322 1.980615 0
M  V30 25 O -4.958464 -4.858925 0.449155 0
M  V30 26 C -3.855695 -3.467982 -1.688441 0
M  V30 27 C -3.287680 -2.713462 -2.715415 0
M  V30 28 C -2.804194 -1.460052 -2.401510 0
M  V30 29 C -2.833652 -0.892043 -1.168048 0
M  V30 30 C 0.489832 1.232044 -0.380868 0
M  V30 31 C 3.823961 -3.251455 -0.053276 0
M  V30 32 C 4.332867 -4.439401 0.431644 0
M  V30 33 N 4.291917 -4.712806 1.752445 0
M  V30 34 H 3.773736 -6.033043 4.206926 0
M  V30 35 H 5.197240 -5.077840 4.687134 0
M  V30 36 H 3.679875 -4.990889 5.725175 0
M  V30 37 H 2.779325 -1.852492 2.782230 0
M  V30 38 H 2.050795 -0.122112 1.980014 0
M  V30 39 H 2.890710 2.362682 1.677686 0
M  V30 40 H 1.229111 4.185686 1.570172 0
M  V30 41 H 2.415349 4.261339 0.267932 0
M  V30 42 H -0.458913 4.221902 0.077003 0
M  V30 43 H 0.761477 4.190287 -1.261654 0
M  V30 44 H -0.921329 3.027284 -2.653706 0
M  V30 45 H -3.331005 2.821300 -1.254150 0
M  V30 46 H -2.162949 3.140340 0.077193 0
M  V30 47 H -2.302559 4.324607 -1.227435 0
M  V30 48 H -1.647798 0.867040 -2.977339 0
M  V30 49 H -2.978367 0.549638 2.270012 0
M  V30 50 H -5.452771 -2.835007 2.406193 0
M  V30 51 H -3.914271 -3.263902 2.752249 0
M  V30 52 H -4.251820 -4.463826 -1.885222 0
M  V30 53 H -3.249684 -3.144439 -3.719988 0
M  V30 54 H -2.384733 -0.953033 -3.257295 0
M  V30 55 H 0.107297 0.316885 -0.758377 0
M  V30 56 H 3.902566 -3.118900 -1.143082 0
M  V30 57 H 4.783123 -5.205020 -0.191106 0
M  V30 END ATOM
M  V30 BEGIN BOND
M  V30 1 1 1 2
M  V30 2 1 2 3
M  V30 3 2 3 4
M  V30 4 1 4 5
M  V30 5 1 5 6
M  V30 6 2 6 7
M  V30 7 1 6 8
M  V30 8 1 8 9
M  V30 9 2 9 10
M  V30 10 1 10 11
M  V30 11 1 11 12
M  V30 12 1 12 13
M  V30 13 1 13 14
M  V30 14 1 14 15
M  V30 15 1 14 16
M  V30 16 1 16 17
M  V30 17 2 17 18
M  V30 18 1 18 19
M  V30 19 2 19 20
M  V30 20 1 20 21
M  V30 21 2 21 22
M  V30 22 1 22 23
M  V30 23 1 23 24
M  V30 24 2 23 25
M  V30 25 1 22 26
M  V30 26 2 26 27
M  V30 27 1 27 28
M  V30 28 2 28 29
M  V30 29 2 13 30
M  V30 30 2 5 31
M  V30 31 1 31 32
M  V30 32 2 32 33
M  V30 33 1 33 3
M  V30 34 1 30 9
M  V30 35 1 29 17
M  V30 36 1 29 21
M  V30 37 1 1 34
M  V30 38 1 1 35
M  V30 39 1 1 36
M  V30 40 1 4 37
M  V30 41 1 8 38
M  V30 42 1 10 39
M  V30 43 1 11 40
M  V30 44 1 11 41
M  V30 45 1 12 42
M  V30 46 1 12 43
M  V30 47 1 14 44
M  V30 48 1 15 45
M  V30 49 1 15 46
M  V30 50 1 15 47
M  V30 51 1 16 48
M  V30 52 1 19 49
M  V30 53 1 24 50
M  V30 54 1 24 51
M  V30 55 1 26 52
M  V30 56 1 27 53
M  V30 57 1 28 54
M  V30 58 1 30 55
M  V30 59 1 31 56
M  V30 60 1 32 57
M  V30 END BOND
M  V30 END CTAB
M  END
>  <Dataset>  (941) 
ChEMBL_Kinases

>  <Ligand_Instance>  (941) 
nan

>  <PDB_ID>  (941) 
nan

>  <Standardized_SMILES>  (941) 
COc1cc(C(=O)NC2=CCCC(C(C)Nc3ncnc4c(C(N)=O)cccc34)=C2)ccn1

>  <Name>  (941) 
nan

>  <Pocket>  (941) 
nan

>  <ATP_Site>  (941) 
nan

>  <Peripheral>  (941) 
nan

>  <Num_H_Atoms_ProtBoundConf>  (941) 
nan

>  <Num_Resolved_Atoms>  (941) 
nan

>  <Num_Not_Resolved_Atoms>  (941) 
nan

$$$$
CHEMBL3680500
     RDKit          3D

  0  0  0  0  0  0  0  0  0  0999 V3000
M  V30 BEGIN CTAB
M  V30 COUNTS 53 56 0 0 0
M  V30 BEGIN ATOM
M  V30 1 C 4.823380 -2.119752 6.426210 0
M  V30 2 N 5.141797 -2.751701 5.146767 0
M  V30 3 C 4.513372 -2.043667 4.058373 0
M  V30 4 C 5.086329 -0.873297 3.590831 0
M  V30 5 C 4.588426 -0.110056 2.556623 0
M  V30 6 C 3.425353 -0.564340 1.950656 0
M  V30 7 C 2.691847 0.087986 0.842729 0
M  V30 8 O 1.669595 -0.445595 0.287386 0
M  V30 9 N 2.982377 1.349794 0.247043 0
M  V30 10 C 1.959449 1.445188 -0.734647 0
M  V30 11 C 2.215098 1.052184 -2.041719 0
M  V30 12 C 1.181367 1.150562 -2.929880 0
M  V30 13 C -0.070979 1.607305 -2.601205 0
M  V30 14 C -0.364577 2.003655 -1.318263 0
M  V30 15 C -1.624295 2.487124 -0.653432 0
M  V30 16 N -2.283444 1.317765 -0.034800 0
M  V30 17 C -2.923052 0.303810 -0.790372 0
M  V30 18 N -3.015093 0.412114 -2.118904 0
M  V30 19 C -3.618926 -0.448629 -2.924648 0
M  V30 20 N -4.201270 -1.544400 -2.370499 0
M  V30 21 C -4.135632 -1.696669 -1.053838 0
M  V30 22 C -4.693506 -2.794780 -0.443124 0
M  V30 23 C -5.403695 -3.838159 -1.205673 0
M  V30 24 N -5.638103 -3.885984 -2.602341 0
M  V30 25 O -5.929964 -4.885165 -0.717825 0
M  V30 26 C -4.647387 -3.017724 0.912520 0
M  V30 27 C -4.014087 -2.111864 1.742582 0
M  V30 28 C -3.438502 -0.984823 1.142258 0
M  V30 29 C -3.511691 -0.810379 -0.197676 0
M  V30 30 C 0.701702 1.902662 -0.408382 0
M  V30 31 C 2.850254 -1.726324 2.407872 0
M  V30 32 N 3.374611 -2.440500 3.424497 0
M  V30 33 H 3.787371 -1.730929 6.460960 0
M  V30 34 H 5.078672 -2.772307 7.265734 0
M  V30 35 H 5.455906 -1.182314 6.429276 0
M  V30 36 H 5.752761 -3.606567 5.137770 0
M  V30 37 H 5.999799 -0.506936 4.058102 0
M  V30 38 H 4.978572 0.794253 2.154951 0
M  V30 39 H 3.797683 1.868450 0.631298 0
M  V30 40 H 3.179641 0.681762 -2.368049 0
M  V30 41 H 1.259746 0.869796 -3.989823 0
M  V30 42 H -0.914792 1.718148 -3.253874 0
M  V30 43 H -1.346403 3.210787 0.118634 0
M  V30 44 H -2.267316 2.929059 -1.431076 0
M  V30 45 H -2.228836 1.310968 1.007966 0
M  V30 46 H -3.682214 -0.334140 -4.018886 0
M  V30 47 H -6.563283 -3.762627 -3.062220 0
M  V30 48 H -4.910008 -4.052846 -3.334941 0
M  V30 49 H -5.089991 -3.887704 1.382731 0
M  V30 50 H -3.958232 -2.265443 2.822678 0
M  V30 51 H -2.961011 -0.317353 1.808643 0
M  V30 52 H 0.593998 2.184593 0.641746 0
M  V30 53 H 1.933247 -2.188971 2.016865 0
M  V30 END ATOM
M  V30 BEGIN BOND
M  V30 1 1 1 2
M  V30 2 1 2 3
M  V30 3 2 3 4
M  V30 4 1 4 5
M  V30 5 2 5 6
M  V30 6 1 6 7
M  V30 7 2 7 8
M  V30 8 1 7 9
M  V30 9 1 9 10
M  V30 10 2 10 11
M  V30 11 1 11 12
M  V30 12 2 12 13
M  V30 13 1 13 14
M  V30 14 1 14 15
M  V30 15 1 15 16
M  V30 16 1 16 17
M  V30 17 2 17 18
M  V30 18 1 18 19
M  V30 19 2 19 20
M  V30 20 1 20 21
M  V30 21 2 21 22
M  V30 22 1 22 23
M  V30 23 1 23 24
M  V30 24 2 23 25
M  V30 25 1 22 26
M  V30 26 2 26 27
M  V30 27 1 27 28
M  V30 28 2 28 29
M  V30 29 2 14 30
M  V30 30 1 6 31
M  V30 31 2 31 32
M  V30 32 1 32 3
M  V30 33 1 30 10
M  V30 34 1 29 17
M  V30 35 1 29 21
M  V30 36 1 1 33
M  V30 37 1 1 34
M  V30 38 1 1 35
M  V30 39 1 2 36
M  V30 40 1 4 37
M  V30 41 1 5 38
M  V30 42 1 9 39
M  V30 43 1 11 40
M  V30 44 1 12 41
M  V30 45 1 13 42
M  V30 46 1 15 43
M  V30 47 1 15 44
M  V30 48 1 16 45
M  V30 49 1 19 46
M  V30 50 1 24 47
M  V30 51 1 24 48
M  V30 52 1 26 49
M  V30 53 1 27 50
M  V30 54 1 28 51
M  V30 55 1 30 52
M  V30 56 1 31 53
M  V30 END BOND
M  V30 END CTAB
M  END
>  <Dataset>  (942) 
ChEMBL_Kinases

>  <Ligand_Instance>  (942) 
nan

>  <PDB_ID>  (942) 
nan

>  <Standardized_SMILES>  (942) 
CNc1ccc(C(=O)Nc2cccc(CNc3ncnc4c(C(N)=O)cccc34)c2)cn1

>  <Name>  (942) 
nan

>  <Pocket>  (942) 
nan

>  <ATP_Site>  (942) 
nan

>  <Peripheral>  (942) 
nan

>  <Num_H_Atoms_ProtBoundConf>  (942) 
nan

>  <Num_Resolved_Atoms>  (942) 
nan

>  <Num_Not_Resolved_Atoms>  (942) 
nan

$$$$
CHEMBL3680411
     RDKit          3D

  0  0  0  0  0  0  0  0  0  0999 V3000
M  V30 BEGIN CTAB
M  V30 COUNTS 63 66 0 0 0
M  V30 BEGIN ATOM
M  V30 1 C 2.449947 -1.311611 4.282773 0
M  V30 2 O 3.057894 -0.053077 4.113792 0
M  V30 3 C 3.783322 -0.110932 2.952304 0
M  V30 4 C 4.511728 1.150115 2.585775 0
M  V30 5 N 3.629108 2.292498 2.407268 0
M  V30 6 C 2.938284 2.907324 3.523359 0
M  V30 7 C 3.456212 2.743503 1.051903 0
M  V30 8 C 2.233635 2.346473 0.541898 0
M  V30 9 C 1.760976 2.599673 -0.755733 0
M  V30 10 C 0.412505 2.133951 -1.159429 0
M  V30 11 O 0.113729 1.871263 -2.344212 0
M  V30 12 N -0.600907 1.969354 -0.177138 0
M  V30 13 C -1.931457 1.507696 -0.344527 0
M  V30 14 C -2.787883 1.633880 0.749838 0
M  V30 15 C -4.081114 1.177550 0.779555 0
M  V30 16 C -4.599955 0.547724 -0.325162 0
M  V30 17 C -3.763682 0.418793 -1.406546 0
M  V30 18 C -4.141826 -0.355202 -2.645516 0
M  V30 19 N -3.352676 -1.601971 -2.481583 0
M  V30 20 C -3.304446 -2.475335 -1.369796 0
M  V30 21 N -4.061005 -2.144365 -0.309409 0
M  V30 22 C -4.036737 -2.917806 0.786947 0
M  V30 23 N -3.286533 -4.037742 0.910450 0
M  V30 24 C -2.531435 -4.360131 -0.158885 0
M  V30 25 C -1.715173 -5.468898 -0.155862 0
M  V30 26 C -1.663345 -6.302956 1.030445 0
M  V30 27 N -0.839118 -7.452798 1.127954 0
M  V30 28 O -2.328732 -6.099046 2.076826 0
M  V30 29 C -0.898266 -5.858758 -1.225728 0
M  V30 30 C -0.932310 -5.052711 -2.354906 0
M  V30 31 C -1.742324 -3.923272 -2.399364 0
M  V30 32 C -2.518455 -3.603369 -1.309649 0
M  V30 33 C -2.461424 0.875229 -1.451105 0
M  V30 34 C 2.610184 3.311301 -1.581282 0
M  V30 35 C 3.823481 3.699296 -1.054596 0
M  V30 36 N 4.250835 3.440190 0.200379 0
M  V30 37 H 3.255380 -2.064038 4.349284 0
M  V30 38 H 1.855189 -1.517654 3.352725 0
M  V30 39 H 1.743408 -1.330843 5.129299 0
M  V30 40 H 3.195744 -0.521685 2.085250 0
M  V30 41 H 4.567066 -0.906709 3.117890 0
M  V30 42 H 5.115041 0.940110 1.683415 0
M  V30 43 H 5.154128 1.411591 3.464929 0
M  V30 44 H 3.502411 2.751296 4.447266 0
M  V30 45 H 1.910013 2.475753 3.648717 0
M  V30 46 H 2.771581 3.988788 3.404186 0
M  V30 47 H 1.541347 1.776385 1.147056 0
M  V30 48 H -0.309544 2.237691 0.791084 0
M  V30 49 H -2.468992 2.121112 1.687360 0
M  V30 50 H -4.719398 1.291901 1.638489 0
M  V30 51 H -5.607138 0.159053 -0.392897 0
M  V30 52 H -3.857250 0.164948 -3.548397 0
M  V30 53 H -5.222911 -0.564236 -2.539551 0
M  V30 54 H -2.784335 -1.797761 -3.329604 0
M  V30 55 H -4.644709 -2.667887 1.662130 0
M  V30 56 H -0.937126 -8.481685 1.073453 0
M  V30 57 H 0.106308 -7.018136 1.309503 0
M  V30 58 H -0.275553 -6.718710 -1.205942 0
M  V30 59 H -0.302847 -5.324043 -3.219271 0
M  V30 60 H -1.685192 -3.383730 -3.317543 0
M  V30 61 H -1.844074 0.758490 -2.302726 0
M  V30 62 H 2.300340 3.533143 -2.590169 0
M  V30 63 H 4.532611 4.258457 -1.636678 0
M  V30 END ATOM
M  V30 BEGIN BOND
M  V30 1 1 1 2
M  V30 2 1 2 3
M  V30 3 1 3 4
M  V30 4 1 4 5
M  V30 5 1 5 6
M  V30 6 1 5 7
M  V30 7 2 7 8
M  V30 8 1 8 9
M  V30 9 1 9 10
M  V30 10 2 10 11
M  V30 11 1 10 12
M  V30 12 1 12 13
M  V30 13 2 13 14
M  V30 14 1 14 15
M  V30 15 2 15 16
M  V30 16 1 16 17
M  V30 17 1 17 18
M  V30 18 1 18 19
M  V30 19 1 19 20
M  V30 20 2 20 21
M  V30 21 1 21 22
M  V30 22 2 22 23
M  V30 23 1 23 24
M  V30 24 2 24 25
M  V30 25 1 25 26
M  V30 26 1 26 27
M  V30 27 2 26 28
M  V30 28 1 25 29
M  V30 29 2 29 30
M  V30 30 1 30 31
M  V30 31 2 31 32
M  V30 32 2 17 33
M  V30 33 2 9 34
M  V30 34 1 34 35
M  V30 35 2 35 36
M  V30 36 1 36 7
M  V30 37 1 33 13
M  V30 38 1 32 20
M  V30 39 1 32 24
M  V30 40 1 1 37
M  V30 41 1 1 38
M  V30 42 1 1 39
M  V30 43 1 3 40
M  V30 44 1 3 41
M  V30 45 1 4 42
M  V30 46 1 4 43
M  V30 47 1 6 44
M  V30 48 1 6 45
M  V30 49 1 6 46
M  V30 50 1 8 47
M  V30 51 1 12 48
M  V30 52 1 14 49
M  V30 53 1 15 50
M  V30 54 1 16 51
M  V30 55 1 18 52
M  V30 56 1 18 53
M  V30 57 1 19 54
M  V30 58 1 22 55
M  V30 59 1 27 56
M  V30 60 1 27 57
M  V30 61 1 29 58
M  V30 62 1 30 59
M  V30 63 1 31 60
M  V30 64 1 33 61
M  V30 65 1 34 62
M  V30 66 1 35 63
M  V30 END BOND
M  V30 END CTAB
M  END
>  <Dataset>  (943) 
ChEMBL_Kinases

>  <Ligand_Instance>  (943) 
nan

>  <PDB_ID>  (943) 
nan

>  <Standardized_SMILES>  (943) 
COCCN(C)c1cc(C(=O)Nc2cccc(CNc3ncnc4c(C(N)=O)cccc34)c2)ccn1

>  <Name>  (943) 
nan

>  <Pocket>  (943) 
nan

>  <ATP_Site>  (943) 
nan

>  <Peripheral>  (943) 
nan

>  <Num_H_Atoms_ProtBoundConf>  (943) 
nan

>  <Num_Resolved_Atoms>  (943) 
nan

>  <Num_Not_Resolved_Atoms>  (943) 
nan

$$$$
CHEMBL3728445
     RDKit          3D

  0  0  0  0  0  0  0  0  0  0999 V3000
M  V30 BEGIN CTAB
M  V30 COUNTS 33 34 0 0 0
M  V30 BEGIN ATOM
M  V30 1 O -0.381219 0.400111 2.991774 0
M  V30 2 C 0.585789 0.175733 2.182195 0
M  V30 3 C 1.706940 -0.330447 2.968594 0
M  V30 4 N 2.895983 -0.659265 2.249847 0
M  V30 5 C 2.955237 -1.690259 1.275174 0
M  V30 6 C 1.897482 -2.495392 0.914016 0
M  V30 7 C 1.964519 -3.489071 -0.029032 0
M  V30 8 C 3.157646 -3.717327 -0.672406 0
M  V30 9 C 4.275587 -2.948159 -0.366305 0
M  V30 10 Cl 5.809427 -3.219123 -1.172698 0
M  V30 11 C 4.120708 -1.970150 0.594085 0
M  V30 12 N 0.373130 0.447109 0.807746 0
M  V30 13 N -0.873154 0.941614 0.396656 0
M  V30 14 C -1.893594 0.191505 0.156981 0
M  V30 15 C -3.152302 0.797416 -0.267136 0
M  V30 16 C -4.247575 -0.014503 -0.523668 0
M  V30 17 C -5.440647 0.562177 -0.925935 0
M  V30 18 N -5.538279 1.895499 -1.066974 0
M  V30 19 C -4.466230 2.670320 -0.814212 0
M  V30 20 C -3.259306 2.150421 -0.412610 0
M  V30 21 H 1.369533 -1.294748 3.453481 0
M  V30 22 H 1.945751 0.319468 3.855974 0
M  V30 23 H 3.763209 -0.122501 2.444148 0
M  V30 24 H 0.942114 -2.337705 1.405965 0
M  V30 25 H 1.083583 -4.076363 -0.252850 0
M  V30 26 H 3.257082 -4.495697 -1.428121 0
M  V30 27 H 5.023084 -1.398126 0.796007 0
M  V30 28 H 1.241014 0.225369 0.265522 0
M  V30 29 H -1.803878 -0.878819 0.273400 0
M  V30 30 H -4.151065 -1.100992 -0.403687 0
M  V30 31 H -6.309967 -0.057512 -1.131625 0
M  V30 32 H -4.523300 3.748726 -0.921805 0
M  V30 33 H -2.386324 2.788620 -0.207394 0
M  V30 END ATOM
M  V30 BEGIN BOND
M  V30 1 2 1 2
M  V30 2 1 2 3
M  V30 3 1 3 4
M  V30 4 1 4 5
M  V30 5 2 5 6
M  V30 6 1 6 7
M  V30 7 2 7 8
M  V30 8 1 8 9
M  V30 9 1 9 10
M  V30 10 2 9 11
M  V30 11 1 2 12
M  V30 12 1 12 13
M  V30 13 2 13 14
M  V30 14 1 14 15
M  V30 15 2 15 16
M  V30 16 1 16 17
M  V30 17 2 17 18
M  V30 18 1 18 19
M  V30 19 2 19 20
M  V30 20 1 11 5
M  V30 21 1 20 15
M  V30 22 1 3 21
M  V30 23 1 3 22
M  V30 24 1 4 23
M  V30 25 1 6 24
M  V30 26 1 7 25
M  V30 27 1 8 26
M  V30 28 1 11 27
M  V30 29 1 12 28
M  V30 30 1 14 29
M  V30 31 1 16 30
M  V30 32 1 17 31
M  V30 33 1 19 32
M  V30 34 1 20 33
M  V30 END BOND
M  V30 END CTAB
M  END
>  <Dataset>  (944) 
ChEMBL_Kinases

>  <Ligand_Instance>  (944) 
nan

>  <PDB_ID>  (944) 
nan

>  <Standardized_SMILES>  (944) 
O=C(CNc1cccc(Cl)c1)N/N=C/c1ccncc1

>  <Name>  (944) 
nan

>  <Pocket>  (944) 
nan

>  <ATP_Site>  (944) 
nan

>  <Peripheral>  (944) 
nan

>  <Num_H_Atoms_ProtBoundConf>  (944) 
nan

>  <Num_Resolved_Atoms>  (944) 
nan

>  <Num_Not_Resolved_Atoms>  (944) 
nan

$$$$
CHEMBL3675441
     RDKit          3D

  0  0  0  0  0  0  0  0  0  0999 V3000
M  V30 BEGIN CTAB
M  V30 COUNTS 49 52 0 0 0
M  V30 BEGIN ATOM
M  V30 1 N -6.165284 0.160762 0.911266 0
M  V30 2 C -6.729190 0.537904 -0.353717 0
M  V30 3 O -7.913938 0.955256 -0.438800 0
M  V30 4 C -5.919905 0.437535 -1.562796 0
M  V30 5 C -6.493230 0.808108 -2.761191 0
M  V30 6 C -5.701229 0.705047 -3.911077 0
M  V30 7 C -4.406381 0.244960 -3.790298 0
M  V30 8 C -3.821137 -0.125915 -2.617797 0
M  V30 9 C -2.518351 -0.575609 -2.586741 0
M  V30 10 N -1.707487 -0.689466 -3.724314 0
M  V30 11 C -0.344582 -1.150752 -3.744744 0
M  V30 12 C 0.603139 -0.344979 -2.971278 0
M  V30 13 C 1.163098 0.748932 -3.643080 0
M  V30 14 C 2.079115 1.623086 -3.097120 0
M  V30 15 C 2.484734 1.423779 -1.801567 0
M  V30 16 C 1.961823 0.361746 -1.102029 0
M  V30 17 N 2.352208 0.111948 0.249091 0
M  V30 18 C 3.476899 -0.739321 0.408687 0
M  V30 19 O 3.880762 -1.088043 -0.754881 0
M  V30 20 C 4.104931 -1.174214 1.645305 0
M  V30 21 C 5.200131 -2.014918 1.464561 0
M  V30 22 C 5.897723 -2.508324 2.544650 0
M  V30 23 C 5.571148 -2.213846 3.842251 0
M  V30 24 F 6.208308 -2.660242 4.949980 0
M  V30 25 C 4.488031 -1.382309 4.023954 0
M  V30 26 C 3.792540 -0.890290 2.949956 0
M  V30 27 F 2.731948 -0.076758 3.108216 0
M  V30 28 C 1.047280 -0.496043 -1.674506 0
M  V30 29 N -2.086005 -0.902124 -1.359840 0
M  V30 30 C -2.846594 -0.802524 -0.259787 0
M  V30 31 N -4.136209 -0.356573 -0.296077 0
M  V30 32 C -4.620525 -0.015292 -1.502452 0
M  V30 33 H -5.803477 0.669375 1.732824 0
M  V30 34 H -5.940459 -0.743781 1.405629 0
M  V30 35 H -7.506634 1.158765 -2.791017 0
M  V30 36 H -6.193915 1.005444 -4.817004 0
M  V30 37 H -3.901017 0.207917 -4.720847 0
M  V30 38 H -2.058041 -0.434274 -4.671322 0
M  V30 39 H -0.305808 -2.213062 -3.343933 0
M  V30 40 H 0.056868 -1.237911 -4.771128 0
M  V30 41 H 0.883072 0.968846 -4.685365 0
M  V30 42 H 2.473786 2.449785 -3.670686 0
M  V30 43 H 3.196903 2.054192 -1.288222 0
M  V30 44 H 1.902195 0.485105 1.108247 0
M  V30 45 H 5.550434 -2.316406 0.481277 0
M  V30 46 H 6.743179 -3.158081 2.383475 0
M  V30 47 H 4.130899 -1.076032 4.995789 0
M  V30 48 H 0.626829 -1.341446 -1.150305 0
M  V30 49 H -2.341079 -1.106226 0.638792 0
M  V30 END ATOM
M  V30 BEGIN BOND
M  V30 1 1 1 2
M  V30 2 2 2 3
M  V30 3 1 2 4
M  V30 4 2 4 5
M  V30 5 1 5 6
M  V30 6 2 6 7
M  V30 7 1 7 8
M  V30 8 2 8 9
M  V30 9 1 9 10
M  V30 10 1 10 11
M  V30 11 1 11 12
M  V30 12 2 12 13
M  V30 13 1 13 14
M  V30 14 2 14 15
M  V30 15 1 15 16
M  V30 16 1 16 17
M  V30 17 1 17 18
M  V30 18 2 18 19
M  V30 19 1 18 20
M  V30 20 2 20 21
M  V30 21 1 21 22
M  V30 22 2 22 23
M  V30 23 1 23 24
M  V30 24 1 23 25
M  V30 25 2 25 26
M  V30 26 1 26 27
M  V30 27 2 16 28
M  V30 28 1 9 29
M  V30 29 2 29 30
M  V30 30 1 30 31
M  V30 31 2 31 32
M  V30 32 1 32 4
M  V30 33 1 32 8
M  V30 34 1 28 12
M  V30 35 1 26 20
M  V30 36 1 1 33
M  V30 37 1 1 34
M  V30 38 1 5 35
M  V30 39 1 6 36
M  V30 40 1 7 37
M  V30 41 1 10 38
M  V30 42 1 11 39
M  V30 43 1 11 40
M  V30 44 1 13 41
M  V30 45 1 14 42
M  V30 46 1 15 43
M  V30 47 1 17 44
M  V30 48 1 21 45
M  V30 49 1 22 46
M  V30 50 1 25 47
M  V30 51 1 28 48
M  V30 52 1 30 49
M  V30 END BOND
M  V30 END CTAB
M  END
>  <Dataset>  (945) 
ChEMBL_Kinases

>  <Ligand_Instance>  (945) 
nan

>  <PDB_ID>  (945) 
nan

>  <Standardized_SMILES>  (945) 
NC(=O)c1cccc2c(NCc3cccc(NC(=O)c4ccc(F)cc4F)c3)ncnc12

>  <Name>  (945) 
nan

>  <Pocket>  (945) 
nan

>  <ATP_Site>  (945) 
nan

>  <Peripheral>  (945) 
nan

>  <Num_H_Atoms_ProtBoundConf>  (945) 
nan

>  <Num_Resolved_Atoms>  (945) 
nan

>  <Num_Not_Resolved_Atoms>  (945) 
nan

$$$$
CHEMBL3675442
     RDKit          3D

  0  0  0  0  0  0  0  0  0  0999 V3000
M  V30 BEGIN CTAB
M  V30 COUNTS 46 48 0 0 0
M  V30 BEGIN ATOM
M  V30 1 C 0.812798 -5.017947 -0.216353 0
M  V30 2 N 0.437174 -3.607078 0.121329 0
M  V30 3 C 1.248927 -2.860091 -0.878340 0
M  V30 4 C 0.922028 -3.299505 1.419641 0
M  V30 5 C 0.445093 -2.074790 2.112433 0 CFG=1
M  V30 6 N 0.648479 -0.815294 1.516379 0
M  V30 7 C 0.387094 0.131265 0.491073 0
M  V30 8 N -0.472259 -0.134009 -0.493082 0
M  V30 9 C -0.835437 0.629224 -1.512499 0
M  V30 10 N -0.257188 1.824550 -1.551677 0
M  V30 11 C 0.622368 2.224055 -0.633083 0
M  V30 12 C 1.227969 3.460233 -0.662914 0
M  V30 13 C 0.796609 4.256147 -1.801115 0
M  V30 14 N 1.348278 5.552329 -1.927823 0
M  V30 15 O 0.245075 4.634622 -2.819419 0
M  V30 16 C 2.142604 3.953498 0.238675 0
M  V30 17 C 2.433047 3.061915 1.247720 0
M  V30 18 C 1.854409 1.814140 1.322195 0
M  V30 19 C 0.948017 1.382248 0.389493 0
M  V30 20 C -0.998520 -2.233055 2.551682 0
M  V30 21 C -1.284100 -2.564432 3.886618 0
M  V30 22 C -2.527885 -2.760879 4.438315 0
M  V30 23 C -3.596412 -2.616376 3.591786 0
M  V30 24 C -3.422982 -2.292299 2.261954 0
M  V30 25 C -2.145416 -2.120086 1.816773 0
M  V30 26 H 0.292402 -5.211929 -1.168828 0
M  V30 27 H 1.895404 -5.048288 -0.392600 0
M  V30 28 H 0.442697 -5.706931 0.559345 0
M  V30 29 H 0.570916 -2.418811 -1.607924 0
M  V30 30 H 1.868975 -2.112034 -0.393024 0
M  V30 31 H 1.946080 -3.538293 -1.423218 0
M  V30 32 H 0.771948 -4.224019 2.044908 0
M  V30 33 H 2.047517 -3.219568 1.362693 0
M  V30 34 H 1.026310 -2.113807 3.116416 0
M  V30 35 H 1.336993 -0.375765 2.160151 0
M  V30 36 H -1.549109 0.309723 -2.259850 0
M  V30 37 H 1.752621 6.500086 -2.023790 0
M  V30 38 H 1.627019 6.490787 -1.619849 0
M  V30 39 H 2.547454 4.946098 0.102178 0
M  V30 40 H 3.153111 3.419667 1.979348 0
M  V30 41 H 2.189000 1.245578 2.166592 0
M  V30 42 H -0.463122 -2.693034 4.608796 0
M  V30 43 H -2.667222 -3.014358 5.474686 0
M  V30 44 H -4.611681 -2.751300 3.935837 0
M  V30 45 H -4.248075 -2.173576 1.576943 0
M  V30 46 H -2.020713 -1.885080 0.779333 0
M  V30 END ATOM
M  V30 BEGIN BOND
M  V30 1 1 1 2
M  V30 2 1 2 3
M  V30 3 1 2 4
M  V30 4 1 4 5
M  V30 5 1 5 6
M  V30 6 1 6 7
M  V30 7 2 7 8
M  V30 8 1 8 9
M  V30 9 2 9 10
M  V30 10 1 10 11
M  V30 11 2 11 12
M  V30 12 1 12 13
M  V30 13 1 13 14
M  V30 14 2 13 15
M  V30 15 1 12 16
M  V30 16 2 16 17
M  V30 17 1 17 18
M  V30 18 2 18 19
M  V30 19 1 5 20
M  V30 20 2 20 21
M  V30 21 1 21 22
M  V30 22 2 22 23
M  V30 23 1 23 24
M  V30 24 2 24 25
M  V30 25 1 19 7
M  V30 26 1 25 20
M  V30 27 1 19 11
M  V30 28 1 1 26
M  V30 29 1 1 27
M  V30 30 1 1 28
M  V30 31 1 3 29
M  V30 32 1 3 30
M  V30 33 1 3 31
M  V30 34 1 4 32
M  V30 35 1 4 33
M  V30 36 1 5 34 CFG=1
M  V30 37 1 6 35
M  V30 38 1 9 36
M  V30 39 1 14 37
M  V30 40 1 14 38
M  V30 41 1 16 39
M  V30 42 1 17 40
M  V30 43 1 18 41
M  V30 44 1 21 42
M  V30 45 1 22 43
M  V30 46 1 23 44
M  V30 47 1 24 45
M  V30 48 1 25 46
M  V30 END BOND
M  V30 END CTAB
M  END
>  <Dataset>  (946) 
ChEMBL_Kinases

>  <Ligand_Instance>  (946) 
nan

>  <PDB_ID>  (946) 
nan

>  <Standardized_SMILES>  (946) 
CN(C)C[C@@H](Nc1ncnc2c(C(N)=O)cccc12)c1ccccc1

>  <Name>  (946) 
nan

>  <Pocket>  (946) 
nan

>  <ATP_Site>  (946) 
nan

>  <Peripheral>  (946) 
nan

>  <Num_H_Atoms_ProtBoundConf>  (946) 
nan

>  <Num_Resolved_Atoms>  (946) 
nan

>  <Num_Not_Resolved_Atoms>  (946) 
nan

$$$$
CHEMBL3675444
     RDKit          3D

  0  0  0  0  0  0  0  0  0  0999 V3000
M  V30 BEGIN CTAB
M  V30 COUNTS 53 56 0 0 0
M  V30 BEGIN ATOM
M  V30 1 C -0.340004 0.211963 4.703608 0
M  V30 2 C -1.162116 0.872706 3.617977 0
M  V30 3 N -0.336931 1.659385 2.744743 0
M  V30 4 C 0.917950 1.218965 2.204162 0
M  V30 5 N 1.498085 0.042528 2.472787 0
M  V30 6 C 2.664721 -0.348530 1.990945 0
M  V30 7 N 3.394408 0.415669 1.167455 0
M  V30 8 C 2.886080 1.622866 0.840731 0
M  V30 9 C 3.616206 2.417417 0.000888 0
M  V30 10 C 4.914758 1.944048 -0.515538 0
M  V30 11 N 5.401671 0.657113 -0.133739 0
M  V30 12 O 5.602753 2.666559 -1.293955 0
M  V30 13 C 3.173327 3.659642 -0.382756 0
M  V30 14 C 1.946049 4.081081 0.118837 0
M  V30 15 C 1.250183 3.243132 0.961089 0
M  V30 16 C 1.673344 1.999427 1.357129 0
M  V30 17 C -2.021043 -0.130601 2.972819 0
M  V30 18 C -3.326934 -0.302617 3.464369 0
M  V30 19 C -4.291116 -1.173105 3.005965 0
M  V30 20 C -3.938686 -1.972549 1.938955 0
M  V30 21 C -2.677950 -1.874039 1.389653 0
M  V30 22 N -2.285789 -2.686150 0.288173 0
M  V30 23 C -2.398958 -2.435991 -1.093569 0
M  V30 24 O -2.898678 -1.383710 -1.546392 0
M  V30 25 C -1.927670 -3.415412 -2.066762 0
M  V30 26 C -2.056664 -3.126524 -3.411553 0
M  V30 27 C -1.643968 -3.982437 -4.426851 0
M  V30 28 C -1.071672 -5.192236 -4.053617 0
M  V30 29 F -0.626724 -6.117671 -4.955403 0
M  V30 30 C -0.926858 -5.514205 -2.731452 0
M  V30 31 O -0.356646 -6.720609 -2.293486 0
M  V30 32 C -1.355694 -4.623604 -1.770697 0
M  V30 33 C -1.782206 -0.973815 1.916378 0
M  V30 34 H -1.019661 -0.084343 5.525693 0
M  V30 35 H 0.468499 0.877725 5.069724 0
M  V30 36 H 0.140585 -0.736000 4.347400 0
M  V30 37 H -1.854742 1.578636 4.182897 0
M  V30 38 H -0.705870 2.586672 2.517245 0
M  V30 39 H 3.015745 -1.327521 2.291699 0
M  V30 40 H 4.914849 0.144718 -0.900921 0
M  V30 41 H 6.025505 0.312621 0.634980 0
M  V30 42 H 3.762027 4.262145 -1.040191 0
M  V30 43 H 1.611969 5.059087 -0.191825 0
M  V30 44 H 0.317561 3.676145 1.283192 0
M  V30 45 H -3.643303 0.320095 4.317823 0
M  V30 46 H -5.264968 -1.214373 3.468593 0
M  V30 47 H -4.630999 -2.680492 1.518508 0
M  V30 48 H -1.871867 -3.557793 0.687188 0
M  V30 49 H -2.495283 -2.197801 -3.806058 0
M  V30 50 H -1.745096 -3.755822 -5.471617 0
M  V30 51 H -0.894156 -7.213920 -1.581376 0
M  V30 52 H -1.239601 -4.881330 -0.728429 0
M  V30 53 H -0.818356 -0.921129 1.462182 0
M  V30 END ATOM
M  V30 BEGIN BOND
M  V30 1 1 1 2
M  V30 2 1 2 3
M  V30 3 1 3 4
M  V30 4 2 4 5
M  V30 5 1 5 6
M  V30 6 2 6 7
M  V30 7 1 7 8
M  V30 8 2 8 9
M  V30 9 1 9 10
M  V30 10 1 10 11
M  V30 11 2 10 12
M  V30 12 1 9 13
M  V30 13 2 13 14
M  V30 14 1 14 15
M  V30 15 2 15 16
M  V30 16 1 2 17
M  V30 17 2 17 18
M  V30 18 1 18 19
M  V30 19 2 19 20
M  V30 20 1 20 21
M  V30 21 1 21 22
M  V30 22 1 22 23
M  V30 23 2 23 24
M  V30 24 1 23 25
M  V30 25 2 25 26
M  V30 26 1 26 27
M  V30 27 2 27 28
M  V30 28 1 28 29
M  V30 29 1 28 30
M  V30 30 1 30 31
M  V30 31 2 30 32
M  V30 32 2 21 33
M  V30 33 1 16 4
M  V30 34 1 33 17
M  V30 35 1 16 8
M  V30 36 1 32 25
M  V30 37 1 1 34
M  V30 38 1 1 35
M  V30 39 1 1 36
M  V30 40 1 2 37
M  V30 41 1 3 38
M  V30 42 1 6 39
M  V30 43 1 11 40
M  V30 44 1 11 41
M  V30 45 1 13 42
M  V30 46 1 14 43
M  V30 47 1 15 44
M  V30 48 1 18 45
M  V30 49 1 19 46
M  V30 50 1 20 47
M  V30 51 1 22 48
M  V30 52 1 26 49
M  V30 53 1 27 50
M  V30 54 1 31 51
M  V30 55 1 32 52
M  V30 56 1 33 53
M  V30 END BOND
M  V30 END CTAB
M  END
>  <Dataset>  (947) 
ChEMBL_Kinases

>  <Ligand_Instance>  (947) 
nan

>  <PDB_ID>  (947) 
nan

>  <Standardized_SMILES>  (947) 
CC(Nc1ncnc2c(C(N)=O)cccc12)c1cccc(NC(=O)c2ccc(F)c(O)c2)c1

>  <Name>  (947) 
nan

>  <Pocket>  (947) 
nan

>  <ATP_Site>  (947) 
nan

>  <Peripheral>  (947) 
nan

>  <Num_H_Atoms_ProtBoundConf>  (947) 
nan

>  <Num_Resolved_Atoms>  (947) 
nan

>  <Num_Not_Resolved_Atoms>  (947) 
nan

$$$$
CHEMBL3675445
     RDKit          3D

  0  0  0  0  0  0  0  0  0  0999 V3000
M  V30 BEGIN CTAB
M  V30 COUNTS 63 66 0 0 0
M  V30 BEGIN ATOM
M  V30 1 C -2.122577 -3.442788 2.538439 0
M  V30 2 N -2.999006 -4.076690 1.541222 0
M  V30 3 C -2.693545 -5.510946 1.663735 0
M  V30 4 C -2.520533 -3.684007 0.202408 0
M  V30 5 C -2.737911 -2.230830 -0.048794 0
M  V30 6 C -2.282283 -1.708751 -1.366663 0
M  V30 7 N -2.643633 -0.277060 -1.431296 0
M  V30 8 C -2.049082 0.656676 -0.549414 0
M  V30 9 N -1.129731 0.314943 0.367639 0
M  V30 10 C -0.537177 1.157020 1.211864 0
M  V30 11 N -0.841531 2.462645 1.192721 0
M  V30 12 C -1.755380 2.913706 0.307947 0
M  V30 13 C -2.072234 4.250282 0.288236 0
M  V30 14 C -1.375235 5.127572 1.251751 0
M  V30 15 N -1.646477 6.513938 1.346417 0
M  V30 16 O -0.513083 4.657618 2.020910 0
M  V30 17 C -2.997520 4.751143 -0.591598 0
M  V30 18 C -3.596444 3.833706 -1.461122 0
M  V30 19 C -3.271507 2.494364 -1.433230 0
M  V30 20 C -2.340633 2.003087 -0.544877 0
M  V30 21 C -0.793394 -1.676371 -1.545444 0
M  V30 22 C -0.532492 -1.243820 -2.858050 0
M  V30 23 C 0.759059 -1.095352 -3.315802 0
M  V30 24 C 1.840945 -1.364091 -2.507655 0
M  V30 25 C 1.600923 -1.788753 -1.217531 0
M  V30 26 N 2.559060 -2.124222 -0.224548 0
M  V30 27 C 3.218927 -1.363760 0.767506 0
M  V30 28 O 2.838490 -0.167720 0.700975 0
M  V30 29 C 4.180556 -1.916900 1.699006 0
M  V30 30 C 4.711392 -0.936379 2.547830 0
M  V30 31 C 5.646629 -1.256101 3.506210 0
M  V30 32 C 6.102405 -2.539550 3.677452 0
M  V30 33 F 7.020204 -2.922657 4.600032 0
M  V30 34 C 5.591837 -3.516367 2.852145 0
M  V30 35 C 4.658871 -3.189242 1.898172 0
M  V30 36 F 4.123656 -4.104177 1.062945 0
M  V30 37 C 0.310870 -1.931887 -0.773787 0
M  V30 38 H -1.068657 -3.599096 2.237697 0
M  V30 39 H -2.252294 -3.959091 3.517966 0
M  V30 40 H -2.400886 -2.382024 2.681373 0
M  V30 41 H -1.604866 -5.599473 1.438973 0
M  V30 42 H -2.819450 -5.781191 2.735844 0
M  V30 43 H -3.310633 -6.104175 0.976317 0
M  V30 44 H -1.458566 -3.931809 0.171264 0
M  V30 45 H -3.130870 -4.321731 -0.484124 0
M  V30 46 H -2.403602 -1.591633 0.800095 0
M  V30 47 H -3.864220 -2.087820 -0.043024 0
M  V30 48 H -2.735296 -2.279485 -2.201983 0
M  V30 49 H -3.344557 -0.057253 -2.159262 0
M  V30 50 H 0.200382 0.823341 1.933039 0
M  V30 51 H -1.848244 7.376623 0.831229 0
M  V30 52 H -1.787255 6.941397 0.391797 0
M  V30 53 H -3.221527 5.811788 -0.577944 0
M  V30 54 H -4.328055 4.215574 -2.159876 0
M  V30 55 H -3.790731 1.870769 -2.145219 0
M  V30 56 H -1.242641 -0.979812 -3.654479 0
M  V30 57 H 1.048762 -0.767520 -4.309926 0
M  V30 58 H 2.889256 -1.283223 -2.758734 0
M  V30 59 H 2.721881 -3.142706 -0.355358 0
M  V30 60 H 4.437598 0.129557 2.522087 0
M  V30 61 H 6.060803 -0.505476 4.162969 0
M  V30 62 H 5.863973 -4.563872 2.881212 0
M  V30 63 H 0.021815 -2.232505 0.212609 0
M  V30 END ATOM
M  V30 BEGIN BOND
M  V30 1 1 1 2
M  V30 2 1 2 3
M  V30 3 1 2 4
M  V30 4 1 4 5
M  V30 5 1 5 6
M  V30 6 1 6 7
M  V30 7 1 7 8
M  V30 8 2 8 9
M  V30 9 1 9 10
M  V30 10 2 10 11
M  V30 11 1 11 12
M  V30 12 2 12 13
M  V30 13 1 13 14
M  V30 14 1 14 15
M  V30 15 2 14 16
M  V30 16 1 13 17
M  V30 17 2 17 18
M  V30 18 1 18 19
M  V30 19 2 19 20
M  V30 20 1 6 21
M  V30 21 2 21 22
M  V30 22 1 22 23
M  V30 23 2 23 24
M  V30 24 1 24 25
M  V30 25 1 25 26
M  V30 26 1 26 27
M  V30 27 2 27 28
M  V30 28 1 27 29
M  V30 29 2 29 30
M  V30 30 1 30 31
M  V30 31 2 31 32
M  V30 32 1 32 33
M  V30 33 1 32 34
M  V30 34 2 34 35
M  V30 35 1 35 36
M  V30 36 2 25 37
M  V30 37 1 20 8
M  V30 38 1 37 21
M  V30 39 1 20 12
M  V30 40 1 35 29
M  V30 41 1 1 38
M  V30 42 1 1 39
M  V30 43 1 1 40
M  V30 44 1 3 41
M  V30 45 1 3 42
M  V30 46 1 3 43
M  V30 47 1 4 44
M  V30 48 1 4 45
M  V30 49 1 5 46
M  V30 50 1 5 47
M  V30 51 1 6 48
M  V30 52 1 7 49
M  V30 53 1 10 50
M  V30 54 1 15 51
M  V30 55 1 15 52
M  V30 56 1 17 53
M  V30 57 1 18 54
M  V30 58 1 19 55
M  V30 59 1 22 56
M  V30 60 1 23 57
M  V30 61 1 24 58
M  V30 62 1 26 59
M  V30 63 1 30 60
M  V30 64 1 31 61
M  V30 65 1 34 62
M  V30 66 1 37 63
M  V30 END BOND
M  V30 END CTAB
M  END
>  <Dataset>  (948) 
ChEMBL_Kinases

>  <Ligand_Instance>  (948) 
nan

>  <PDB_ID>  (948) 
nan

>  <Standardized_SMILES>  (948) 
CN(C)CCC(Nc1ncnc2c(C(N)=O)cccc12)c1cccc(NC(=O)c2ccc(F)cc2F)c1

>  <Name>  (948) 
nan

>  <Pocket>  (948) 
nan

>  <ATP_Site>  (948) 
nan

>  <Peripheral>  (948) 
nan

>  <Num_H_Atoms_ProtBoundConf>  (948) 
nan

>  <Num_Resolved_Atoms>  (948) 
nan

>  <Num_Not_Resolved_Atoms>  (948) 
nan

$$$$
CHEMBL3675446
     RDKit          3D

  0  0  0  0  0  0  0  0  0  0999 V3000
M  V30 BEGIN CTAB
M  V30 COUNTS 49 52 0 0 0
M  V30 BEGIN ATOM
M  V30 1 N 3.180569 -4.837526 3.710894 0
M  V30 2 C 4.434503 -4.509677 3.121587 0
M  V30 3 O 5.482883 -5.028264 3.585874 0
M  V30 4 C 4.546285 -3.588904 1.992658 0
M  V30 5 C 5.813574 -3.338972 1.509295 0
M  V30 6 C 5.923171 -2.464499 0.436095 0
M  V30 7 C 4.781581 -1.897697 -0.086336 0
M  V30 8 C 3.514653 -2.126718 0.371556 0
M  V30 9 C 2.415398 -1.524989 -0.199972 0
M  V30 10 N 2.522048 -0.632022 -1.296655 0
M  V30 11 C 1.410813 0.037089 -1.946578 0
M  V30 12 C 0.643851 0.929230 -1.044602 0
M  V30 13 C 1.094688 2.234572 -0.874318 0
M  V30 14 C 0.438174 3.141191 -0.063302 0
M  V30 15 C -0.705751 2.789526 0.621342 0
M  V30 16 C -1.176953 1.478864 0.463474 0
M  V30 17 N -2.365181 1.057789 1.153012 0
M  V30 18 C -3.507618 1.324024 0.316229 0
M  V30 19 O -3.170678 1.845974 -0.779152 0
M  V30 20 C -4.866711 0.994881 0.764066 0
M  V30 21 C -5.524474 1.525032 1.854234 0
M  V30 22 C -6.804181 1.122971 2.160218 0
M  V30 23 C -7.414952 0.178132 1.352909 0
M  V30 24 Cl -9.053397 -0.328469 1.755638 0
M  V30 25 C -6.781629 -0.356800 0.272122 0
M  V30 26 C -5.496948 0.040660 -0.042834 0
M  V30 27 Cl -4.736317 -0.693074 -1.457309 0
M  V30 28 C -0.484819 0.646506 -0.345335 0
M  V30 29 N 1.253508 -1.862423 0.373227 0
M  V30 30 C 1.150351 -2.707980 1.410687 0
M  V30 31 N 2.233753 -3.296896 1.969066 0
M  V30 32 C 3.434525 -2.997317 1.435980 0
M  V30 33 H 2.950801 -4.745097 4.725797 0
M  V30 34 H 2.251187 -5.207976 3.390798 0
M  V30 35 H 6.691824 -3.796365 1.937098 0
M  V30 36 H 6.920521 -2.283757 0.074768 0
M  V30 37 H 4.992854 -1.245152 -0.905598 0
M  V30 38 H 3.447217 -0.401392 -1.709834 0
M  V30 39 H 1.777897 0.687719 -2.767832 0
M  V30 40 H 0.726831 -0.698871 -2.433898 0
M  V30 41 H 1.975776 2.621964 -1.357570 0
M  V30 42 H 0.772701 4.164237 0.083803 0
M  V30 43 H -1.245090 3.462179 1.260628 0
M  V30 44 H -2.560343 0.615398 2.100620 0
M  V30 45 H -4.943708 2.266729 2.423396 0
M  V30 46 H -7.286484 1.561467 3.022648 0
M  V30 47 H -7.274948 -1.094033 -0.347303 0
M  V30 48 H -0.893558 -0.348100 -0.440881 0
M  V30 49 H 0.104703 -2.820617 1.695187 0
M  V30 END ATOM
M  V30 BEGIN BOND
M  V30 1 1 1 2
M  V30 2 2 2 3
M  V30 3 1 2 4
M  V30 4 2 4 5
M  V30 5 1 5 6
M  V30 6 2 6 7
M  V30 7 1 7 8
M  V30 8 2 8 9
M  V30 9 1 9 10
M  V30 10 1 10 11
M  V30 11 1 11 12
M  V30 12 2 12 13
M  V30 13 1 13 14
M  V30 14 2 14 15
M  V30 15 1 15 16
M  V30 16 1 16 17
M  V30 17 1 17 18
M  V30 18 2 18 19
M  V30 19 1 18 20
M  V30 20 2 20 21
M  V30 21 1 21 22
M  V30 22 2 22 23
M  V30 23 1 23 24
M  V30 24 1 23 25
M  V30 25 2 25 26
M  V30 26 1 26 27
M  V30 27 2 16 28
M  V30 28 1 9 29
M  V30 29 2 29 30
M  V30 30 1 30 31
M  V30 31 2 31 32
M  V30 32 1 32 4
M  V30 33 1 32 8
M  V30 34 1 28 12
M  V30 35 1 26 20
M  V30 36 1 1 33
M  V30 37 1 1 34
M  V30 38 1 5 35
M  V30 39 1 6 36
M  V30 40 1 7 37
M  V30 41 1 10 38
M  V30 42 1 11 39
M  V30 43 1 11 40
M  V30 44 1 13 41
M  V30 45 1 14 42
M  V30 46 1 15 43
M  V30 47 1 17 44
M  V30 48 1 21 45
M  V30 49 1 22 46
M  V30 50 1 25 47
M  V30 51 1 28 48
M  V30 52 1 30 49
M  V30 END BOND
M  V30 END CTAB
M  END
>  <Dataset>  (949) 
ChEMBL_Kinases

>  <Ligand_Instance>  (949) 
nan

>  <PDB_ID>  (949) 
nan

>  <Standardized_SMILES>  (949) 
NC(=O)c1cccc2c(NCc3cccc(NC(=O)c4ccc(Cl)cc4Cl)c3)ncnc12

>  <Name>  (949) 
nan

>  <Pocket>  (949) 
nan

>  <ATP_Site>  (949) 
nan

>  <Peripheral>  (949) 
nan

>  <Num_H_Atoms_ProtBoundConf>  (949) 
nan

>  <Num_Resolved_Atoms>  (949) 
nan

>  <Num_Not_Resolved_Atoms>  (949) 
nan

$$$$
CHEMBL3675449
     RDKit          3D

  0  0  0  0  0  0  0  0  0  0999 V3000
M  V30 BEGIN CTAB
M  V30 COUNTS 66 69 0 0 0
M  V30 BEGIN ATOM
M  V30 1 C 4.578873 -2.935043 1.021737 0
M  V30 2 N 3.409388 -3.805133 1.200591 0
M  V30 3 C 3.285835 -4.074590 2.617458 0
M  V30 4 C 2.280210 -3.036390 0.709680 0
M  V30 5 C 2.313296 -2.841142 -0.786516 0
M  V30 6 C 1.090224 -1.996594 -1.198983 0
M  V30 7 N 0.958332 -1.798778 -2.606762 0
M  V30 8 C 0.283063 -0.728612 -3.114997 0
M  V30 9 N 1.202686 -0.880957 -4.193425 0
M  V30 10 C 1.276586 -0.144905 -5.346068 0
M  V30 11 N 0.404705 0.839512 -5.524173 0
M  V30 12 C -0.513386 1.164006 -4.706495 0
M  V30 13 C -1.540276 2.023806 -4.510757 0
M  V30 14 C -1.658459 2.893970 -5.634696 0
M  V30 15 N -1.800494 4.292683 -5.492380 0
M  V30 16 O -1.707002 3.037636 -6.927003 0
M  V30 17 C -2.427209 2.167180 -3.492269 0
M  V30 18 C -2.264241 1.263136 -2.432549 0
M  V30 19 C -1.223963 0.303270 -2.498050 0
M  V30 20 C -0.349720 0.281679 -3.672189 0
M  V30 21 C -0.086732 -2.487560 -0.453025 0
M  V30 22 C -0.740797 -3.706099 -0.755157 0
M  V30 23 C -1.812396 -4.047009 0.026317 0
M  V30 24 C -2.331937 -3.334367 1.081642 0
M  V30 25 C -1.724222 -2.139338 1.407545 0
M  V30 26 N -1.960203 -1.171149 2.441733 0
M  V30 27 C -0.967363 -1.159214 3.432721 0
M  V30 28 O 0.098198 -1.755869 3.694614 0
M  V30 29 C -1.268833 -0.136613 4.473354 0
M  V30 30 C -0.246550 0.483219 5.176753 0
M  V30 31 C -0.483637 1.446277 6.153022 0
M  V30 32 C -1.789214 1.802807 6.437757 0
M  V30 33 C -1.834234 2.861398 7.475667 0
M  V30 34 F -1.517567 2.401771 8.729686 0
M  V30 35 F -3.085489 3.483773 7.553800 0
M  V30 36 F -0.945937 3.891649 7.170178 0
M  V30 37 C -2.839710 1.219858 5.774363 0
M  V30 38 C -2.557299 0.269532 4.812072 0
M  V30 39 C -0.648244 -1.792439 0.627280 0
M  V30 40 H 5.396361 -3.293303 1.666298 0
M  V30 41 H 4.853840 -3.000238 -0.043377 0
M  V30 42 H 4.339831 -1.888014 1.338660 0
M  V30 43 H 2.267390 -3.734456 2.924645 0
M  V30 44 H 3.436263 -5.164276 2.837513 0
M  V30 45 H 3.988734 -3.436358 3.210462 0
M  V30 46 H 1.354043 -3.663930 0.944619 0
M  V30 47 H 2.103220 -2.098488 1.254968 0
M  V30 48 H 3.199422 -2.200981 -1.018148 0
M  V30 49 H 2.399370 -3.752578 -1.365636 0
M  V30 50 H 1.375536 -0.983999 -0.772051 0
M  V30 51 H 1.433139 -2.651471 -2.765405 0
M  V30 52 H 1.913704 -0.136547 -6.293053 0
M  V30 53 H -1.064640 5.040418 -5.363721 0
M  V30 54 H -2.128638 5.268125 -5.411367 0
M  V30 55 H -3.180744 2.912459 -3.517084 0
M  V30 56 H -2.984346 1.380678 -1.613995 0
M  V30 57 H -1.273411 -0.297260 -1.599619 0
M  V30 58 H -0.347063 -4.276822 -1.571576 0
M  V30 59 H -2.336370 -4.996492 -0.196168 0
M  V30 60 H -3.171748 -3.570557 1.712261 0
M  V30 61 H -2.824409 -0.617387 2.292315 0
M  V30 62 H 0.764222 0.139280 4.884861 0
M  V30 63 H 0.464929 1.799295 6.567340 0
M  V30 64 H -3.823395 1.527573 6.039080 0
M  V30 65 H -3.367390 -0.184054 4.297545 0
M  V30 66 H -0.087352 -0.850280 0.805395 0
M  V30 END ATOM
M  V30 BEGIN BOND
M  V30 1 1 1 2
M  V30 2 1 2 3
M  V30 3 1 2 4
M  V30 4 1 4 5
M  V30 5 1 5 6
M  V30 6 1 6 7
M  V30 7 1 7 8
M  V30 8 2 8 9
M  V30 9 1 9 10
M  V30 10 2 10 11
M  V30 11 1 11 12
M  V30 12 2 12 13
M  V30 13 1 13 14
M  V30 14 1 14 15
M  V30 15 2 14 16
M  V30 16 1 13 17
M  V30 17 2 17 18
M  V30 18 1 18 19
M  V30 19 2 19 20
M  V30 20 1 6 21
M  V30 21 2 21 22
M  V30 22 1 22 23
M  V30 23 2 23 24
M  V30 24 1 24 25
M  V30 25 1 25 26
M  V30 26 1 26 27
M  V30 27 2 27 28
M  V30 28 1 27 29
M  V30 29 2 29 30
M  V30 30 1 30 31
M  V30 31 2 31 32
M  V30 32 1 32 33
M  V30 33 1 33 34
M  V30 34 1 33 35
M  V30 35 1 33 36
M  V30 36 1 32 37
M  V30 37 2 37 38
M  V30 38 2 25 39
M  V30 39 1 20 8
M  V30 40 1 39 21
M  V30 41 1 20 12
M  V30 42 1 38 29
M  V30 43 1 1 40
M  V30 44 1 1 41
M  V30 45 1 1 42
M  V30 46 1 3 43
M  V30 47 1 3 44
M  V30 48 1 3 45
M  V30 49 1 4 46
M  V30 50 1 4 47
M  V30 51 1 5 48
M  V30 52 1 5 49
M  V30 53 1 6 50
M  V30 54 1 7 51
M  V30 55 1 10 52
M  V30 56 1 15 53
M  V30 57 1 15 54
M  V30 58 1 17 55
M  V30 59 1 18 56
M  V30 60 1 19 57
M  V30 61 1 22 58
M  V30 62 1 23 59
M  V30 63 1 24 60
M  V30 64 1 26 61
M  V30 65 1 30 62
M  V30 66 1 31 63
M  V30 67 1 37 64
M  V30 68 1 38 65
M  V30 69 1 39 66
M  V30 END BOND
M  V30 END CTAB
M  END
>  <Dataset>  (950) 
ChEMBL_Kinases

>  <Ligand_Instance>  (950) 
nan

>  <PDB_ID>  (950) 
nan

>  <Standardized_SMILES>  (950) 
CN(C)CCC(Nc1ncnc2c(C(N)=O)cccc12)c1cccc(NC(=O)c2ccc(C(F)(F)F)cc2)c1

>  <Name>  (950) 
nan

>  <Pocket>  (950) 
nan

>  <ATP_Site>  (950) 
nan

>  <Peripheral>  (950) 
nan

>  <Num_H_Atoms_ProtBoundConf>  (950) 
nan

>  <Num_Resolved_Atoms>  (950) 
nan

>  <Num_Not_Resolved_Atoms>  (950) 
nan

$$$$
CHEMBL3675453
     RDKit          3D

  0  0  0  0  0  0  0  0  0  0999 V3000
M  V30 BEGIN CTAB
M  V30 COUNTS 60 64 0 0 0
M  V30 BEGIN ATOM
M  V30 1 N 5.556455 -1.701635 -1.067182 0
M  V30 2 C 6.295311 -0.583302 -0.563366 0
M  V30 3 O 7.503433 -0.806611 -0.377338 0
M  V30 4 C 5.678160 0.714734 -0.290385 0
M  V30 5 C 6.517358 1.700151 0.189423 0
M  V30 6 C 5.887159 2.915319 0.433424 0
M  V30 7 C 4.538097 3.111103 0.212099 0
M  V30 8 C 3.751084 2.106394 -0.262928 0
M  V30 9 C 2.407152 2.310507 -0.480164 0
M  V30 10 N 1.756651 3.546328 -0.242216 0
M  V30 11 C 0.344883 3.836119 -0.445197 0
M  V30 12 C -0.546594 3.027397 0.426374 0
M  V30 13 C -0.720910 3.677653 1.647814 0
M  V30 14 C -1.513316 3.152688 2.656402 0
M  V30 15 C -2.152778 1.938365 2.438256 0
M  V30 16 C -1.970245 1.311775 1.229982 0
M  V30 17 N -2.606438 0.067466 0.966464 0
M  V30 18 C -3.874271 -0.226229 0.395106 0
M  V30 19 O -4.672153 0.667515 0.012264 0
M  V30 20 C -4.283433 -1.616317 0.238872 0
M  V30 21 C -5.523004 -1.849645 -0.320385 0
M  V30 22 N -6.005723 -3.111484 -0.511351 0
M  V30 23 C -5.255575 -4.167784 -0.145596 0
M  V30 24 C -3.994647 -4.004436 0.424938 0
M  V30 25 N -3.178718 -5.100220 0.822464 0
M  V30 26 C -1.829702 -5.006511 1.401385 0
M  V30 27 C -1.176750 -6.324779 1.047009 0
M  V30 28 C -2.353075 -7.269927 1.170751 0
M  V30 29 C -3.559865 -6.487650 0.716299 0
M  V30 30 C -3.541476 -2.700678 0.601520 0
M  V30 31 C -1.183378 1.828565 0.222109 0
M  V30 32 N 1.761614 1.235599 -0.946553 0
M  V30 33 C 2.323042 0.042233 -1.198019 0
M  V30 34 N 3.638741 -0.174609 -0.990670 0
M  V30 35 C 4.332586 0.885062 -0.518769 0
M  V30 36 H 5.480763 -2.173924 -2.005744 0
M  V30 37 H 5.017843 -2.031940 -0.233129 0
M  V30 38 H 7.571381 1.552089 0.363794 0
M  V30 39 H 6.533127 3.715713 0.815612 0
M  V30 40 H 4.165196 4.078099 0.432933 0
M  V30 41 H 2.247455 4.390582 0.114134 0
M  V30 42 H 0.092294 4.893996 -0.454460 0
M  V30 43 H 0.127099 3.464376 -1.495565 0
M  V30 44 H -0.291848 4.627310 1.970055 0
M  V30 45 H -1.695756 3.586438 3.612741 0
M  V30 46 H -2.784791 1.475208 3.185164 0
M  V30 47 H -1.920227 -0.646684 1.294241 0
M  V30 48 H -6.208341 -1.076512 -0.650423 0
M  V30 49 H -5.633823 -5.158308 -0.295524 0
M  V30 50 H -1.334589 -4.148796 0.923078 0
M  V30 51 H -1.893726 -4.865041 2.499320 0
M  V30 52 H -0.354586 -6.584647 1.745360 0
M  V30 53 H -0.864392 -6.268941 -0.007203 0
M  V30 54 H -2.154098 -8.172514 0.565348 0
M  V30 55 H -2.398896 -7.588912 2.225557 0
M  V30 56 H -3.784236 -6.766916 -0.332175 0
M  V30 57 H -4.442859 -6.683241 1.382390 0
M  V30 58 H -2.586155 -2.548937 1.033318 0
M  V30 59 H -0.989791 1.420773 -0.738014 0
M  V30 60 H 1.709956 -0.777391 -1.578775 0
M  V30 END ATOM
M  V30 BEGIN BOND
M  V30 1 1 1 2
M  V30 2 2 2 3
M  V30 3 1 2 4
M  V30 4 2 4 5
M  V30 5 1 5 6
M  V30 6 2 6 7
M  V30 7 1 7 8
M  V30 8 2 8 9
M  V30 9 1 9 10
M  V30 10 1 10 11
M  V30 11 1 11 12
M  V30 12 2 12 13
M  V30 13 1 13 14
M  V30 14 2 14 15
M  V30 15 1 15 16
M  V30 16 1 16 17
M  V30 17 1 17 18
M  V30 18 2 18 19
M  V30 19 1 18 20
M  V30 20 2 20 21
M  V30 21 1 21 22
M  V30 22 2 22 23
M  V30 23 1 23 24
M  V30 24 1 24 25
M  V30 25 1 25 26
M  V30 26 1 26 27
M  V30 27 1 27 28
M  V30 28 1 28 29
M  V30 29 2 24 30
M  V30 30 2 16 31
M  V30 31 1 9 32
M  V30 32 2 32 33
M  V30 33 1 33 34
M  V30 34 2 34 35
M  V30 35 1 35 4
M  V30 36 1 35 8
M  V30 37 1 31 12
M  V30 38 1 30 20
M  V30 39 1 29 25
M  V30 40 1 1 36
M  V30 41 1 1 37
M  V30 42 1 5 38
M  V30 43 1 6 39
M  V30 44 1 7 40
M  V30 45 1 10 41
M  V30 46 1 11 42
M  V30 47 1 11 43
M  V30 48 1 13 44
M  V30 49 1 14 45
M  V30 50 1 15 46
M  V30 51 1 17 47
M  V30 52 1 21 48
M  V30 53 1 23 49
M  V30 54 1 26 50
M  V30 55 1 26 51
M  V30 56 1 27 52
M  V30 57 1 27 53
M  V30 58 1 28 54
M  V30 59 1 28 55
M  V30 60 1 29 56
M  V30 61 1 29 57
M  V30 62 1 30 58
M  V30 63 1 31 59
M  V30 64 1 33 60
M  V30 END BOND
M  V30 END CTAB
M  END
>  <Dataset>  (951) 
ChEMBL_Kinases

>  <Ligand_Instance>  (951) 
nan

>  <PDB_ID>  (951) 
nan

>  <Standardized_SMILES>  (951) 
NC(=O)c1cccc2c(NCc3cccc(NC(=O)c4cncc(N5CCCC5)c4)c3)ncnc12

>  <Name>  (951) 
nan

>  <Pocket>  (951) 
nan

>  <ATP_Site>  (951) 
nan

>  <Peripheral>  (951) 
nan

>  <Num_H_Atoms_ProtBoundConf>  (951) 
nan

>  <Num_Resolved_Atoms>  (951) 
nan

>  <Num_Not_Resolved_Atoms>  (951) 
nan

$$$$
CHEMBL3675459
     RDKit          3D

  0  0  0  0  0  0  0  0  0  0999 V3000
M  V30 BEGIN CTAB
M  V30 COUNTS 63 66 0 0 0
M  V30 BEGIN ATOM
M  V30 1 C 0.653573 -0.088243 4.119242 0
M  V30 2 N 2.017083 0.191716 3.750015 0
M  V30 3 C 2.886218 -0.043896 4.866475 0
M  V30 4 C 2.430063 -0.569704 2.573975 0
M  V30 5 C 1.629867 -0.004354 1.417211 0
M  V30 6 C 1.945331 -0.690866 0.120327 0
M  V30 7 N 1.136231 -0.088730 -0.919318 0
M  V30 8 C 1.260992 1.290532 -1.289325 0
M  V30 9 N 2.137094 2.136372 -0.725608 0
M  V30 10 C 2.282606 3.429132 -1.054969 0
M  V30 11 N 1.524513 3.985352 -2.015329 0
M  V30 12 C 0.624849 3.205483 -2.626626 0
M  V30 13 C -0.157825 3.770032 -3.611141 0
M  V30 14 C -0.006025 5.172907 -3.974827 0
M  V30 15 N 0.936888 6.047920 -3.367718 0
M  V30 16 O -0.708821 5.727120 -4.867835 0
M  V30 17 C -1.106183 3.029130 -4.281789 0
M  V30 18 C -1.251288 1.682029 -3.932333 0
M  V30 19 C -0.449706 1.165602 -2.946442 0
M  V30 20 C 0.492945 1.879358 -2.271601 0
M  V30 21 C 1.621216 -2.143020 0.171190 0
M  V30 22 C 2.499438 -3.206009 0.236942 0
M  V30 23 C 2.010524 -4.495655 0.279433 0
M  V30 24 C 0.635690 -4.744259 0.257440 0
M  V30 25 C -0.262910 -3.686484 0.191731 0
M  V30 26 N -1.684357 -3.930813 0.169756 0
M  V30 27 C -2.228622 -3.949963 1.467159 0
M  V30 28 O -1.434422 -3.759303 2.439169 0
M  V30 29 C -3.661836 -4.180615 1.704686 0
M  V30 30 C -4.594360 -4.401612 0.711056 0
M  V30 31 C -5.921097 -4.607598 1.032849 0
M  V30 32 C -6.342090 -4.596144 2.364073 0
M  V30 33 Br -8.149500 -4.872799 2.884925 0
M  V30 34 C -5.428393 -4.375785 3.397332 0
M  V30 35 C -4.121612 -4.177585 3.006063 0
M  V30 36 C 0.270051 -2.393528 0.149968 0
M  V30 37 H 0.346376 -1.085828 3.778283 0
M  V30 38 H -0.064043 0.710657 3.781432 0
M  V30 39 H 0.555079 -0.079425 5.232536 0
M  V30 40 H 2.613163 0.681611 5.666991 0
M  V30 41 H 3.938339 0.138754 4.617345 0
M  V30 42 H 2.788847 -1.061511 5.288237 0
M  V30 43 H 3.483244 -0.287868 2.389532 0
M  V30 44 H 2.262797 -1.641070 2.664352 0
M  V30 45 H 1.941644 1.051291 1.332876 0
M  V30 46 H 0.548238 -0.030017 1.626560 0
M  V30 47 H 3.030345 -0.587012 -0.093560 0
M  V30 48 H 0.452700 -0.688371 -1.401457 0
M  V30 49 H 3.069248 3.881811 -0.437010 0
M  V30 50 H 0.606688 6.412125 -2.428326 0
M  V30 51 H 1.887567 6.434906 -3.606820 0
M  V30 52 H -1.720552 3.496620 -5.062697 0
M  V30 53 H -2.008544 1.148337 -4.488467 0
M  V30 54 H -0.644084 0.140486 -2.763315 0
M  V30 55 H 3.540948 -2.922894 0.249737 0
M  V30 56 H 2.741030 -5.313993 0.331016 0
M  V30 57 H 0.277055 -5.769179 0.292344 0
M  V30 58 H -2.273470 -4.079589 -0.678525 0
M  V30 59 H -4.250116 -4.407285 -0.314175 0
M  V30 60 H -6.669659 -4.782476 0.271030 0
M  V30 61 H -5.693517 -4.354416 4.445965 0
M  V30 62 H -3.392398 -4.003677 3.797413 0
M  V30 63 H -0.508516 -1.640278 0.102841 0
M  V30 END ATOM
M  V30 BEGIN BOND
M  V30 1 1 1 2
M  V30 2 1 2 3
M  V30 3 1 2 4
M  V30 4 1 4 5
M  V30 5 1 5 6
M  V30 6 1 6 7
M  V30 7 1 7 8
M  V30 8 2 8 9
M  V30 9 1 9 10
M  V30 10 2 10 11
M  V30 11 1 11 12
M  V30 12 2 12 13
M  V30 13 1 13 14
M  V30 14 1 14 15
M  V30 15 2 14 16
M  V30 16 1 13 17
M  V30 17 2 17 18
M  V30 18 1 18 19
M  V30 19 2 19 20
M  V30 20 1 6 21
M  V30 21 2 21 22
M  V30 22 1 22 23
M  V30 23 2 23 24
M  V30 24 1 24 25
M  V30 25 1 25 26
M  V30 26 1 26 27
M  V30 27 2 27 28
M  V30 28 1 27 29
M  V30 29 2 29 30
M  V30 30 1 30 31
M  V30 31 2 31 32
M  V30 32 1 32 33
M  V30 33 1 32 34
M  V30 34 2 34 35
M  V30 35 2 25 36
M  V30 36 1 20 8
M  V30 37 1 36 21
M  V30 38 1 20 12
M  V30 39 1 35 29
M  V30 40 1 1 37
M  V30 41 1 1 38
M  V30 42 1 1 39
M  V30 43 1 3 40
M  V30 44 1 3 41
M  V30 45 1 3 42
M  V30 46 1 4 43
M  V30 47 1 4 44
M  V30 48 1 5 45
M  V30 49 1 5 46
M  V30 50 1 6 47
M  V30 51 1 7 48
M  V30 52 1 10 49
M  V30 53 1 15 50
M  V30 54 1 15 51
M  V30 55 1 17 52
M  V30 56 1 18 53
M  V30 57 1 19 54
M  V30 58 1 22 55
M  V30 59 1 23 56
M  V30 60 1 24 57
M  V30 61 1 26 58
M  V30 62 1 30 59
M  V30 63 1 31 60
M  V30 64 1 34 61
M  V30 65 1 35 62
M  V30 66 1 36 63
M  V30 END BOND
M  V30 END CTAB
M  END
>  <Dataset>  (952) 
ChEMBL_Kinases

>  <Ligand_Instance>  (952) 
nan

>  <PDB_ID>  (952) 
nan

>  <Standardized_SMILES>  (952) 
CN(C)CCC(Nc1ncnc2c(C(N)=O)cccc12)c1cccc(NC(=O)c2ccc(Br)cc2)c1

>  <Name>  (952) 
nan

>  <Pocket>  (952) 
nan

>  <ATP_Site>  (952) 
nan

>  <Peripheral>  (952) 
nan

>  <Num_H_Atoms_ProtBoundConf>  (952) 
nan

>  <Num_Resolved_Atoms>  (952) 
nan

>  <Num_Not_Resolved_Atoms>  (952) 
nan

$$$$
CHEMBL3685302
     RDKit          3D

  0  0  0  0  0  0  0  0  0  0999 V3000
M  V30 BEGIN CTAB
M  V30 COUNTS 74 79 0 0 0
M  V30 BEGIN ATOM
M  V30 1 N 4.965543 -0.717042 6.201939 0
M  V30 2 C 5.095984 0.182477 5.112038 0
M  V30 3 O 5.689004 1.310570 5.240067 0
M  V30 4 C 4.588500 -0.071718 3.782006 0
M  V30 5 C 4.773159 0.824981 2.761595 0
M  V30 6 C 4.254252 0.513896 1.498956 0
M  V30 7 O 4.430002 1.413046 0.442560 0
M  V30 8 C 3.889442 1.054516 -0.810833 0
M  V30 9 C 4.117841 2.058825 -1.862003 0
M  V30 10 C 5.224460 2.059252 -2.683572 0
M  V30 11 C 5.350278 3.051635 -3.648956 0
M  V30 12 C 4.382413 4.030896 -3.790727 0
M  V30 13 C 3.249162 4.065073 -2.978962 0
M  V30 14 C 3.178214 3.059070 -2.042456 0
M  V30 15 C 3.582164 -0.693431 1.367175 0
M  V30 16 C 3.388356 -1.600892 2.375659 0
M  V30 17 C 2.700582 -2.768230 2.130513 0
M  V30 18 N 2.166854 -3.131520 0.863365 0
M  V30 19 C 1.441374 -4.329791 0.572231 0
M  V30 20 C 0.137161 -4.435326 1.304416 0
M  V30 21 C -0.182274 -5.050867 2.494037 0
M  V30 22 C -1.476779 -4.982336 2.960340 0
M  V30 23 C -2.487618 -4.322684 2.293700 0
M  V30 24 C -2.227906 -3.698600 1.115871 0
M  V30 25 N -3.194131 -2.985801 0.344804 0
M  V30 26 C -4.025551 -3.500050 -0.661564 0
M  V30 27 O -3.947348 -4.722525 -0.947791 0
M  V30 28 C -4.984007 -2.692467 -1.403708 0
M  V30 29 C -5.760843 -3.341720 -2.372527 0
M  V30 30 C -6.662055 -2.566744 -3.076616 0
M  V30 31 N -6.831785 -1.231550 -2.882590 0
M  V30 32 C -6.067321 -0.617917 -1.936443 0
M  V30 33 N -6.142604 0.771069 -1.644686 0
M  V30 34 C -5.461930 1.639333 -0.690019 0
M  V30 35 C -4.757352 2.684240 -1.559248 0
M  V30 36 C -5.840229 2.904336 -2.619523 0
M  V30 37 C -6.884912 1.915514 -2.138232 0
M  V30 38 C -5.169510 -1.339486 -1.220670 0
M  V30 39 C -0.907296 -3.773794 0.649578 0
M  V30 40 N 2.568525 -3.573412 3.186257 0
M  V30 41 C 3.068597 -3.268056 4.392488 0
M  V30 42 N 3.740076 -2.124152 4.622284 0
M  V30 43 C 3.911591 -1.262736 3.604212 0
M  V30 44 H 3.977835 -0.793677 6.581328 0
M  V30 45 H 5.616875 -1.340569 6.739074 0
M  V30 46 H 5.302963 1.742660 2.925279 0
M  V30 47 H 4.317057 0.054987 -1.087983 0
M  V30 48 H 2.791176 0.937542 -0.682008 0
M  V30 49 H 5.945545 1.269777 -2.524562 0
M  V30 50 H 6.228835 3.037507 -4.288393 0
M  V30 51 H 4.468936 4.808752 -4.539531 0
M  V30 52 H 2.472716 4.811731 -3.059401 0
M  V30 53 H 2.298705 3.076594 -1.404216 0
M  V30 54 H 3.223002 -0.842365 0.373718 0
M  V30 55 H 2.290906 -2.498515 0.044900 0
M  V30 56 H 1.264034 -4.407841 -0.515864 0
M  V30 57 H 2.053456 -5.214187 0.868287 0
M  V30 58 H 0.657613 -5.546666 2.946520 0
M  V30 59 H -1.650179 -5.494887 3.909275 0
M  V30 60 H -3.487203 -4.285125 2.680049 0
M  V30 61 H -3.229905 -1.980742 0.614310 0
M  V30 62 H -5.666782 -4.408703 -2.570203 0
M  V30 63 H -7.284816 -3.022237 -3.835318 0
M  V30 64 H -6.137785 2.150066 0.006053 0
M  V30 65 H -4.694745 1.131377 -0.096352 0
M  V30 66 H -4.514312 3.592684 -1.005757 0
M  V30 67 H -3.886449 2.237899 -2.083972 0
M  V30 68 H -6.223698 3.925222 -2.630028 0
M  V30 69 H -5.484080 2.595624 -3.628447 0
M  V30 70 H -7.443464 1.579878 -3.039968 0
M  V30 71 H -7.556876 2.347747 -1.374017 0
M  V30 72 H -4.552406 -0.883099 -0.466860 0
M  V30 73 H -0.741718 -3.252030 -0.309450 0
M  V30 74 H 2.998895 -3.880492 5.300037 0
M  V30 END ATOM
M  V30 BEGIN BOND
M  V30 1 1 1 2
M  V30 2 2 2 3
M  V30 3 1 2 4
M  V30 4 2 4 5
M  V30 5 1 5 6
M  V30 6 1 6 7
M  V30 7 1 7 8
M  V30 8 1 8 9
M  V30 9 2 9 10
M  V30 10 1 10 11
M  V30 11 2 11 12
M  V30 12 1 12 13
M  V30 13 2 13 14
M  V30 14 2 6 15
M  V30 15 1 15 16
M  V30 16 2 16 17
M  V30 17 1 17 18
M  V30 18 1 18 19
M  V30 19 1 19 20
M  V30 20 2 20 21
M  V30 21 1 21 22
M  V30 22 2 22 23
M  V30 23 1 23 24
M  V30 24 1 24 25
M  V30 25 1 25 26
M  V30 26 2 26 27
M  V30 27 1 26 28
M  V30 28 2 28 29
M  V30 29 1 29 30
M  V30 30 2 30 31
M  V30 31 1 31 32
M  V30 32 1 32 33
M  V30 33 1 33 34
M  V30 34 1 34 35
M  V30 35 1 35 36
M  V30 36 1 36 37
M  V30 37 2 32 38
M  V30 38 2 24 39
M  V30 39 1 17 40
M  V30 40 2 40 41
M  V30 41 1 41 42
M  V30 42 2 42 43
M  V30 43 1 43 4
M  V30 44 1 14 9
M  V30 45 1 43 16
M  V30 46 1 39 20
M  V30 47 1 38 28
M  V30 48 1 37 33
M  V30 49 1 1 44
M  V30 50 1 1 45
M  V30 51 1 5 46
M  V30 52 1 8 47
M  V30 53 1 8 48
M  V30 54 1 10 49
M  V30 55 1 11 50
M  V30 56 1 12 51
M  V30 57 1 13 52
M  V30 58 1 14 53
M  V30 59 1 15 54
M  V30 60 1 18 55
M  V30 61 1 19 56
M  V30 62 1 19 57
M  V30 63 1 21 58
M  V30 64 1 22 59
M  V30 65 1 23 60
M  V30 66 1 25 61
M  V30 67 1 29 62
M  V30 68 1 30 63
M  V30 69 1 34 64
M  V30 70 1 34 65
M  V30 71 1 35 66
M  V30 72 1 35 67
M  V30 73 1 36 68
M  V30 74 1 36 69
M  V30 75 1 37 70
M  V30 76 1 37 71
M  V30 77 1 38 72
M  V30 78 1 39 73
M  V30 79 1 41 74
M  V30 END BOND
M  V30 END CTAB
M  END
>  <Dataset>  (953) 
ChEMBL_Kinases

>  <Ligand_Instance>  (953) 
nan

>  <PDB_ID>  (953) 
nan

>  <Standardized_SMILES>  (953) 
NC(=O)c1cc(OCc2ccccc2)cc2c(NCc3cccc(NC(=O)c4ccnc(N5CCCC5)c4)c3)ncnc12

>  <Name>  (953) 
nan

>  <Pocket>  (953) 
nan

>  <ATP_Site>  (953) 
nan

>  <Peripheral>  (953) 
nan

>  <Num_H_Atoms_ProtBoundConf>  (953) 
nan

>  <Num_Resolved_Atoms>  (953) 
nan

>  <Num_Not_Resolved_Atoms>  (953) 
nan

$$$$
CHEMBL3675533
     RDKit          3D

  0  0  0  0  0  0  0  0  0  0999 V3000
M  V30 BEGIN CTAB
M  V30 COUNTS 61 65 0 0 0
M  V30 BEGIN ATOM
M  V30 1 N 3.487658 4.610814 6.067426 0
M  V30 2 C 4.474772 4.284352 5.111275 0
M  V30 3 O 5.672905 4.337783 5.488028 0
M  V30 4 C 4.083391 3.911383 3.772711 0
M  V30 5 C 5.081241 3.605535 2.874949 0
M  V30 6 C 4.703425 3.246580 1.583496 0
M  V30 7 C 3.364239 3.212559 1.261208 0
M  V30 8 C 2.374619 3.512438 2.139685 0
M  V30 9 C 1.038578 3.460809 1.758817 0
M  V30 10 N 0.624596 3.105662 0.451164 0
M  V30 11 C -0.752968 3.033358 0.002853 0
M  V30 12 C -1.560286 2.016695 0.721570 0
M  V30 13 C -2.361516 2.181387 1.826500 0
M  V30 14 C -3.046430 1.130105 2.393204 0
M  V30 15 C -2.978057 -0.153963 1.896027 0
M  V30 16 C -2.195549 -0.390618 0.791878 0
M  V30 17 N -2.024924 -1.665023 0.162148 0
M  V30 18 C -0.981121 -2.538058 0.571480 0
M  V30 19 O -0.270046 -2.074986 1.501737 0
M  V30 20 C -0.694454 -3.857376 0.018723 0
M  V30 21 C 0.387279 -4.515949 0.602461 0
M  V30 22 N 0.670041 -5.735441 0.104690 0
M  V30 23 C -0.032236 -6.298457 -0.889698 0
M  V30 24 C -1.106823 -5.682995 -1.493589 0
M  V30 25 N -1.876761 -6.243433 -2.547460 0
M  V30 26 C -2.990942 -5.627878 -3.231777 0
M  V30 27 C -2.992391 -5.799862 -4.712663 0
M  V30 28 O -2.429999 -6.950978 -5.194316 0
M  V30 29 C -1.241885 -7.295773 -4.560975 0
M  V30 30 C -1.645273 -7.559367 -3.103351 0
M  V30 31 C -1.405248 -4.436725 -0.993398 0
M  V30 32 C -1.514348 0.699514 0.242640 0
M  V30 33 N 0.208284 3.783717 2.743279 0
M  V30 34 C 0.571045 4.128949 3.986118 0
M  V30 35 N 1.861435 4.180443 4.358831 0
M  V30 36 C 2.764244 3.864392 3.408779 0
M  V30 37 H 2.764139 4.902217 6.725819 0
M  V30 38 H 3.442871 3.830160 6.759682 0
M  V30 39 H 6.094045 3.667130 3.240231 0
M  V30 40 H 5.507928 3.011717 0.899788 0
M  V30 41 H 3.195728 2.927388 0.256396 0
M  V30 42 H 1.340643 2.873326 -0.269151 0
M  V30 43 H -1.203136 4.052041 0.097509 0
M  V30 44 H -0.752930 2.725854 -1.061975 0
M  V30 45 H -2.425349 3.183647 2.215064 0
M  V30 46 H -3.664720 1.306229 3.262983 0
M  V30 47 H -3.478538 -1.008023 2.283187 0
M  V30 48 H -2.650373 -1.993300 -0.607514 0
M  V30 49 H 1.023279 -4.157193 1.409341 0
M  V30 50 H 0.272609 -7.277266 -1.218962 0
M  V30 51 H -3.917592 -6.099267 -2.822674 0
M  V30 52 H -3.076904 -4.545287 -3.009422 0
M  V30 53 H -2.570050 -4.917118 -5.256430 0
M  V30 54 H -4.070802 -5.811431 -5.048808 0
M  V30 55 H -0.540949 -6.411492 -4.528864 0
M  V30 56 H -0.795660 -8.160367 -5.047017 0
M  V30 57 H -2.616226 -8.130889 -3.137759 0
M  V30 58 H -0.907514 -8.166587 -2.584566 0
M  V30 59 H -2.197830 -3.827971 -1.341790 0
M  V30 60 H -0.889147 0.502971 -0.641720 0
M  V30 61 H -0.177830 4.383303 4.747633 0
M  V30 END ATOM
M  V30 BEGIN BOND
M  V30 1 1 1 2
M  V30 2 2 2 3
M  V30 3 1 2 4
M  V30 4 2 4 5
M  V30 5 1 5 6
M  V30 6 2 6 7
M  V30 7 1 7 8
M  V30 8 2 8 9
M  V30 9 1 9 10
M  V30 10 1 10 11
M  V30 11 1 11 12
M  V30 12 2 12 13
M  V30 13 1 13 14
M  V30 14 2 14 15
M  V30 15 1 15 16
M  V30 16 1 16 17
M  V30 17 1 17 18
M  V30 18 2 18 19
M  V30 19 1 18 20
M  V30 20 2 20 21
M  V30 21 1 21 22
M  V30 22 2 22 23
M  V30 23 1 23 24
M  V30 24 1 24 25
M  V30 25 1 25 26
M  V30 26 1 26 27
M  V30 27 1 27 28
M  V30 28 1 28 29
M  V30 29 1 29 30
M  V30 30 2 24 31
M  V30 31 2 16 32
M  V30 32 1 9 33
M  V30 33 2 33 34
M  V30 34 1 34 35
M  V30 35 2 35 36
M  V30 36 1 36 4
M  V30 37 1 36 8
M  V30 38 1 32 12
M  V30 39 1 31 20
M  V30 40 1 30 25
M  V30 41 1 1 37
M  V30 42 1 1 38
M  V30 43 1 5 39
M  V30 44 1 6 40
M  V30 45 1 7 41
M  V30 46 1 10 42
M  V30 47 1 11 43
M  V30 48 1 11 44
M  V30 49 1 13 45
M  V30 50 1 14 46
M  V30 51 1 15 47
M  V30 52 1 17 48
M  V30 53 1 21 49
M  V30 54 1 23 50
M  V30 55 1 26 51
M  V30 56 1 26 52
M  V30 57 1 27 53
M  V30 58 1 27 54
M  V30 59 1 29 55
M  V30 60 1 29 56
M  V30 61 1 30 57
M  V30 62 1 30 58
M  V30 63 1 31 59
M  V30 64 1 32 60
M  V30 65 1 34 61
M  V30 END BOND
M  V30 END CTAB
M  END
>  <Dataset>  (954) 
ChEMBL_Kinases

>  <Ligand_Instance>  (954) 
nan

>  <PDB_ID>  (954) 
nan

>  <Standardized_SMILES>  (954) 
NC(=O)c1cccc2c(NCc3cccc(NC(=O)c4cncc(N5CCOCC5)c4)c3)ncnc12

>  <Name>  (954) 
nan

>  <Pocket>  (954) 
nan

>  <ATP_Site>  (954) 
nan

>  <Peripheral>  (954) 
nan

>  <Num_H_Atoms_ProtBoundConf>  (954) 
nan

>  <Num_Resolved_Atoms>  (954) 
nan

>  <Num_Not_Resolved_Atoms>  (954) 
nan

$$$$
CHEMBL3675466
     RDKit          3D

  0  0  0  0  0  0  0  0  0  0999 V3000
M  V30 BEGIN CTAB
M  V30 COUNTS 54 57 0 0 0
M  V30 BEGIN ATOM
M  V30 1 C -1.282815 1.489765 3.822849 0
M  V30 2 C -0.817769 1.631139 2.390675 0
M  V30 3 N 0.480174 1.172880 2.079826 0
M  V30 4 C 1.771061 0.705961 1.773320 0
M  V30 5 N 2.294488 -0.516553 1.914181 0
M  V30 6 C 3.544616 -0.857161 1.598159 0
M  V30 7 N 4.294974 0.125612 1.108818 0
M  V30 8 C 3.870997 1.370249 0.930351 0
M  V30 9 C 4.785742 2.259323 0.407544 0
M  V30 10 C 6.157941 1.822232 0.079341 0
M  V30 11 N 6.514677 0.450416 0.328445 0
M  V30 12 O 7.010808 2.608725 -0.406054 0
M  V30 13 C 4.441232 3.569871 0.182257 0
M  V30 14 C 3.151873 3.931282 0.505681 0
M  V30 15 C 2.251127 3.028113 1.027094 0
M  V30 16 C 2.575613 1.708712 1.260975 0
M  V30 17 C -1.914825 1.175193 1.494894 0
M  V30 18 C -2.914172 2.030603 1.086457 0
M  V30 19 C -3.937256 1.640961 0.255235 0
M  V30 20 C -3.940065 0.335156 -0.174143 0
M  V30 21 C -2.984783 -0.594314 0.178600 0
M  V30 22 N -3.091336 -1.911658 -0.328794 0
M  V30 23 C -2.258311 -3.019044 -0.182179 0
M  V30 24 O -1.221073 -2.868423 0.510706 0
M  V30 25 C -2.517143 -4.321294 -0.776599 0
M  V30 26 C -1.664111 -5.309745 -0.581441 0
M  V30 27 C -1.712647 -6.704994 -1.078464 0
M  V30 28 C -2.930101 -7.022445 -1.897221 0
M  V30 29 Br -2.494602 -7.830220 -3.599161 0
M  V30 30 C -3.821405 -5.857324 -2.061441 0
M  V30 31 C -3.677189 -4.634865 -1.579277 0
M  V30 32 C -2.002641 -0.113449 1.012397 0
M  V30 33 H -1.672466 0.472584 4.004276 0
M  V30 34 H -0.424042 1.779070 4.454761 0
M  V30 35 H -2.120921 2.222379 3.983287 0
M  V30 36 H -0.800480 2.778053 2.253812 0
M  V30 37 H 0.059122 0.257204 2.431465 0
M  V30 38 H 3.769336 -1.898206 1.788763 0
M  V30 39 H 6.361924 -0.248170 -0.450040 0
M  V30 40 H 6.921452 -0.089850 1.146693 0
M  V30 41 H 5.166123 4.251610 -0.223711 0
M  V30 42 H 2.819669 4.947537 0.351862 0
M  V30 43 H 1.250258 3.331206 1.271788 0
M  V30 44 H -2.932499 3.056356 1.409556 0
M  V30 45 H -4.715044 2.316629 -0.058135 0
M  V30 46 H -4.774311 0.052917 -0.837349 0
M  V30 47 H -3.938365 -2.131745 -0.924290 0
M  V30 48 H -0.753661 -5.186463 0.020644 0
M  V30 49 H -1.622683 -7.412812 -0.239461 0
M  V30 50 H -0.835252 -6.863986 -1.781443 0
M  V30 51 H -3.516124 -7.807410 -1.342739 0
M  V30 52 H -4.661819 -6.171353 -2.670943 0
M  V30 53 H -4.425540 -3.887891 -1.791515 0
M  V30 54 H -1.226800 -0.785816 1.328389 0
M  V30 END ATOM
M  V30 BEGIN BOND
M  V30 1 1 1 2
M  V30 2 1 2 3
M  V30 3 1 3 4
M  V30 4 2 4 5
M  V30 5 1 5 6
M  V30 6 2 6 7
M  V30 7 1 7 8
M  V30 8 2 8 9
M  V30 9 1 9 10
M  V30 10 1 10 11
M  V30 11 2 10 12
M  V30 12 1 9 13
M  V30 13 2 13 14
M  V30 14 1 14 15
M  V30 15 2 15 16
M  V30 16 1 2 17
M  V30 17 2 17 18
M  V30 18 1 18 19
M  V30 19 2 19 20
M  V30 20 1 20 21
M  V30 21 1 21 22
M  V30 22 1 22 23
M  V30 23 2 23 24
M  V30 24 1 23 25
M  V30 25 2 25 26
M  V30 26 1 26 27
M  V30 27 1 27 28
M  V30 28 1 28 29
M  V30 29 1 28 30
M  V30 30 2 30 31
M  V30 31 2 21 32
M  V30 32 1 16 4
M  V30 33 1 32 17
M  V30 34 1 16 8
M  V30 35 1 31 25
M  V30 36 1 1 33
M  V30 37 1 1 34
M  V30 38 1 1 35
M  V30 39 1 2 36
M  V30 40 1 3 37
M  V30 41 1 6 38
M  V30 42 1 11 39
M  V30 43 1 11 40
M  V30 44 1 13 41
M  V30 45 1 14 42
M  V30 46 1 15 43
M  V30 47 1 18 44
M  V30 48 1 19 45
M  V30 49 1 20 46
M  V30 50 1 22 47
M  V30 51 1 26 48
M  V30 52 1 27 49
M  V30 53 1 27 50
M  V30 54 1 28 51
M  V30 55 1 30 52
M  V30 56 1 31 53
M  V30 57 1 32 54
M  V30 END BOND
M  V30 END CTAB
M  END
>  <Dataset>  (955) 
ChEMBL_Kinases

>  <Ligand_Instance>  (955) 
nan

>  <PDB_ID>  (955) 
nan

>  <Standardized_SMILES>  (955) 
CC(Nc1ncnc2c(C(N)=O)cccc12)c1cccc(NC(=O)C2=CCC(Br)C=C2)c1

>  <Name>  (955) 
nan

>  <Pocket>  (955) 
nan

>  <ATP_Site>  (955) 
nan

>  <Peripheral>  (955) 
nan

>  <Num_H_Atoms_ProtBoundConf>  (955) 
nan

>  <Num_Resolved_Atoms>  (955) 
nan

>  <Num_Not_Resolved_Atoms>  (955) 
nan

$$$$
CHEMBL3685297
     RDKit          3D

  0  0  0  0  0  0  0  0  0  0999 V3000
M  V30 BEGIN CTAB
M  V30 COUNTS 71 74 0 0 0
M  V30 BEGIN ATOM
M  V30 1 C 1.580871 2.501147 8.327792 0
M  V30 2 O 2.381749 3.462774 7.705577 0
M  V30 3 C 2.259532 3.699282 6.337780 0
M  V30 4 C 1.320532 2.945255 5.641362 0
M  V30 5 C 1.186182 3.163286 4.298737 0
M  V30 6 C 1.945080 4.096540 3.627455 0
M  V30 7 C 1.895352 4.420654 2.208024 0
M  V30 8 O 2.580813 5.271384 1.596566 0
M  V30 9 N 0.971744 3.704817 1.400055 0
M  V30 10 C 0.574996 3.666365 0.036878 0
M  V30 11 C -0.441129 4.453351 -0.433902 0
M  V30 12 C -0.847996 4.435686 -1.758956 0
M  V30 13 C -0.191926 3.589879 -2.608155 0
M  V30 14 C 0.827800 2.771110 -2.232513 0
M  V30 15 C 1.604328 1.800583 -3.044121 0
M  V30 16 N 1.044286 0.496955 -2.887393 0
M  V30 17 C -0.260180 0.055257 -3.234019 0
M  V30 18 N -1.121579 0.915176 -3.786812 0
M  V30 19 C -2.360138 0.581082 -4.144663 0
M  V30 20 N -2.746607 -0.670505 -3.936944 0
M  V30 21 C -1.941112 -1.600888 -3.384821 0
M  V30 22 C -2.455936 -2.866294 -3.220655 0
M  V30 23 C -3.806052 -3.255531 -3.604487 0
M  V30 24 N -4.218232 -4.590777 -3.382894 0
M  V30 25 O -4.475438 -2.318456 -4.109631 0
M  V30 26 C -1.583400 -3.765308 -2.653342 0
M  V30 27 C -0.286812 -3.535646 -2.244741 0
M  V30 28 O 0.634894 -4.302235 -1.693782 0
M  V30 29 C 0.899409 -5.537253 -1.235904 0
M  V30 30 C 0.166522 -6.112105 -0.081673 0
M  V30 31 C -1.301196 -6.254470 -0.185350 0
M  V30 32 N -1.908758 -6.854119 0.995026 0
M  V30 33 C -3.335386 -6.916490 0.725117 0
M  V30 34 C -1.597045 -6.164175 2.203021 0
M  V30 35 C 0.137946 -2.212003 -2.458156 0
M  V30 36 C -0.663270 -1.241700 -3.019703 0
M  V30 37 C 1.188071 2.836723 -0.889553 0
M  V30 38 C 2.866413 4.833777 4.319987 0
M  V30 39 C 3.021091 4.630311 5.683886 0
M  V30 40 H 1.711219 1.477625 7.953636 0
M  V30 41 H 1.788891 2.563322 9.422236 0
M  V30 42 H 0.520852 2.824059 8.217085 0
M  V30 43 H 0.687505 2.196402 6.089614 0
M  V30 44 H 0.477027 2.613437 3.698131 0
M  V30 45 H 0.310928 2.958688 1.705855 0
M  V30 46 H -0.975775 5.130355 0.217498 0
M  V30 47 H -1.649743 5.055595 -2.134999 0
M  V30 48 H -0.476471 3.565669 -3.632286 0
M  V30 49 H 2.652025 1.812970 -2.687361 0
M  V30 50 H 1.551457 2.076761 -4.127513 0
M  V30 51 H 1.723337 -0.168029 -2.461772 0
M  V30 52 H -3.015770 1.319460 -4.588802 0
M  V30 53 H -4.791342 -4.374431 -2.535699 0
M  V30 54 H -3.870827 -5.314953 -4.050550 0
M  V30 55 H -1.935660 -4.762491 -2.518350 0
M  V30 56 H 2.002422 -5.548909 -0.915228 0
M  V30 57 H 0.920444 -6.331393 -2.067250 0
M  V30 58 H 0.491876 -5.578824 0.856477 0
M  V30 59 H 0.588726 -7.149969 0.071439 0
M  V30 60 H -1.728061 -5.212526 -0.198245 0
M  V30 61 H -1.570823 -6.866547 -1.041490 0
M  V30 62 H -3.610594 -5.863445 0.424314 0
M  V30 63 H -3.515554 -7.543762 -0.157422 0
M  V30 64 H -3.938952 -7.210449 1.597564 0
M  V30 65 H -2.532844 -5.991725 2.783431 0
M  V30 66 H -1.115555 -5.172123 2.045577 0
M  V30 67 H -0.963096 -6.806353 2.880088 0
M  V30 68 H 1.124993 -1.932678 -2.176274 0
M  V30 69 H 1.998348 2.218036 -0.482195 0
M  V30 70 H 3.512288 5.590224 3.893347 0
M  V30 71 H 3.720588 5.163135 6.313649 0
M  V30 END ATOM
M  V30 BEGIN BOND
M  V30 1 1 1 2
M  V30 2 1 2 3
M  V30 3 2 3 4
M  V30 4 1 4 5
M  V30 5 2 5 6
M  V30 6 1 6 7
M  V30 7 2 7 8
M  V30 8 1 7 9
M  V30 9 1 9 10
M  V30 10 2 10 11
M  V30 11 1 11 12
M  V30 12 2 12 13
M  V30 13 1 13 14
M  V30 14 1 14 15
M  V30 15 1 15 16
M  V30 16 1 16 17
M  V30 17 2 17 18
M  V30 18 1 18 19
M  V30 19 2 19 20
M  V30 20 1 20 21
M  V30 21 2 21 22
M  V30 22 1 22 23
M  V30 23 1 23 24
M  V30 24 2 23 25
M  V30 25 1 22 26
M  V30 26 2 26 27
M  V30 27 1 27 28
M  V30 28 1 28 29
M  V30 29 1 29 30
M  V30 30 1 30 31
M  V30 31 1 31 32
M  V30 32 1 32 33
M  V30 33 1 32 34
M  V30 34 1 27 35
M  V30 35 2 35 36
M  V30 36 2 14 37
M  V30 37 1 6 38
M  V30 38 2 38 39
M  V30 39 1 39 3
M  V30 40 1 37 10
M  V30 41 1 36 17
M  V30 42 1 36 21
M  V30 43 1 1 40
M  V30 44 1 1 41
M  V30 45 1 1 42
M  V30 46 1 4 43
M  V30 47 1 5 44
M  V30 48 1 9 45
M  V30 49 1 11 46
M  V30 50 1 12 47
M  V30 51 1 13 48
M  V30 52 1 15 49
M  V30 53 1 15 50
M  V30 54 1 16 51
M  V30 55 1 19 52
M  V30 56 1 24 53
M  V30 57 1 24 54
M  V30 58 1 26 55
M  V30 59 1 29 56
M  V30 60 1 29 57
M  V30 61 1 30 58
M  V30 62 1 30 59
M  V30 63 1 31 60
M  V30 64 1 31 61
M  V30 65 1 33 62
M  V30 66 1 33 63
M  V30 67 1 33 64
M  V30 68 1 34 65
M  V30 69 1 34 66
M  V30 70 1 34 67
M  V30 71 1 35 68
M  V30 72 1 37 69
M  V30 73 1 38 70
M  V30 74 1 39 71
M  V30 END BOND
M  V30 END CTAB
M  END
>  <Dataset>  (956) 
ChEMBL_Kinases

>  <Ligand_Instance>  (956) 
nan

>  <PDB_ID>  (956) 
nan

>  <Standardized_SMILES>  (956) 
COc1ccc(C(=O)Nc2cccc(CNc3ncnc4c(C(N)=O)cc(OCCCN(C)C)cc34)c2)cc1

>  <Name>  (956) 
nan

>  <Pocket>  (956) 
nan

>  <ATP_Site>  (956) 
nan

>  <Peripheral>  (956) 
nan

>  <Num_H_Atoms_ProtBoundConf>  (956) 
nan

>  <Num_Resolved_Atoms>  (956) 
nan

>  <Num_Not_Resolved_Atoms>  (956) 
nan

$$$$
CHEMBL3685294
     RDKit          3D

  0  0  0  0  0  0  0  0  0  0999 V3000
M  V30 BEGIN CTAB
M  V30 COUNTS 74 78 0 0 0
M  V30 BEGIN ATOM
M  V30 1 C 7.378872 -1.796994 7.277084 0
M  V30 2 O 7.364767 -1.844102 5.888732 0
M  V30 3 C 6.441034 -1.339169 5.026755 0
M  V30 4 C 5.311121 -0.660243 5.451437 0
M  V30 5 C 4.379069 -0.148716 4.559593 0
M  V30 6 C 4.651946 -0.361804 3.233788 0
M  V30 7 C 3.789043 0.088473 2.144202 0
M  V30 8 O 3.945567 0.046108 0.871933 0
M  V30 9 N 2.542682 0.683981 2.379028 0
M  V30 10 C 1.534085 1.195324 1.510698 0
M  V30 11 C 1.502918 2.533150 1.173986 0
M  V30 12 C 0.530099 3.027708 0.296807 0
M  V30 13 C -0.390818 2.145604 -0.219147 0
M  V30 14 C -0.408136 0.821043 0.075251 0
M  V30 15 C -1.342175 -0.221733 -0.408566 0
M  V30 16 C -2.610648 0.324854 -1.031601 0
M  V30 17 C -3.348695 1.069796 0.042663 0
M  V30 18 N -4.572841 1.678151 -0.437561 0
M  V30 19 C -5.579184 0.728584 -0.808296 0
M  V30 20 C -6.020747 -0.169956 0.311830 0
M  V30 21 C -6.498146 0.653467 1.500286 0
M  V30 22 C -5.573121 1.781733 1.825237 0
M  V30 23 C -5.086220 2.523476 0.608863 0
M  V30 24 N -0.772957 -1.252902 -1.172108 0
M  V30 25 C -0.098729 -2.334399 -1.837592 0
M  V30 26 N 0.913696 -3.118477 -1.373153 0
M  V30 27 C 1.450616 -4.095510 -2.076073 0
M  V30 28 N 0.978142 -4.315735 -3.285757 0
M  V30 29 C -0.007597 -3.637589 -3.887364 0
M  V30 30 C -0.423073 -3.950856 -5.191841 0
M  V30 31 C 0.318763 -5.082102 -5.758739 0
M  V30 32 N 0.167005 -5.425379 -7.111508 0
M  V30 33 O 1.094349 -5.771345 -5.094865 0
M  V30 34 C -1.430653 -3.210758 -5.763024 0
M  V30 35 C -2.010480 -2.178194 -5.039753 0
M  V30 36 C -1.534591 -1.958843 -3.781929 0
M  V30 37 C -0.538078 -2.630251 -3.118877 0
M  V30 38 C 0.569259 0.340187 0.953941 0
M  V30 39 C 5.764215 -1.036004 2.716310 0
M  V30 40 C 6.669117 -1.528076 3.669727 0
M  V30 41 H 7.724439 -2.805492 7.649111 0
M  V30 42 H 6.432562 -1.591350 7.773580 0
M  V30 43 H 8.146410 -1.092881 7.686962 0
M  V30 44 H 5.113333 -0.503004 6.502033 0
M  V30 45 H 3.487774 0.393337 4.828721 0
M  V30 46 H 2.158259 0.845151 3.360184 0
M  V30 47 H 2.263731 3.161170 1.623291 0
M  V30 48 H 0.529531 4.070860 0.049797 0
M  V30 49 H -1.099513 2.539786 -0.887812 0
M  V30 50 H -1.728670 -0.688840 0.594244 0
M  V30 51 H -3.237590 -0.572215 -1.278456 0
M  V30 52 H -2.470670 0.878677 -1.954459 0
M  V30 53 H -2.742603 1.823083 0.527332 0
M  V30 54 H -3.599270 0.260785 0.811849 0
M  V30 55 H -5.315928 0.111289 -1.686375 0
M  V30 56 H -6.478300 1.328033 -1.120332 0
M  V30 57 H -6.931533 -0.706955 -0.079322 0
M  V30 58 H -5.316605 -0.956563 0.584561 0
M  V30 59 H -6.585208 -0.025798 2.373149 0
M  V30 60 H -7.523097 1.038892 1.316350 0
M  V30 61 H -6.183862 2.520645 2.420594 0
M  V30 62 H -4.756780 1.472556 2.499708 0
M  V30 63 H -5.963192 3.136248 0.258080 0
M  V30 64 H -4.333131 3.262595 0.925858 0
M  V30 65 H -0.129583 -1.365238 -0.328656 0
M  V30 66 H 2.259995 -4.657680 -1.599238 0
M  V30 67 H 0.500673 -5.810577 -7.999216 0
M  V30 68 H -0.780781 -5.199938 -7.535756 0
M  V30 69 H -1.687603 -3.522400 -6.762956 0
M  V30 70 H -2.796377 -1.625149 -5.521786 0
M  V30 71 H -2.045739 -1.138324 -3.311186 0
M  V30 72 H 0.715707 -0.689832 1.322990 0
M  V30 73 H 5.994286 -1.216146 1.681986 0
M  V30 74 H 7.566072 -2.062433 3.346241 0
M  V30 END ATOM
M  V30 BEGIN BOND
M  V30 1 1 1 2
M  V30 2 1 2 3
M  V30 3 2 3 4
M  V30 4 1 4 5
M  V30 5 2 5 6
M  V30 6 1 6 7
M  V30 7 2 7 8
M  V30 8 1 7 9
M  V30 9 1 9 10
M  V30 10 2 10 11
M  V30 11 1 11 12
M  V30 12 2 12 13
M  V30 13 1 13 14
M  V30 14 1 14 15
M  V30 15 1 15 16
M  V30 16 1 16 17
M  V30 17 1 17 18
M  V30 18 1 18 19
M  V30 19 1 19 20
M  V30 20 1 20 21
M  V30 21 1 21 22
M  V30 22 1 22 23
M  V30 23 1 15 24
M  V30 24 1 24 25
M  V30 25 2 25 26
M  V30 26 1 26 27
M  V30 27 2 27 28
M  V30 28 1 28 29
M  V30 29 2 29 30
M  V30 30 1 30 31
M  V30 31 1 31 32
M  V30 32 2 31 33
M  V30 33 1 30 34
M  V30 34 2 34 35
M  V30 35 1 35 36
M  V30 36 2 36 37
M  V30 37 2 14 38
M  V30 38 1 6 39
M  V30 39 2 39 40
M  V30 40 1 40 3
M  V30 41 1 38 10
M  V30 42 1 23 18
M  V30 43 1 37 25
M  V30 44 1 37 29
M  V30 45 1 1 41
M  V30 46 1 1 42
M  V30 47 1 1 43
M  V30 48 1 4 44
M  V30 49 1 5 45
M  V30 50 1 9 46
M  V30 51 1 11 47
M  V30 52 1 12 48
M  V30 53 1 13 49
M  V30 54 1 15 50
M  V30 55 1 16 51
M  V30 56 1 16 52
M  V30 57 1 17 53
M  V30 58 1 17 54
M  V30 59 1 19 55
M  V30 60 1 19 56
M  V30 61 1 20 57
M  V30 62 1 20 58
M  V30 63 1 21 59
M  V30 64 1 21 60
M  V30 65 1 22 61
M  V30 66 1 22 62
M  V30 67 1 23 63
M  V30 68 1 23 64
M  V30 69 1 24 65
M  V30 70 1 27 66
M  V30 71 1 32 67
M  V30 72 1 32 68
M  V30 73 1 34 69
M  V30 74 1 35 70
M  V30 75 1 36 71
M  V30 76 1 38 72
M  V30 77 1 39 73
M  V30 78 1 40 74
M  V30 END BOND
M  V30 END CTAB
M  END
>  <Dataset>  (957) 
ChEMBL_Kinases

>  <Ligand_Instance>  (957) 
nan

>  <PDB_ID>  (957) 
nan

>  <Standardized_SMILES>  (957) 
COc1ccc(C(=O)Nc2cccc(C(CCN3CCCCC3)Nc3ncnc4c(C(N)=O)cccc34)c2)cc1

>  <Name>  (957) 
nan

>  <Pocket>  (957) 
nan

>  <ATP_Site>  (957) 
nan

>  <Peripheral>  (957) 
nan

>  <Num_H_Atoms_ProtBoundConf>  (957) 
nan

>  <Num_Resolved_Atoms>  (957) 
nan

>  <Num_Not_Resolved_Atoms>  (957) 
nan

$$$$
CHEMBL3685293
     RDKit          3D

  0  0  0  0  0  0  0  0  0  0999 V3000
M  V30 BEGIN CTAB
M  V30 COUNTS 63 67 0 0 0
M  V30 BEGIN ATOM
M  V30 1 N 5.622206 3.621862 4.134947 0
M  V30 2 C 6.094067 3.086843 2.905225 0
M  V30 3 O 7.282217 2.675519 2.939736 0
M  V30 4 C 5.328366 2.989256 1.669809 0
M  V30 5 C 5.976562 2.432487 0.589423 0
M  V30 6 C 5.267640 2.325439 -0.612160 0
M  V30 7 C 3.959723 2.786322 -0.637009 0
M  V30 8 C 3.316102 3.336193 0.425943 0
M  V30 9 C 2.007541 3.771669 0.307844 0
M  V30 10 N 1.258642 3.677283 -0.892760 0
M  V30 11 C -0.110673 4.118712 -1.069153 0
M  V30 12 C -1.082598 3.455829 -0.188718 0
M  V30 13 C -1.550604 3.885491 1.025712 0
M  V30 14 C -2.455818 3.216690 1.814811 0
M  V30 15 C -2.931971 2.003620 1.333018 0
M  V30 16 C -2.477458 1.538986 0.103589 0
M  V30 17 N -3.096051 0.272870 -0.200077 0
M  V30 18 C -2.280261 -0.741229 0.336837 0
M  V30 19 O -1.238014 -0.303166 0.933826 0
M  V30 20 C -2.493940 -2.186151 0.284107 0
M  V30 21 C -1.534730 -2.961967 0.901714 0
M  V30 22 C -1.769701 -4.340778 0.835159 0
M  V30 23 C -2.867015 -4.880091 0.205655 0
M  V30 24 N -3.092673 -6.263476 0.147121 0
M  V30 25 C -4.268119 -6.798222 -0.554037 0
M  V30 26 C -3.736771 -7.701276 -1.647528 0
M  V30 27 C -2.222952 -7.670731 -1.733533 0
M  V30 28 C -1.547721 -7.966834 -0.419866 0
M  V30 29 C -2.252874 -7.267523 0.731335 0
M  V30 30 N -3.737145 -4.038741 -0.362102 0
M  V30 31 C -3.606834 -2.688070 -0.356822 0
M  V30 32 C -1.567358 2.253875 -0.644854 0
M  V30 33 N 1.513429 4.290992 1.438621 0
M  V30 34 C 2.169710 4.405151 2.600350 0
M  V30 35 N 3.436841 3.977492 2.696176 0
M  V30 36 C 4.025989 3.435744 1.603649 0
M  V30 37 H 4.873832 2.920179 4.331397 0
M  V30 38 H 6.117390 4.483679 4.454055 0
M  V30 39 H 7.010313 2.072453 0.622474 0
M  V30 40 H 5.793769 1.888576 -1.438823 0
M  V30 41 H 3.514940 2.656972 -1.597734 0
M  V30 42 H 1.673734 3.264882 -1.752905 0
M  V30 43 H -0.425748 4.023262 -2.125772 0
M  V30 44 H -0.075881 5.223065 -0.873526 0
M  V30 45 H -1.180708 4.834453 1.385744 0
M  V30 46 H -2.767368 3.634981 2.762593 0
M  V30 47 H -3.644865 1.517555 1.995498 0
M  V30 48 H -3.968031 -0.073800 -0.701788 0
M  V30 49 H -0.672313 -2.571309 1.398264 0
M  V30 50 H -1.024039 -4.963209 1.315798 0
M  V30 51 H -4.945006 -6.015791 -0.917450 0
M  V30 52 H -4.780703 -7.485062 0.181305 0
M  V30 53 H -4.126671 -7.307197 -2.608020 0
M  V30 54 H -4.031320 -8.770161 -1.509088 0
M  V30 55 H -1.932363 -6.661475 -2.073340 0
M  V30 56 H -1.892216 -8.412521 -2.457739 0
M  V30 57 H -1.491677 -9.051981 -0.298075 0
M  V30 58 H -0.529870 -7.496349 -0.481090 0
M  V30 59 H -1.559629 -6.919095 1.513105 0
M  V30 60 H -2.906518 -8.019668 1.220822 0
M  V30 61 H -4.351266 -2.072841 -0.837531 0
M  V30 62 H -1.307089 1.764843 -1.580867 0
M  V30 63 H 1.636085 4.852921 3.446996 0
M  V30 END ATOM
M  V30 BEGIN BOND
M  V30 1 1 1 2
M  V30 2 2 2 3
M  V30 3 1 2 4
M  V30 4 2 4 5
M  V30 5 1 5 6
M  V30 6 2 6 7
M  V30 7 1 7 8
M  V30 8 2 8 9
M  V30 9 1 9 10
M  V30 10 1 10 11
M  V30 11 1 11 12
M  V30 12 2 12 13
M  V30 13 1 13 14
M  V30 14 2 14 15
M  V30 15 1 15 16
M  V30 16 1 16 17
M  V30 17 1 17 18
M  V30 18 2 18 19
M  V30 19 1 18 20
M  V30 20 2 20 21
M  V30 21 1 21 22
M  V30 22 2 22 23
M  V30 23 1 23 24
M  V30 24 1 24 25
M  V30 25 1 25 26
M  V30 26 1 26 27
M  V30 27 1 27 28
M  V30 28 1 28 29
M  V30 29 1 23 30
M  V30 30 2 30 31
M  V30 31 2 16 32
M  V30 32 1 9 33
M  V30 33 2 33 34
M  V30 34 1 34 35
M  V30 35 2 35 36
M  V30 36 1 36 4
M  V30 37 1 36 8
M  V30 38 1 32 12
M  V30 39 1 31 20
M  V30 40 1 29 24
M  V30 41 1 1 37
M  V30 42 1 1 38
M  V30 43 1 5 39
M  V30 44 1 6 40
M  V30 45 1 7 41
M  V30 46 1 10 42
M  V30 47 1 11 43
M  V30 48 1 11 44
M  V30 49 1 13 45
M  V30 50 1 14 46
M  V30 51 1 15 47
M  V30 52 1 17 48
M  V30 53 1 21 49
M  V30 54 1 22 50
M  V30 55 1 25 51
M  V30 56 1 25 52
M  V30 57 1 26 53
M  V30 58 1 26 54
M  V30 59 1 27 55
M  V30 60 1 27 56
M  V30 61 1 28 57
M  V30 62 1 28 58
M  V30 63 1 29 59
M  V30 64 1 29 60
M  V30 65 1 31 61
M  V30 66 1 32 62
M  V30 67 1 34 63
M  V30 END BOND
M  V30 END CTAB
M  END
>  <Dataset>  (958) 
ChEMBL_Kinases

>  <Ligand_Instance>  (958) 
nan

>  <PDB_ID>  (958) 
nan

>  <Standardized_SMILES>  (958) 
NC(=O)c1cccc2c(NCc3cccc(NC(=O)c4ccc(N5CCCCC5)nc4)c3)ncnc12

>  <Name>  (958) 
nan

>  <Pocket>  (958) 
nan

>  <ATP_Site>  (958) 
nan

>  <Peripheral>  (958) 
nan

>  <Num_H_Atoms_ProtBoundConf>  (958) 
nan

>  <Num_Resolved_Atoms>  (958) 
nan

>  <Num_Not_Resolved_Atoms>  (958) 
nan

$$$$
CHEMBL3685289
     RDKit          3D

  0  0  0  0  0  0  0  0  0  0999 V3000
M  V30 BEGIN CTAB
M  V30 COUNTS 68 72 0 0 0
M  V30 BEGIN ATOM
M  V30 1 C 5.379519 -1.258051 7.736636 0
M  V30 2 O 5.635219 -1.511854 6.396137 0
M  V30 3 C 4.992917 -1.009141 5.304132 0
M  V30 4 C 5.473633 -1.447120 4.088003 0
M  V30 5 C 4.898679 -1.003656 2.890530 0
M  V30 6 C 3.839125 -0.117411 2.974487 0
M  V30 7 C 3.269861 0.313609 1.701256 0
M  V30 8 O 3.746562 -0.140082 0.629244 0
M  V30 9 N 2.197360 1.222112 1.550049 0
M  V30 10 C 1.895476 1.414730 0.150328 0
M  V30 11 C 2.478638 2.386339 -0.634091 0
M  V30 12 C 2.091622 2.456712 -1.960374 0
M  V30 13 C 1.161072 1.609877 -2.524410 0
M  V30 14 C 0.605913 0.657723 -1.706748 0
M  V30 15 C -0.452709 -0.371607 -2.189575 0
M  V30 16 C 0.336839 -1.641081 -2.196491 0
M  V30 17 C -0.283757 -2.895806 -2.649565 0
M  V30 18 N -0.715682 -3.060815 -3.959341 0
M  V30 19 C -1.796501 -2.381275 -4.485352 0
M  V30 20 C -0.942707 -1.927954 -5.674992 0
M  V30 21 C 0.142807 -2.766357 -5.046129 0
M  V30 22 N -1.526106 -0.348378 -1.206897 0
M  V30 23 C -2.798905 -0.876209 -0.791022 0
M  V30 24 N -3.356468 -1.804017 -1.563174 0
M  V30 25 C -4.523279 -2.383952 -1.322721 0
M  V30 26 N -5.187625 -2.011219 -0.227360 0
M  V30 27 C -4.674255 -1.081914 0.586463 0
M  V30 28 C -5.305901 -0.652454 1.731454 0
M  V30 29 C -6.596557 -1.285275 2.004925 0
M  V30 30 N -7.332520 -0.908020 3.159234 0
M  V30 31 O -7.071881 -2.160544 1.236909 0
M  V30 32 C -4.823100 0.301570 2.607422 0
M  V30 33 C -3.594272 0.869055 2.295286 0
M  V30 34 C -2.936908 0.460453 1.155526 0
M  V30 35 C -3.471444 -0.480419 0.343277 0
M  V30 36 C 0.946059 0.524171 -0.357687 0
M  V30 37 C 3.336719 0.338295 4.177163 0
M  V30 38 C 3.931660 -0.122575 5.339633 0
M  V30 39 H 4.306987 -1.533722 7.958931 0
M  V30 40 H 5.538752 -0.240454 8.091815 0
M  V30 41 H 5.965704 -1.958779 8.371675 0
M  V30 42 H 6.301757 -2.141036 3.996135 0
M  V30 43 H 5.303642 -1.369716 1.953550 0
M  V30 44 H 1.770319 1.627078 2.430362 0
M  V30 45 H 3.205585 3.045457 -0.185789 0
M  V30 46 H 2.536063 3.212481 -2.598703 0
M  V30 47 H 0.838498 1.638570 -3.552097 0
M  V30 48 H -0.831378 -0.014034 -3.136740 0
M  V30 49 H 0.637001 -1.797693 -1.103470 0
M  V30 50 H 1.357328 -1.463641 -2.664169 0
M  V30 51 H 0.519712 -3.716335 -2.485732 0
M  V30 52 H -1.053877 -3.221820 -1.900744 0
M  V30 53 H -2.277631 -1.536214 -3.998346 0
M  V30 54 H -2.570058 -3.110401 -4.879221 0
M  V30 55 H -0.751095 -0.831094 -5.632666 0
M  V30 56 H -1.327951 -2.265694 -6.639101 0
M  V30 57 H 1.028641 -2.133807 -4.842758 0
M  V30 58 H 0.435506 -3.596652 -5.717774 0
M  V30 59 H -1.240098 0.366416 -0.517005 0
M  V30 60 H -4.883042 -3.127236 -2.018032 0
M  V30 61 H -8.248336 -0.532600 3.465039 0
M  V30 62 H -8.311401 -0.529479 3.216939 0
M  V30 63 H -5.392233 0.577912 3.485246 0
M  V30 64 H -3.238468 1.611631 2.995705 0
M  V30 65 H -2.005793 0.975560 1.036510 0
M  V30 66 H 0.499819 -0.244719 0.292968 0
M  V30 67 H 2.516894 1.023621 4.229341 0
M  V30 68 H 3.582825 0.198077 6.320733 0
M  V30 END ATOM
M  V30 BEGIN BOND
M  V30 1 1 1 2
M  V30 2 1 2 3
M  V30 3 2 3 4
M  V30 4 1 4 5
M  V30 5 2 5 6
M  V30 6 1 6 7
M  V30 7 2 7 8
M  V30 8 1 7 9
M  V30 9 1 9 10
M  V30 10 2 10 11
M  V30 11 1 11 12
M  V30 12 2 12 13
M  V30 13 1 13 14
M  V30 14 1 14 15
M  V30 15 1 15 16
M  V30 16 1 16 17
M  V30 17 1 17 18
M  V30 18 1 18 19
M  V30 19 1 19 20
M  V30 20 1 20 21
M  V30 21 1 15 22
M  V30 22 1 22 23
M  V30 23 2 23 24
M  V30 24 1 24 25
M  V30 25 2 25 26
M  V30 26 1 26 27
M  V30 27 2 27 28
M  V30 28 1 28 29
M  V30 29 1 29 30
M  V30 30 2 29 31
M  V30 31 1 28 32
M  V30 32 2 32 33
M  V30 33 1 33 34
M  V30 34 2 34 35
M  V30 35 2 14 36
M  V30 36 1 6 37
M  V30 37 2 37 38
M  V30 38 1 38 3
M  V30 39 1 36 10
M  V30 40 1 21 18
M  V30 41 1 35 23
M  V30 42 1 35 27
M  V30 43 1 1 39
M  V30 44 1 1 40
M  V30 45 1 1 41
M  V30 46 1 4 42
M  V30 47 1 5 43
M  V30 48 1 9 44
M  V30 49 1 11 45
M  V30 50 1 12 46
M  V30 51 1 13 47
M  V30 52 1 15 48
M  V30 53 1 16 49
M  V30 54 1 16 50
M  V30 55 1 17 51
M  V30 56 1 17 52
M  V30 57 1 19 53
M  V30 58 1 19 54
M  V30 59 1 20 55
M  V30 60 1 20 56
M  V30 61 1 21 57
M  V30 62 1 21 58
M  V30 63 1 22 59
M  V30 64 1 25 60
M  V30 65 1 30 61
M  V30 66 1 30 62
M  V30 67 1 32 63
M  V30 68 1 33 64
M  V30 69 1 34 65
M  V30 70 1 36 66
M  V30 71 1 37 67
M  V30 72 1 38 68
M  V30 END BOND
M  V30 END CTAB
M  END
>  <Dataset>  (959) 
ChEMBL_Kinases

>  <Ligand_Instance>  (959) 
nan

>  <PDB_ID>  (959) 
nan

>  <Standardized_SMILES>  (959) 
COc1ccc(C(=O)Nc2cccc(C(CCN3CCC3)Nc3ncnc4c(C(N)=O)cccc34)c2)cc1

>  <Name>  (959) 
nan

>  <Pocket>  (959) 
nan

>  <ATP_Site>  (959) 
nan

>  <Peripheral>  (959) 
nan

>  <Num_H_Atoms_ProtBoundConf>  (959) 
nan

>  <Num_Resolved_Atoms>  (959) 
nan

>  <Num_Not_Resolved_Atoms>  (959) 
nan

$$$$
CHEMBL3685288
     RDKit          3D

  0  0  0  0  0  0  0  0  0  0999 V3000
M  V30 BEGIN CTAB
M  V30 COUNTS 71 75 0 0 0
M  V30 BEGIN ATOM
M  V30 1 C 7.886147 2.176144 4.127838 0
M  V30 2 O 6.806955 2.308592 4.998786 0
M  V30 3 C 5.477738 2.241243 4.619074 0
M  V30 4 C 5.070293 2.032830 3.323990 0
M  V30 5 C 3.744189 1.968170 2.960041 0
M  V30 6 C 2.754254 2.112691 3.897709 0
M  V30 7 C 1.303055 2.086035 3.760105 0
M  V30 8 O 0.430616 2.217557 4.654971 0
M  V30 9 N 0.760865 1.890027 2.475352 0
M  V30 10 C -0.470182 1.780499 1.778743 0
M  V30 11 C -1.001383 2.980591 1.310785 0
M  V30 12 C -2.207119 3.031935 0.603475 0
M  V30 13 C -2.837808 1.827778 0.396667 0
M  V30 14 C -2.345163 0.623859 0.842808 0
M  V30 15 C -3.046295 -0.730716 0.609815 0
M  V30 16 C -4.120137 -0.574855 -0.374115 0
M  V30 17 C -4.933086 -1.768603 -0.689734 0
M  V30 18 N -4.312720 -2.957969 -1.170381 0
M  V30 19 C -5.418744 -3.698388 -1.873631 0
M  V30 20 C -4.730112 -4.991590 -2.176857 0
M  V30 21 C -3.931821 -5.239044 -0.899762 0
M  V30 22 C -4.152594 -3.953551 -0.091630 0
M  V30 23 N -1.911902 -1.548936 0.190151 0
M  V30 24 C -1.208556 -1.268208 -1.011772 0
M  V30 25 N -1.528712 -0.243479 -1.817535 0
M  V30 26 C -0.883572 0.057450 -2.956821 0
M  V30 27 N 0.163285 -0.666255 -3.390053 0
M  V30 28 C 0.551835 -1.720269 -2.633604 0
M  V30 29 C 1.614582 -2.460726 -3.066300 0
M  V30 30 C 2.333388 -2.156620 -4.299032 0
M  V30 31 N 1.896536 -1.055672 -5.058735 0
M  V30 32 O 3.309569 -2.833841 -4.694373 0
M  V30 33 C 2.025179 -3.534277 -2.314314 0
M  V30 34 C 1.373591 -3.866778 -1.131072 0
M  V30 35 C 0.309388 -3.075538 -0.755631 0
M  V30 36 C -0.134720 -1.992104 -1.477907 0
M  V30 37 C -1.159446 0.626484 1.531524 0
M  V30 38 C 3.141240 2.324900 5.217894 0
M  V30 39 C 4.485523 2.386947 5.565204 0
M  V30 40 H 8.799994 2.713143 4.484941 0
M  V30 41 H 7.663833 2.493027 3.075693 0
M  V30 42 H 8.160185 1.099381 4.074434 0
M  V30 43 H 5.793171 1.910702 2.534050 0
M  V30 44 H 3.362449 1.807621 1.965424 0
M  V30 45 H 1.366080 1.762040 1.627533 0
M  V30 46 H -0.497648 3.945002 1.474690 0
M  V30 47 H -2.631329 3.935412 0.237308 0
M  V30 48 H -3.749869 1.848961 -0.138525 0
M  V30 49 H -3.426513 -1.031268 1.587513 0
M  V30 50 H -4.858687 0.193714 0.070798 0
M  V30 51 H -3.805184 -0.031841 -1.309649 0
M  V30 52 H -5.723108 -1.437154 -1.434446 0
M  V30 53 H -5.548817 -2.093769 0.219639 0
M  V30 54 H -6.263087 -3.822822 -1.181221 0
M  V30 55 H -5.660145 -3.174965 -2.805860 0
M  V30 56 H -5.504017 -5.764525 -2.333462 0
M  V30 57 H -4.052403 -4.896835 -3.031307 0
M  V30 58 H -2.848897 -5.327994 -1.111141 0
M  V30 59 H -4.331075 -6.119737 -0.373438 0
M  V30 60 H -3.381518 -3.771531 0.622106 0
M  V30 61 H -5.119807 -4.075835 0.446071 0
M  V30 62 H -1.651580 -2.317408 0.832543 0
M  V30 63 H -1.296942 0.922531 -3.462399 0
M  V30 64 H 1.204209 -0.521488 -5.596596 0
M  V30 65 H 1.498919 -0.285612 -5.622413 0
M  V30 66 H 2.868777 -4.078887 -2.707478 0
M  V30 67 H 1.748537 -4.709696 -0.604452 0
M  V30 68 H -0.156348 -3.380881 0.166363 0
M  V30 69 H -0.687989 -0.263457 1.923700 0
M  V30 70 H 2.461492 2.456342 6.064571 0
M  V30 71 H 4.800434 2.552082 6.592938 0
M  V30 END ATOM
M  V30 BEGIN BOND
M  V30 1 1 1 2
M  V30 2 1 2 3
M  V30 3 2 3 4
M  V30 4 1 4 5
M  V30 5 2 5 6
M  V30 6 1 6 7
M  V30 7 2 7 8
M  V30 8 1 7 9
M  V30 9 1 9 10
M  V30 10 2 10 11
M  V30 11 1 11 12
M  V30 12 2 12 13
M  V30 13 1 13 14
M  V30 14 1 14 15
M  V30 15 1 15 16
M  V30 16 1 16 17
M  V30 17 1 17 18
M  V30 18 1 18 19
M  V30 19 1 19 20
M  V30 20 1 20 21
M  V30 21 1 21 22
M  V30 22 1 15 23
M  V30 23 1 23 24
M  V30 24 2 24 25
M  V30 25 1 25 26
M  V30 26 2 26 27
M  V30 27 1 27 28
M  V30 28 2 28 29
M  V30 29 1 29 30
M  V30 30 1 30 31
M  V30 31 2 30 32
M  V30 32 1 29 33
M  V30 33 2 33 34
M  V30 34 1 34 35
M  V30 35 2 35 36
M  V30 36 2 14 37
M  V30 37 1 6 38
M  V30 38 2 38 39
M  V30 39 1 39 3
M  V30 40 1 37 10
M  V30 41 1 22 18
M  V30 42 1 36 24
M  V30 43 1 36 28
M  V30 44 1 1 40
M  V30 45 1 1 41
M  V30 46 1 1 42
M  V30 47 1 4 43
M  V30 48 1 5 44
M  V30 49 1 9 45
M  V30 50 1 11 46
M  V30 51 1 12 47
M  V30 52 1 13 48
M  V30 53 1 15 49
M  V30 54 1 16 50
M  V30 55 1 16 51
M  V30 56 1 17 52
M  V30 57 1 17 53
M  V30 58 1 19 54
M  V30 59 1 19 55
M  V30 60 1 20 56
M  V30 61 1 20 57
M  V30 62 1 21 58
M  V30 63 1 21 59
M  V30 64 1 22 60
M  V30 65 1 22 61
M  V30 66 1 23 62
M  V30 67 1 26 63
M  V30 68 1 31 64
M  V30 69 1 31 65
M  V30 70 1 33 66
M  V30 71 1 34 67
M  V30 72 1 35 68
M  V30 73 1 37 69
M  V30 74 1 38 70
M  V30 75 1 39 71
M  V30 END BOND
M  V30 END CTAB
M  END
>  <Dataset>  (960) 
ChEMBL_Kinases

>  <Ligand_Instance>  (960) 
nan

>  <PDB_ID>  (960) 
nan

>  <Standardized_SMILES>  (960) 
COc1ccc(C(=O)Nc2cccc(C(CCN3CCCC3)Nc3ncnc4c(C(N)=O)cccc34)c2)cc1

>  <Name>  (960) 
nan

>  <Pocket>  (960) 
nan

>  <ATP_Site>  (960) 
nan

>  <Peripheral>  (960) 
nan

>  <Num_H_Atoms_ProtBoundConf>  (960) 
nan

>  <Num_Resolved_Atoms>  (960) 
nan

>  <Num_Not_Resolved_Atoms>  (960) 
nan

$$$$
CHEMBL3685287
     RDKit          3D

  0  0  0  0  0  0  0  0  0  0999 V3000
M  V30 BEGIN CTAB
M  V30 COUNTS 53 56 0 0 0
M  V30 BEGIN ATOM
M  V30 1 N 3.401649 4.211977 5.799747 0
M  V30 2 C 4.307037 3.206454 5.373747 0
M  V30 3 O 5.244480 2.956583 6.174135 0
M  V30 4 C 4.217886 2.476875 4.115513 0
M  V30 5 C 5.196027 1.534623 3.881467 0
M  V30 6 C 5.124138 0.825434 2.677108 0
M  V30 7 C 4.091932 1.107302 1.806106 0
M  V30 8 C 3.121100 2.032406 2.022519 0
M  V30 9 C 2.114138 2.267679 1.110336 0
M  V30 10 N 2.021373 1.574320 -0.101424 0
M  V30 11 C 0.994434 1.757475 -1.118084 0
M  V30 12 C -0.371657 1.455603 -0.618611 0
M  V30 13 C -1.304346 2.323849 -0.093047 0
M  V30 14 C -2.534566 1.875200 0.339032 0
M  V30 15 C -2.901389 0.547023 0.271817 0
M  V30 16 F -4.101818 0.078284 0.688368 0
M  V30 17 C -2.002391 -0.363344 -0.247190 0
M  V30 18 N -2.308785 -1.749201 -0.349136 0
M  V30 19 C -2.916160 -2.347753 -1.471849 0
M  V30 20 O -3.242419 -1.690950 -2.494109 0
M  V30 21 C -3.206567 -3.781100 -1.517270 0
M  V30 22 C -3.802362 -4.307341 -2.649608 0
M  V30 23 C -4.107672 -5.665766 -2.761213 0
M  V30 24 C -3.818078 -6.525437 -1.730644 0
M  V30 25 O -4.066419 -7.867255 -1.719412 0
M  V30 26 C -3.154358 -8.851160 -2.176393 0
M  V30 27 F -2.012317 -8.732639 -1.408186 0
M  V30 28 F -2.849187 -8.626270 -3.500709 0
M  V30 29 F -3.642051 -10.110201 -1.977322 0
M  V30 30 C -3.216264 -6.012620 -0.578758 0
M  V30 31 C -2.925038 -4.663692 -0.495234 0
M  V30 32 C -0.782096 0.125733 -0.668367 0
M  V30 33 N 1.259864 3.210318 1.502558 0
M  V30 34 C 1.337473 3.881890 2.655179 0
M  V30 35 N 2.318253 3.653133 3.544220 0
M  V30 36 C 3.218397 2.712146 3.212976 0
M  V30 37 H 3.287805 5.248027 5.824200 0
M  V30 38 H 2.634091 3.611953 6.207382 0
M  V30 39 H 5.992193 1.338040 4.586041 0
M  V30 40 H 5.892111 0.096404 2.510254 0
M  V30 41 H 4.132498 0.510761 0.921751 0
M  V30 42 H 2.713448 0.845858 -0.370517 0
M  V30 43 H 1.154791 1.096189 -1.992364 0
M  V30 44 H 0.994214 2.806616 -1.497435 0
M  V30 45 H -1.008830 3.356908 -0.053331 0
M  V30 46 H -3.233758 2.600378 0.745431 0
M  V30 47 H -2.040638 -2.299948 0.495694 0
M  V30 48 H -4.061797 -3.699221 -3.503258 0
M  V30 49 H -4.576379 -6.078450 -3.652655 0
M  V30 50 H -2.963255 -6.650854 0.273142 0
M  V30 51 H -2.466232 -4.291383 0.391079 0
M  V30 52 H -0.093747 -0.630069 -1.075464 0
M  V30 53 H 0.527311 4.605230 2.759390 0
M  V30 END ATOM
M  V30 BEGIN BOND
M  V30 1 1 1 2
M  V30 2 2 2 3
M  V30 3 1 2 4
M  V30 4 2 4 5
M  V30 5 1 5 6
M  V30 6 2 6 7
M  V30 7 1 7 8
M  V30 8 2 8 9
M  V30 9 1 9 10
M  V30 10 1 10 11
M  V30 11 1 11 12
M  V30 12 2 12 13
M  V30 13 1 13 14
M  V30 14 2 14 15
M  V30 15 1 15 16
M  V30 16 1 15 17
M  V30 17 1 17 18
M  V30 18 1 18 19
M  V30 19 2 19 20
M  V30 20 1 19 21
M  V30 21 2 21 22
M  V30 22 1 22 23
M  V30 23 2 23 24
M  V30 24 1 24 25
M  V30 25 1 25 26
M  V30 26 1 26 27
M  V30 27 1 26 28
M  V30 28 1 26 29
M  V30 29 1 24 30
M  V30 30 2 30 31
M  V30 31 2 17 32
M  V30 32 1 9 33
M  V30 33 2 33 34
M  V30 34 1 34 35
M  V30 35 2 35 36
M  V30 36 1 36 4
M  V30 37 1 36 8
M  V30 38 1 32 12
M  V30 39 1 31 21
M  V30 40 1 1 37
M  V30 41 1 1 38
M  V30 42 1 5 39
M  V30 43 1 6 40
M  V30 44 1 7 41
M  V30 45 1 10 42
M  V30 46 1 11 43
M  V30 47 1 11 44
M  V30 48 1 13 45
M  V30 49 1 14 46
M  V30 50 1 18 47
M  V30 51 1 22 48
M  V30 52 1 23 49
M  V30 53 1 30 50
M  V30 54 1 31 51
M  V30 55 1 32 52
M  V30 56 1 34 53
M  V30 END BOND
M  V30 END CTAB
M  END
>  <Dataset>  (961) 
ChEMBL_Kinases

>  <Ligand_Instance>  (961) 
nan

>  <PDB_ID>  (961) 
nan

>  <Standardized_SMILES>  (961) 
NC(=O)c1cccc2c(NCc3ccc(F)c(NC(=O)c4ccc(OC(F)(F)F)cc4)c3)ncnc12

>  <Name>  (961) 
nan

>  <Pocket>  (961) 
nan

>  <ATP_Site>  (961) 
nan

>  <Peripheral>  (961) 
nan

>  <Num_H_Atoms_ProtBoundConf>  (961) 
nan

>  <Num_Resolved_Atoms>  (961) 
nan

>  <Num_Not_Resolved_Atoms>  (961) 
nan

$$$$
CHEMBL3685286
     RDKit          3D

  0  0  0  0  0  0  0  0  0  0999 V3000
M  V30 BEGIN CTAB
M  V30 COUNTS 72 76 0 0 0
M  V30 BEGIN ATOM
M  V30 1 N 6.967424 1.531622 5.450895 0
M  V30 2 C 6.185222 1.477710 4.237518 0
M  V30 3 O 7.067471 1.593694 3.347735 0
M  V30 4 C 4.733790 1.321349 4.294319 0
M  V30 5 C 4.107877 1.224689 5.520456 0
M  V30 6 C 2.738969 1.080443 5.430176 0
M  V30 7 C 2.028134 1.033254 4.240131 0
M  V30 8 C 2.702969 1.134058 3.062108 0
M  V30 9 C 1.972021 1.084502 1.888771 0
M  V30 10 N 0.543734 0.939198 1.818294 0
M  V30 11 C -0.090178 0.900045 0.489997 0
M  V30 12 C 0.327828 -0.251233 -0.346919 0
M  V30 13 C -0.291105 -0.220848 -1.698761 0
M  V30 14 N 0.069198 -1.319450 -2.542590 0
M  V30 15 C 1.415992 -1.373238 -2.982551 0
M  V30 16 C 1.689083 -2.798561 -3.476686 0
M  V30 17 C 1.642718 -3.768092 -2.310204 0
M  V30 18 C 0.326523 -3.601762 -1.617670 0
M  V30 19 C -0.557859 -2.554788 -2.219462 0
M  V30 20 C -1.564340 0.953904 0.648915 0
M  V30 21 C -1.999958 2.232867 1.013918 0
M  V30 22 C -3.323654 2.508903 1.248479 0
M  V30 23 C -4.268480 1.521068 1.128903 0
M  V30 24 C -3.880462 0.224400 0.765906 0
M  V30 25 N -4.794961 -0.868749 0.651625 0
M  V30 26 C -4.581942 -2.225420 0.254354 0
M  V30 27 O -3.497538 -2.847098 0.844427 0
M  V30 28 C -4.616737 -2.486206 -1.196223 0
M  V30 29 C -5.240229 -3.649965 -1.680894 0
M  V30 30 C -5.364787 -4.031530 -2.999756 0
M  V30 31 C -4.828205 -3.195958 -3.941152 0
M  V30 32 C -4.207827 -2.049475 -3.554507 0
M  V30 33 C -4.115480 -1.723699 -2.228529 0
M  V30 34 C -2.540470 -0.002458 0.541356 0
M  V30 35 N 2.690692 1.188945 0.760418 0
M  V30 36 C 4.025376 1.331999 0.746098 0
M  V30 37 N 4.729183 1.378765 1.913873 0
M  V30 38 C 4.070597 1.279858 3.082865 0
M  V30 39 H 7.346791 0.749924 6.056508 0
M  V30 40 H 7.356991 2.302722 6.038682 0
M  V30 41 H 4.630742 1.257774 6.466020 0
M  V30 42 H 2.187411 0.998543 6.375270 0
M  V30 43 H 0.966334 0.917679 4.311335 0
M  V30 44 H -0.080586 0.858896 2.623494 0
M  V30 45 H 0.274042 1.852949 0.000870 0
M  V30 46 H -0.025020 -1.213287 0.139004 0
M  V30 47 H 1.412838 -0.385541 -0.440231 0
M  V30 48 H -1.381270 -0.119551 -1.682428 0
M  V30 49 H 0.101457 0.703202 -2.220277 0
M  V30 50 H 2.143940 -1.152994 -2.180132 0
M  V30 51 H 1.557121 -0.719414 -3.870114 0
M  V30 52 H 2.718716 -2.819490 -3.896560 0
M  V30 53 H 0.903233 -3.099857 -4.193588 0
M  V30 54 H 2.469606 -3.558965 -1.601351 0
M  V30 55 H 1.810940 -4.796028 -2.687538 0
M  V30 56 H -0.226860 -4.581865 -1.753070 0
M  V30 57 H 0.526982 -3.441714 -0.527822 0
M  V30 58 H -1.401575 -2.410609 -1.495293 0
M  V30 59 H -1.040080 -3.006979 -3.132851 0
M  V30 60 H -1.369588 3.119472 1.149131 0
M  V30 61 H -3.711520 3.479435 1.532727 0
M  V30 62 H -5.307030 1.698672 1.303629 0
M  V30 63 H -5.784134 -0.566825 0.916255 0
M  V30 64 H -5.484284 -2.817887 0.664241 0
M  V30 65 H -3.483706 -2.661815 1.807229 0
M  V30 66 H -5.675894 -4.332685 -0.954077 0
M  V30 67 H -5.858135 -4.937029 -3.265939 0
M  V30 68 H -4.888759 -3.431763 -4.993445 0
M  V30 69 H -3.778343 -1.379741 -4.296643 0
M  V30 70 H -3.631157 -0.820327 -1.965562 0
M  V30 71 H -2.166878 -0.981922 0.280301 0
M  V30 72 H 4.499359 1.406147 -0.222777 0
M  V30 END ATOM
M  V30 BEGIN BOND
M  V30 1 1 1 2
M  V30 2 2 2 3
M  V30 3 1 2 4
M  V30 4 2 4 5
M  V30 5 1 5 6
M  V30 6 2 6 7
M  V30 7 1 7 8
M  V30 8 2 8 9
M  V30 9 1 9 10
M  V30 10 1 10 11
M  V30 11 1 11 12
M  V30 12 1 12 13
M  V30 13 1 13 14
M  V30 14 1 14 15
M  V30 15 1 15 16
M  V30 16 1 16 17
M  V30 17 1 17 18
M  V30 18 1 18 19
M  V30 19 1 11 20
M  V30 20 2 20 21
M  V30 21 1 21 22
M  V30 22 2 22 23
M  V30 23 1 23 24
M  V30 24 1 24 25
M  V30 25 1 25 26
M  V30 26 1 26 27
M  V30 27 1 26 28
M  V30 28 2 28 29
M  V30 29 1 29 30
M  V30 30 2 30 31
M  V30 31 1 31 32
M  V30 32 2 32 33
M  V30 33 2 24 34
M  V30 34 1 9 35
M  V30 35 2 35 36
M  V30 36 1 36 37
M  V30 37 2 37 38
M  V30 38 1 38 4
M  V30 39 1 38 8
M  V30 40 1 19 14
M  V30 41 1 34 20
M  V30 42 1 33 28
M  V30 43 1 1 39
M  V30 44 1 1 40
M  V30 45 1 5 41
M  V30 46 1 6 42
M  V30 47 1 7 43
M  V30 48 1 10 44
M  V30 49 1 11 45
M  V30 50 1 12 46
M  V30 51 1 12 47
M  V30 52 1 13 48
M  V30 53 1 13 49
M  V30 54 1 15 50
M  V30 55 1 15 51
M  V30 56 1 16 52
M  V30 57 1 16 53
M  V30 58 1 17 54
M  V30 59 1 17 55
M  V30 60 1 18 56
M  V30 61 1 18 57
M  V30 62 1 19 58
M  V30 63 1 19 59
M  V30 64 1 21 60
M  V30 65 1 22 61
M  V30 66 1 23 62
M  V30 67 1 25 63
M  V30 68 1 26 64
M  V30 69 1 27 65
M  V30 70 1 29 66
M  V30 71 1 30 67
M  V30 72 1 31 68
M  V30 73 1 32 69
M  V30 74 1 33 70
M  V30 75 1 34 71
M  V30 76 1 36 72
M  V30 END BOND
M  V30 END CTAB
M  END
>  <Dataset>  (962) 
ChEMBL_Kinases

>  <Ligand_Instance>  (962) 
nan

>  <PDB_ID>  (962) 
nan

>  <Standardized_SMILES>  (962) 
NC(=O)c1cccc2c(NC(CCN3CCCCC3)c3cccc(NC(O)c4ccccc4)c3)ncnc12

>  <Name>  (962) 
nan

>  <Pocket>  (962) 
nan

>  <ATP_Site>  (962) 
nan

>  <Peripheral>  (962) 
nan

>  <Num_H_Atoms_ProtBoundConf>  (962) 
nan

>  <Num_Resolved_Atoms>  (962) 
nan

>  <Num_Not_Resolved_Atoms>  (962) 
nan

$$$$
CHEMBL3685285
     RDKit          3D

  0  0  0  0  0  0  0  0  0  0999 V3000
M  V30 BEGIN CTAB
M  V30 COUNTS 67 71 0 0 0
M  V30 BEGIN ATOM
M  V30 1 C 2.714695 -0.801948 6.069263 0
M  V30 2 C 2.349502 -1.042222 4.639219 0
M  V30 3 N 1.705699 0.101945 4.008397 0
M  V30 4 C 2.457337 1.320527 3.859196 0
M  V30 5 N 3.724074 1.391546 4.280077 0
M  V30 6 C 4.483797 2.493363 4.164841 0
M  V30 7 N 3.993313 3.613025 3.603693 0
M  V30 8 C 2.713499 3.622775 3.150185 0
M  V30 9 C 2.158866 4.740654 2.567434 0
M  V30 10 C 3.079948 5.862505 2.501530 0
M  V30 11 N 2.736564 7.112293 1.949508 0
M  V30 12 O 4.250352 5.864268 2.910074 0
M  V30 13 C 0.870436 4.802589 2.093121 0
M  V30 14 C 0.150416 3.623616 2.249079 0
M  V30 15 C 0.673968 2.490200 2.826276 0
M  V30 16 C 1.968358 2.473266 3.287091 0
M  V30 17 C 1.465094 -2.222741 4.466238 0
M  V30 18 C 1.113855 -3.175877 5.398494 0
M  V30 19 C 0.272798 -4.218703 5.072739 0
M  V30 20 C -0.257871 -4.361715 3.804368 0
M  V30 21 C 0.081898 -3.408139 2.837195 0
M  V30 22 N -0.433633 -3.501766 1.513510 0
M  V30 23 C -0.040984 -4.108740 0.300950 0
M  V30 24 O 1.041074 -4.752662 0.329922 0
M  V30 25 C -0.913422 -3.935154 -0.854742 0
M  V30 26 C -2.086654 -3.247164 -0.928384 0
M  V30 27 C -2.813006 -3.165239 -2.098302 0
M  V30 28 C -2.396339 -3.772402 -3.258101 0
M  V30 29 C -3.153535 -3.701728 -4.533045 0
M  V30 30 N -2.737346 -2.558176 -5.334787 0
M  V30 31 C -3.484471 -2.500518 -6.576752 0
M  V30 32 C -4.020754 -1.099996 -6.723846 0
M  V30 33 C -3.150279 -0.295474 -5.791556 0
M  V30 34 C -2.945725 -1.313096 -4.661845 0
M  V30 35 C -1.197176 -4.473706 -3.176458 0
M  V30 36 C -0.456987 -4.562081 -2.000148 0
M  V30 37 C 0.932170 -2.362528 3.184434 0
M  V30 38 H 1.877275 -1.058373 6.762693 0
M  V30 39 H 3.541141 -1.484412 6.368764 0
M  V30 40 H 3.065808 0.232053 6.209848 0
M  V30 41 H 3.335361 -1.211575 4.102730 0
M  V30 42 H 0.721960 -0.010018 3.690491 0
M  V30 43 H 5.491823 2.390879 4.554991 0
M  V30 44 H 2.502748 8.034033 1.572314 0
M  V30 45 H 2.233044 7.598274 1.164980 0
M  V30 46 H 0.492173 5.708961 1.645801 0
M  V30 47 H -0.883964 3.635824 1.881247 0
M  V30 48 H 0.022378 1.647931 2.889646 0
M  V30 49 H 1.551945 -3.025324 6.375243 0
M  V30 50 H 0.037410 -4.934145 5.855921 0
M  V30 51 H -0.919777 -5.181866 3.547266 0
M  V30 52 H -1.289927 -2.932019 1.688654 0
M  V30 53 H -2.404096 -2.773924 -0.009889 0
M  V30 54 H -3.724796 -2.607267 -2.076923 0
M  V30 55 H -2.958810 -4.645802 -5.080673 0
M  V30 56 H -4.229595 -3.584967 -4.327300 0
M  V30 57 H -2.867852 -2.767126 -7.453922 0
M  V30 58 H -4.349015 -3.193214 -6.533053 0
M  V30 59 H -3.915635 -0.725205 -7.779736 0
M  V30 60 H -5.092497 -1.039603 -6.483989 0
M  V30 61 H -3.643984 0.616202 -5.421512 0
M  V30 62 H -2.164014 -0.131771 -6.257898 0
M  V30 63 H -2.110653 -0.944754 -4.059813 0
M  V30 64 H -3.898458 -1.294839 -4.073258 0
M  V30 65 H -0.871227 -4.951880 -4.093988 0
M  V30 66 H 0.457958 -5.137643 -2.070251 0
M  V30 67 H 1.154504 -1.659441 2.387527 0
M  V30 END ATOM
M  V30 BEGIN BOND
M  V30 1 1 1 2
M  V30 2 1 2 3
M  V30 3 1 3 4
M  V30 4 2 4 5
M  V30 5 1 5 6
M  V30 6 2 6 7
M  V30 7 1 7 8
M  V30 8 2 8 9
M  V30 9 1 9 10
M  V30 10 1 10 11
M  V30 11 2 10 12
M  V30 12 1 9 13
M  V30 13 2 13 14
M  V30 14 1 14 15
M  V30 15 2 15 16
M  V30 16 1 2 17
M  V30 17 2 17 18
M  V30 18 1 18 19
M  V30 19 2 19 20
M  V30 20 1 20 21
M  V30 21 1 21 22
M  V30 22 1 22 23
M  V30 23 2 23 24
M  V30 24 1 23 25
M  V30 25 2 25 26
M  V30 26 1 26 27
M  V30 27 2 27 28
M  V30 28 1 28 29
M  V30 29 1 29 30
M  V30 30 1 30 31
M  V30 31 1 31 32
M  V30 32 1 32 33
M  V30 33 1 33 34
M  V30 34 1 28 35
M  V30 35 2 35 36
M  V30 36 2 21 37
M  V30 37 1 16 4
M  V30 38 1 37 17
M  V30 39 1 16 8
M  V30 40 1 36 25
M  V30 41 1 34 30
M  V30 42 1 1 38
M  V30 43 1 1 39
M  V30 44 1 1 40
M  V30 45 1 2 41
M  V30 46 1 3 42
M  V30 47 1 6 43
M  V30 48 1 11 44
M  V30 49 1 11 45
M  V30 50 1 13 46
M  V30 51 1 14 47
M  V30 52 1 15 48
M  V30 53 1 18 49
M  V30 54 1 19 50
M  V30 55 1 20 51
M  V30 56 1 22 52
M  V30 57 1 26 53
M  V30 58 1 27 54
M  V30 59 1 29 55
M  V30 60 1 29 56
M  V30 61 1 31 57
M  V30 62 1 31 58
M  V30 63 1 32 59
M  V30 64 1 32 60
M  V30 65 1 33 61
M  V30 66 1 33 62
M  V30 67 1 34 63
M  V30 68 1 34 64
M  V30 69 1 35 65
M  V30 70 1 36 66
M  V30 71 1 37 67
M  V30 END BOND
M  V30 END CTAB
M  END
>  <Dataset>  (963) 
ChEMBL_Kinases

>  <Ligand_Instance>  (963) 
nan

>  <PDB_ID>  (963) 
nan

>  <Standardized_SMILES>  (963) 
CC(Nc1ncnc2c(C(N)=O)cccc12)c1cccc(NC(=O)c2ccc(CN3CCCC3)cc2)c1

>  <Name>  (963) 
nan

>  <Pocket>  (963) 
nan

>  <ATP_Site>  (963) 
nan

>  <Peripheral>  (963) 
nan

>  <Num_H_Atoms_ProtBoundConf>  (963) 
nan

>  <Num_Resolved_Atoms>  (963) 
nan

>  <Num_Not_Resolved_Atoms>  (963) 
nan

$$$$
CHEMBL5091595
     RDKit          3D

  0  0  0  0  0  0  0  0  0  0999 V3000
M  V30 BEGIN CTAB
M  V30 COUNTS 118 124 0 0 0
M  V30 BEGIN ATOM
M  V30 1 C 6.391665 2.917517 -2.030512 0
M  V30 2 C 6.015772 2.418180 -0.657993 0 CFG=2
M  V30 3 C 7.183949 1.765371 0.013065 0
M  V30 4 C 6.906548 0.300230 0.158925 0 CFG=1
M  V30 5 O 7.156528 -0.161532 1.452291 0
M  V30 6 C 5.453585 0.173373 -0.187575 0
M  V30 7 N 4.657140 -0.907216 -0.096324 0
M  V30 8 C 3.344253 -0.864173 -0.445865 0
M  V30 9 N 2.839507 0.297781 -0.893823 0
M  V30 10 C 3.643952 1.369505 -0.980449 0
M  V30 11 N 2.957998 2.537587 -1.479260 0
M  V30 12 C 3.136763 3.304558 -2.694925 0
M  V30 13 C 1.841997 3.428002 -3.463031 0
M  V30 14 N 0.689846 3.341035 -2.594015 0
M  V30 15 C -0.606803 2.843657 -2.926052 0
M  V30 16 O -1.423305 2.885583 -1.952436 0
M  V30 17 C -1.042737 2.322823 -4.220228 0 CFG=2
M  V30 18 C -2.503947 1.842544 -4.050632 0
M  V30 19 N -2.611022 0.821732 -3.087739 0
M  V30 20 C -3.910605 0.334847 -2.757610 0
M  V30 21 C -3.734483 -0.790791 -1.734073 0
M  V30 22 C -2.944774 -1.830726 -2.429427 0
M  V30 23 O -2.951723 -1.277350 -3.583773 0
M  V30 24 N -2.297969 -3.060629 -2.199193 0
M  V30 25 C -1.737404 -3.482254 -3.440387 0
M  V30 26 C -1.014343 -4.773245 -3.433759 0
M  V30 27 C 0.194136 -4.913008 -2.608327 0
M  V30 28 C 0.022480 -4.694524 -1.117046 0
M  V30 29 C -0.948532 -5.649937 -0.524556 0
M  V30 30 C -1.208109 -5.658401 0.914866 0
M  V30 31 C -1.780188 -4.529228 1.670018 0
M  V30 32 C -1.073056 -3.225838 1.725072 0
M  V30 33 N -1.783323 -2.317770 2.666062 0
M  V30 34 C -1.716185 -2.497070 4.067638 0
M  V30 35 C -0.935598 -3.526505 4.574034 0
M  V30 36 C -0.817977 -3.736222 5.920734 0
M  V30 37 C -1.476742 -2.923675 6.829110 0
M  V30 38 C -2.248590 -1.902251 6.288141 0
M  V30 39 C -2.386539 -1.667046 4.941003 0
M  V30 40 C -3.256233 -0.518306 4.732463 0
M  V30 41 O -3.574996 -0.056829 3.622448 0
M  V30 42 N -3.641426 -0.064789 6.036498 0
M  V30 43 C -4.490126 1.054762 6.352766 0
M  V30 44 C -3.792598 2.307278 5.831161 0
M  V30 45 C -4.787150 3.375975 5.501837 0
M  V30 46 C -5.565329 2.979559 4.280727 0
M  V30 47 O -5.818448 3.455772 3.154360 0
M  V30 48 N -6.158099 1.690449 4.542079 0
M  V30 49 C -5.814569 0.936658 5.697405 0
M  V30 50 O -6.544371 0.106680 6.298408 0
M  V30 51 C -3.025471 -0.913311 7.023862 0
M  V30 52 O -3.153352 -0.795930 8.251622 0
M  V30 53 C -0.286185 1.195012 -4.759420 0
M  V30 54 C -0.191686 1.204878 -6.157763 0
M  V30 55 C 0.499329 0.208215 -6.820737 0
M  V30 56 C 1.121127 -0.830425 -6.147886 0
M  V30 57 Cl 2.004958 -2.106954 -6.944945 0
M  V30 58 C 1.041341 -0.861785 -4.755743 0
M  V30 59 C 0.342350 0.152497 -4.142213 0
M  V30 60 C 0.974700 3.845618 -1.264057 0
M  V30 61 C 1.937030 2.949654 -0.521541 0
M  V30 62 C 4.980252 1.385526 -0.641584 0
M  V30 63 H 6.182650 2.192756 -2.834715 0
M  V30 64 H 5.934833 3.911641 -2.195285 0
M  V30 65 H 7.486516 3.094228 -2.018582 0
M  V30 66 H 5.761337 3.317781 -0.028027 0
M  V30 67 H 7.437121 2.177326 1.012597 0
M  V30 68 H 8.110968 1.958994 -0.595982 0
M  V30 69 H 7.468973 -0.252355 -0.604127 0
M  V30 70 H 6.910635 -1.122593 1.479372 0
M  V30 71 H 2.837256 -1.807339 -0.318550 0
M  V30 72 H 3.595244 4.299534 -2.504126 0
M  V30 73 H 3.847659 2.759041 -3.380140 0
M  V30 74 H 1.856376 4.423867 -4.003526 0
M  V30 75 H 1.771284 2.647676 -4.263986 0
M  V30 76 H -1.063216 3.163450 -4.956734 0
M  V30 77 H -3.056162 2.773683 -3.762998 0
M  V30 78 H -2.866693 1.493444 -5.054152 0
M  V30 79 H -1.898425 0.700969 -2.379380 0
M  V30 80 H -4.441472 -0.069881 -3.624202 0
M  V30 81 H -4.562095 1.089143 -2.283812 0
M  V30 82 H -4.749625 -1.128005 -1.461578 0
M  V30 83 H -3.158318 -0.394545 -0.878842 0
M  V30 84 H -2.476948 -3.214710 -1.173491 0
M  V30 85 H -1.023245 -2.690405 -3.804325 0
M  V30 86 H -2.511505 -3.547152 -4.253396 0
M  V30 87 H -1.744612 -5.578095 -3.110718 0
M  V30 88 H -0.817634 -5.043737 -4.513543 0
M  V30 89 H 0.963811 -4.183808 -2.963427 0
M  V30 90 H 0.625486 -5.949483 -2.708885 0
M  V30 91 H 1.061525 -4.906898 -0.690969 0
M  V30 92 H -0.173126 -3.640056 -0.919028 0
M  V30 93 H -0.620661 -6.703388 -0.862949 0
M  V30 94 H -1.926306 -5.543812 -1.100432 0
M  V30 95 H -1.883237 -6.575087 1.107452 0
M  V30 96 H -0.237031 -6.023043 1.440275 0
M  V30 97 H -2.129564 -4.864416 2.694909 0
M  V30 98 H -2.796922 -4.319734 1.173307 0
M  V30 99 H -0.030380 -3.358405 2.048919 0
M  V30 100 H -1.051643 -2.702025 0.739791 0
M  V30 101 H -2.344960 -1.525308 2.292109 0
M  V30 102 H -0.350524 -4.231364 4.012041 0
M  V30 103 H -0.221054 -4.528313 6.383844 0
M  V30 104 H -1.387591 -3.084701 7.908258 0
M  V30 105 H -4.608127 1.152483 7.468582 0
M  V30 106 H -3.291453 2.005337 4.888392 0
M  V30 107 H -3.062502 2.691961 6.571598 0
M  V30 108 H -5.459902 3.609866 6.351041 0
M  V30 109 H -4.254150 4.308747 5.242403 0
M  V30 110 H -6.874417 1.202380 3.928689 0
M  V30 111 H -0.602239 1.922103 -6.886129 0
M  V30 112 H 0.629844 0.127483 -7.896764 0
M  V30 113 H 1.499912 -1.635034 -4.171555 0
M  V30 114 H 0.276239 0.150210 -3.071506 0
M  V30 115 H 0.049390 3.953648 -0.659423 0
M  V30 116 H 1.450678 4.834882 -1.379775 0
M  V30 117 H 1.397645 2.079843 -0.125467 0
M  V30 118 H 2.391943 3.485247 0.352555 0
M  V30 END ATOM
M  V30 BEGIN BOND
M  V30 1 1 1 2
M  V30 2 1 2 3
M  V30 3 1 3 4
M  V30 4 1 4 5
M  V30 5 1 4 6
M  V30 6 2 6 7
M  V30 7 1 7 8
M  V30 8 2 8 9
M  V30 9 1 9 10
M  V30 10 1 10 11
M  V30 11 1 11 12
M  V30 12 1 12 13
M  V30 13 1 13 14
M  V30 14 1 14 15
M  V30 15 2 15 16
M  V30 16 1 15 17
M  V30 17 1 17 18
M  V30 18 1 18 19
M  V30 19 1 19 20
M  V30 20 1 20 21
M  V30 21 1 21 22
M  V30 22 2 22 23
M  V30 23 1 22 24
M  V30 24 1 24 25
M  V30 25 1 25 26
M  V30 26 1 26 27
M  V30 27 1 27 28
M  V30 28 1 28 29
M  V30 29 1 29 30
M  V30 30 1 30 31
M  V30 31 1 31 32
M  V30 32 1 32 33
M  V30 33 1 33 34
M  V30 34 2 34 35
M  V30 35 1 35 36
M  V30 36 2 36 37
M  V30 37 1 37 38
M  V30 38 2 38 39
M  V30 39 1 39 40
M  V30 40 2 40 41
M  V30 41 1 40 42
M  V30 42 1 42 43
M  V30 43 1 43 44
M  V30 44 1 44 45
M  V30 45 1 45 46
M  V30 46 2 46 47
M  V30 47 1 46 48
M  V30 48 1 48 49
M  V30 49 2 49 50
M  V30 50 1 42 51
M  V30 51 2 51 52
M  V30 52 1 17 53
M  V30 53 2 53 54
M  V30 54 1 54 55
M  V30 55 2 55 56
M  V30 56 1 56 57
M  V30 57 1 56 58
M  V30 58 2 58 59
M  V30 59 1 14 60
M  V30 60 1 60 61
M  V30 61 2 10 62
M  V30 62 1 62 2
M  V30 63 1 62 6
M  V30 64 1 61 11
M  V30 65 1 39 34
M  V30 66 1 49 43
M  V30 67 1 59 53
M  V30 68 1 51 38
M  V30 69 1 1 63
M  V30 70 1 1 64
M  V30 71 1 1 65
M  V30 72 1 2 66 CFG=1
M  V30 73 1 3 67
M  V30 74 1 3 68
M  V30 75 1 4 69 CFG=3
M  V30 76 1 5 70
M  V30 77 1 8 71
M  V30 78 1 12 72
M  V30 79 1 12 73
M  V30 80 1 13 74
M  V30 81 1 13 75
M  V30 82 1 17 76 CFG=3
M  V30 83 1 18 77
M  V30 84 1 18 78
M  V30 85 1 19 79
M  V30 86 1 20 80
M  V30 87 1 20 81
M  V30 88 1 21 82
M  V30 89 1 21 83
M  V30 90 1 24 84
M  V30 91 1 25 85
M  V30 92 1 25 86
M  V30 93 1 26 87
M  V30 94 1 26 88
M  V30 95 1 27 89
M  V30 96 1 27 90
M  V30 97 1 28 91
M  V30 98 1 28 92
M  V30 99 1 29 93
M  V30 100 1 29 94
M  V30 101 1 30 95
M  V30 102 1 30 96
M  V30 103 1 31 97
M  V30 104 1 31 98
M  V30 105 1 32 99
M  V30 106 1 32 100
M  V30 107 1 33 101
M  V30 108 1 35 102
M  V30 109 1 36 103
M  V30 110 1 37 104
M  V30 111 1 43 105
M  V30 112 1 44 106
M  V30 113 1 44 107
M  V30 114 1 45 108
M  V30 115 1 45 109
M  V30 116 1 48 110
M  V30 117 1 54 111
M  V30 118 1 55 112
M  V30 119 1 58 113
M  V30 120 1 59 114
M  V30 121 1 60 115
M  V30 122 1 60 116
M  V30 123 1 61 117
M  V30 124 1 61 118
M  V30 END BOND
M  V30 END CTAB
M  END
>  <Dataset>  (964) 
ChEMBL_Kinases

>  <Ligand_Instance>  (964) 
nan

>  <PDB_ID>  (964) 
nan

>  <Standardized_SMILES>  (964) 
C[C@@H]1C[C@@H](O)c2ncnc(N3CCN(C(=O)[C@H](CNCCC(=O)NCCCCCCCCNc4cccc5c4C(=O)N(C4CCC(=O)NC4=O)C5=O)c4ccc(Cl)cc4)CC3)c21

>  <Name>  (964) 
nan

>  <Pocket>  (964) 
nan

>  <ATP_Site>  (964) 
nan

>  <Peripheral>  (964) 
nan

>  <Num_H_Atoms_ProtBoundConf>  (964) 
nan

>  <Num_Resolved_Atoms>  (964) 
nan

>  <Num_Not_Resolved_Atoms>  (964) 
nan

$$$$
CHEMBL3675465
     RDKit          3D

  0  0  0  0  0  0  0  0  0  0999 V3000
M  V30 BEGIN CTAB
M  V30 COUNTS 61 64 0 0 0
M  V30 BEGIN ATOM
M  V30 1 C 0.494597 -2.266443 4.862984 0
M  V30 2 C -0.035747 -1.049342 4.154258 0
M  V30 3 N 0.924401 -0.482062 3.226946 0
M  V30 4 C 2.174850 -0.031157 3.752373 0
M  V30 5 N 2.442532 -0.133331 5.060690 0
M  V30 6 C 3.571278 0.257500 5.632784 0
M  V30 7 N 4.548372 0.798791 4.906116 0
M  V30 8 C 4.377625 0.944949 3.584204 0
M  V30 9 C 5.330982 1.493647 2.752169 0
M  V30 10 C 6.593543 1.941756 3.324025 0
M  V30 11 N 7.043624 1.911260 4.666281 0
M  V30 12 O 7.566061 2.458838 2.735569 0
M  V30 13 C 5.195752 1.658453 1.410569 0
M  V30 14 C 3.985386 1.229550 0.856240 0
M  V30 15 C 3.009675 0.676397 1.657158 0
M  V30 16 C 3.194091 0.530478 3.012728 0
M  V30 17 C -1.322977 -1.333288 3.471875 0
M  V30 18 C -2.513929 -0.976876 4.078845 0
M  V30 19 C -3.756050 -1.203091 3.516437 0
M  V30 20 C -3.765761 -1.827469 2.267217 0
M  V30 21 C -2.581948 -2.177168 1.673034 0
M  V30 22 N -2.707101 -2.816775 0.383583 0
M  V30 23 C -2.696412 -1.839837 -0.640227 0
M  V30 24 O -2.589693 -0.611808 -0.380120 0
M  V30 25 C -2.808649 -2.201554 -2.055953 0
M  V30 26 C -2.802936 -1.285695 -3.085655 0
M  V30 27 C -2.924627 -1.942789 -4.294759 0
M  V30 28 C -2.971686 -1.430363 -5.705129 0
M  V30 29 C -4.409716 -1.153272 -6.090376 0
M  V30 30 C -2.406960 -2.477986 -6.635744 0
M  V30 31 C -2.201269 -0.154644 -5.780279 0
M  V30 32 N -3.001831 -3.260775 -3.955528 0
M  V30 33 N -2.932987 -3.403195 -2.640456 0
M  V30 34 C -1.343397 -1.948467 2.240126 0
M  V30 35 H 1.081126 -1.963646 5.737683 0
M  V30 36 H 1.057413 -2.864119 4.132689 0
M  V30 37 H -0.378016 -2.830197 5.268527 0
M  V30 38 H -0.218301 -0.288668 4.969448 0
M  V30 39 H 0.637177 -0.441270 2.234435 0
M  V30 40 H 3.595049 0.090023 6.702912 0
M  V30 41 H 7.510711 1.151961 5.202392 0
M  V30 42 H 6.946367 2.724263 5.325857 0
M  V30 43 H 5.945131 2.088847 0.761973 0
M  V30 44 H 3.833667 1.341710 -0.210696 0
M  V30 45 H 2.104867 0.370439 1.154348 0
M  V30 46 H -2.461004 -0.487683 5.061544 0
M  V30 47 H -4.635846 -0.890003 4.064353 0
M  V30 48 H -4.744702 -2.001830 1.831872 0
M  V30 49 H -2.797838 -3.847852 0.146478 0
M  V30 50 H -2.721187 -0.214716 -3.046327 0
M  V30 51 H -4.671742 -0.092017 -6.019776 0
M  V30 52 H -5.075868 -1.694003 -5.374183 0
M  V30 53 H -4.651754 -1.588225 -7.091300 0
M  V30 54 H -1.379664 -2.155630 -6.920374 0
M  V30 55 H -3.002219 -2.499475 -7.567997 0
M  V30 56 H -2.316063 -3.464909 -6.138389 0
M  V30 57 H -1.381242 -0.288274 -6.544572 0
M  V30 58 H -2.844789 0.683751 -6.067794 0
M  V30 59 H -1.738050 0.128392 -4.804044 0
M  V30 60 H -2.963206 -4.278507 -2.066808 0
M  V30 61 H -0.436921 -2.243210 1.731198 0
M  V30 END ATOM
M  V30 BEGIN BOND
M  V30 1 1 1 2
M  V30 2 1 2 3
M  V30 3 1 3 4
M  V30 4 2 4 5
M  V30 5 1 5 6
M  V30 6 2 6 7
M  V30 7 1 7 8
M  V30 8 2 8 9
M  V30 9 1 9 10
M  V30 10 1 10 11
M  V30 11 2 10 12
M  V30 12 1 9 13
M  V30 13 2 13 14
M  V30 14 1 14 15
M  V30 15 2 15 16
M  V30 16 1 2 17
M  V30 17 2 17 18
M  V30 18 1 18 19
M  V30 19 2 19 20
M  V30 20 1 20 21
M  V30 21 1 21 22
M  V30 22 1 22 23
M  V30 23 2 23 24
M  V30 24 1 23 25
M  V30 25 2 25 26
M  V30 26 1 26 27
M  V30 27 1 27 28
M  V30 28 1 28 29
M  V30 29 1 28 30
M  V30 30 1 28 31
M  V30 31 2 27 32
M  V30 32 1 32 33
M  V30 33 2 21 34
M  V30 34 1 16 4
M  V30 35 1 34 17
M  V30 36 1 16 8
M  V30 37 1 33 25
M  V30 38 1 1 35
M  V30 39 1 1 36
M  V30 40 1 1 37
M  V30 41 1 2 38
M  V30 42 1 3 39
M  V30 43 1 6 40
M  V30 44 1 11 41
M  V30 45 1 11 42
M  V30 46 1 13 43
M  V30 47 1 14 44
M  V30 48 1 15 45
M  V30 49 1 18 46
M  V30 50 1 19 47
M  V30 51 1 20 48
M  V30 52 1 22 49
M  V30 53 1 26 50
M  V30 54 1 29 51
M  V30 55 1 29 52
M  V30 56 1 29 53
M  V30 57 1 30 54
M  V30 58 1 30 55
M  V30 59 1 30 56
M  V30 60 1 31 57
M  V30 61 1 31 58
M  V30 62 1 31 59
M  V30 63 1 33 60
M  V30 64 1 34 61
M  V30 END BOND
M  V30 END CTAB
M  END
>  <Dataset>  (965) 
ChEMBL_Kinases

>  <Ligand_Instance>  (965) 
nan

>  <PDB_ID>  (965) 
nan

>  <Standardized_SMILES>  (965) 
CC(Nc1ncnc2c(C(N)=O)cccc12)c1cccc(NC(=O)c2cc(C(C)(C)C)n[nH]2)c1

>  <Name>  (965) 
nan

>  <Pocket>  (965) 
nan

>  <ATP_Site>  (965) 
nan

>  <Peripheral>  (965) 
nan

>  <Num_H_Atoms_ProtBoundConf>  (965) 
nan

>  <Num_Resolved_Atoms>  (965) 
nan

>  <Num_Not_Resolved_Atoms>  (965) 
nan

$$$$
CHEMBL3675363
     RDKit          3D

  0  0  0  0  0  0  0  0  0  0999 V3000
M  V30 BEGIN CTAB
M  V30 COUNTS 36 38 0 0 0
M  V30 BEGIN ATOM
M  V30 1 N -0.717307 -5.504579 3.745373 0
M  V30 2 C -1.073377 -4.353533 2.988237 0
M  V30 3 O -2.241741 -4.024922 3.318188 0
M  V30 4 C -0.149316 -3.757814 2.028964 0
M  V30 5 C 1.092320 -4.337182 1.866172 0
M  V30 6 C 1.952510 -3.759820 0.954592 0
M  V30 7 C 1.548747 -2.644567 0.251081 0
M  V30 8 C 0.315462 -2.043682 0.392032 0
M  V30 9 C -0.052762 -0.931115 -0.327446 0
M  V30 10 N 0.808453 -0.340424 -1.254489 0
M  V30 11 C 0.513781 0.836130 -2.061793 0
M  V30 12 C 0.263582 2.052022 -1.247123 0
M  V30 13 C -0.895637 2.614949 -0.758745 0
M  V30 14 C -0.834745 3.765859 -0.004125 0
M  V30 15 C 0.345614 4.402699 0.297992 0
M  V30 16 C 1.512416 3.849292 -0.185288 0
M  V30 17 O 2.677915 4.522910 0.142412 0
M  V30 18 C 1.465898 2.696787 -0.942202 0
M  V30 19 N -1.265602 -0.476045 -0.077907 0
M  V30 20 C -2.073695 -1.064546 0.816098 0
M  V30 21 N -1.741770 -2.152925 1.534415 0
M  V30 22 C -0.508211 -2.655768 1.313260 0
M  V30 23 H -1.300963 -6.357714 3.916547 0
M  V30 24 H 0.187959 -5.649601 4.236674 0
M  V30 25 H 1.401793 -5.208562 2.418931 0
M  V30 26 H 2.927550 -4.219996 0.831012 0
M  V30 27 H 2.273198 -2.269671 -0.425722 0
M  V30 28 H 1.748973 -0.685233 -1.457947 0
M  V30 29 H -0.453873 0.555085 -2.590236 0
M  V30 30 H 1.247839 1.034355 -2.854230 0
M  V30 31 H -1.767259 2.054384 -1.049745 0
M  V30 32 H -1.787300 4.146574 0.343427 0
M  V30 33 H 0.349654 5.304675 0.893804 0
M  V30 34 H 3.025476 4.677971 1.069420 0
M  V30 35 H 2.473569 2.380552 -1.252725 0
M  V30 36 H -3.055487 -0.583416 0.926076 0
M  V30 END ATOM
M  V30 BEGIN BOND
M  V30 1 1 1 2
M  V30 2 2 2 3
M  V30 3 1 2 4
M  V30 4 2 4 5
M  V30 5 1 5 6
M  V30 6 2 6 7
M  V30 7 1 7 8
M  V30 8 2 8 9
M  V30 9 1 9 10
M  V30 10 1 10 11
M  V30 11 1 11 12
M  V30 12 2 12 13
M  V30 13 1 13 14
M  V30 14 2 14 15
M  V30 15 1 15 16
M  V30 16 1 16 17
M  V30 17 2 16 18
M  V30 18 1 9 19
M  V30 19 2 19 20
M  V30 20 1 20 21
M  V30 21 2 21 22
M  V30 22 1 22 4
M  V30 23 1 22 8
M  V30 24 1 18 12
M  V30 25 1 1 23
M  V30 26 1 1 24
M  V30 27 1 5 25
M  V30 28 1 6 26
M  V30 29 1 7 27
M  V30 30 1 10 28
M  V30 31 1 11 29
M  V30 32 1 11 30
M  V30 33 1 13 31
M  V30 34 1 14 32
M  V30 35 1 15 33
M  V30 36 1 17 34
M  V30 37 1 18 35
M  V30 38 1 20 36
M  V30 END BOND
M  V30 END CTAB
M  END
>  <Dataset>  (966) 
ChEMBL_Kinases

>  <Ligand_Instance>  (966) 
nan

>  <PDB_ID>  (966) 
nan

>  <Standardized_SMILES>  (966) 
NC(=O)c1cccc2c(NCc3cccc(O)c3)ncnc12

>  <Name>  (966) 
nan

>  <Pocket>  (966) 
nan

>  <ATP_Site>  (966) 
nan

>  <Peripheral>  (966) 
nan

>  <Num_H_Atoms_ProtBoundConf>  (966) 
nan

>  <Num_Resolved_Atoms>  (966) 
nan

>  <Num_Not_Resolved_Atoms>  (966) 
nan

$$$$
CHEMBL3675365
     RDKit          3D

  0  0  0  0  0  0  0  0  0  0999 V3000
M  V30 BEGIN CTAB
M  V30 COUNTS 38 40 0 0 0
M  V30 BEGIN ATOM
M  V30 1 N 6.154897 -3.387577 -0.643307 0
M  V30 2 C 5.144020 -2.484814 -1.072264 0
M  V30 3 O 5.496138 -2.117667 -2.199301 0
M  V30 4 C 4.044872 -2.253135 -0.134410 0
M  V30 5 C 3.975145 -2.865706 1.088845 0
M  V30 6 C 2.884928 -2.545701 1.855798 0
M  V30 7 C 1.910981 -1.666611 1.441391 0
M  V30 8 C 2.019924 -1.073433 0.204815 0
M  V30 9 C 1.018435 -0.197135 -0.172020 0
M  V30 10 N -0.124099 0.147274 0.617800 0
M  V30 11 C -1.088319 1.092603 0.066002 0
M  V30 12 C -2.178522 1.309032 1.045855 0
M  V30 13 C -2.148920 2.289667 2.004796 0
M  V30 14 C -3.208017 2.438721 2.898374 0
M  V30 15 C -4.265896 1.565072 2.769391 0
M  V30 16 Cl -5.637929 1.691412 3.862203 0
M  V30 17 C -4.298133 0.578499 1.806340 0
M  V30 18 C -5.476035 -0.335161 1.725453 0
M  V30 19 F -5.569643 -1.006344 2.950113 0
M  V30 20 F -5.258767 -1.280592 0.754649 0
M  V30 21 F -6.587075 0.415928 1.491028 0
M  V30 22 C -3.252154 0.419951 0.912281 0
M  V30 23 N 1.179567 0.346937 -1.384745 0
M  V30 24 C 2.208322 0.097159 -2.206188 0
M  V30 25 N 3.200247 -0.764191 -1.844803 0
M  V30 26 C 3.102972 -1.348148 -0.637864 0
M  V30 27 H 6.952331 -3.911706 -1.056882 0
M  V30 28 H 6.434905 -3.836710 0.273643 0
M  V30 29 H 4.745869 -3.556486 1.408768 0
M  V30 30 H 2.825307 -3.031993 2.831580 0
M  V30 31 H 1.097769 -1.488923 2.127329 0
M  V30 32 H -0.321013 -0.229528 1.565788 0
M  V30 33 H -1.480675 0.724366 -0.894549 0
M  V30 34 H -0.605735 2.082212 -0.083189 0
M  V30 35 H -1.286007 2.962053 2.070000 0
M  V30 36 H -3.166420 3.216877 3.647111 0
M  V30 37 H -3.293877 -0.356245 0.166501 0
M  V30 38 H 2.325327 0.538907 -3.174152 0
M  V30 END ATOM
M  V30 BEGIN BOND
M  V30 1 1 1 2
M  V30 2 2 2 3
M  V30 3 1 2 4
M  V30 4 2 4 5
M  V30 5 1 5 6
M  V30 6 2 6 7
M  V30 7 1 7 8
M  V30 8 2 8 9
M  V30 9 1 9 10
M  V30 10 1 10 11
M  V30 11 1 11 12
M  V30 12 2 12 13
M  V30 13 1 13 14
M  V30 14 2 14 15
M  V30 15 1 15 16
M  V30 16 1 15 17
M  V30 17 1 17 18
M  V30 18 1 18 19
M  V30 19 1 18 20
M  V30 20 1 18 21
M  V30 21 2 17 22
M  V30 22 1 9 23
M  V30 23 2 23 24
M  V30 24 1 24 25
M  V30 25 2 25 26
M  V30 26 1 26 4
M  V30 27 1 26 8
M  V30 28 1 22 12
M  V30 29 1 1 27
M  V30 30 1 1 28
M  V30 31 1 5 29
M  V30 32 1 6 30
M  V30 33 1 7 31
M  V30 34 1 10 32
M  V30 35 1 11 33
M  V30 36 1 11 34
M  V30 37 1 13 35
M  V30 38 1 14 36
M  V30 39 1 22 37
M  V30 40 1 24 38
M  V30 END BOND
M  V30 END CTAB
M  END
>  <Dataset>  (967) 
ChEMBL_Kinases

>  <Ligand_Instance>  (967) 
nan

>  <PDB_ID>  (967) 
nan

>  <Standardized_SMILES>  (967) 
NC(=O)c1cccc2c(NCc3ccc(Cl)c(C(F)(F)F)c3)ncnc12

>  <Name>  (967) 
nan

>  <Pocket>  (967) 
nan

>  <ATP_Site>  (967) 
nan

>  <Peripheral>  (967) 
nan

>  <Num_H_Atoms_ProtBoundConf>  (967) 
nan

>  <Num_Resolved_Atoms>  (967) 
nan

>  <Num_Not_Resolved_Atoms>  (967) 
nan

$$$$
CHEMBL5088272
     RDKit          3D

  0  0  0  0  0  0  0  0  0  0999 V3000
M  V30 BEGIN CTAB
M  V30 COUNTS 160 167 0 0 0
M  V30 BEGIN ATOM
M  V30 1 C 6.329771 0.119249 -4.657153 0
M  V30 2 C 5.745842 -0.669858 -5.764767 0
M  V30 3 N 6.398808 -1.591662 -6.435652 0
M  V30 4 C 6.010704 -2.257158 -7.334451 0
M  V30 5 S 4.245609 -1.630219 -7.514417 0
M  V30 6 C 4.418895 -0.454837 -6.173159 0
M  V30 7 C 3.324874 0.414698 -5.786789 0
M  V30 8 C 2.171544 0.297158 -6.551872 0
M  V30 9 C 1.059787 1.099600 -6.270778 0
M  V30 10 C 1.064050 2.006155 -5.260971 0
M  V30 11 C -0.068935 2.904418 -5.012831 0
M  V30 12 N -1.136112 2.356783 -4.244452 0
M  V30 13 C -1.204808 2.088052 -2.824339 0
M  V30 14 O -0.030936 2.440462 -2.538008 0
M  V30 15 C -2.547583 1.573688 -2.466108 0 CFG=2
M  V30 16 C -3.501091 2.771812 -2.751776 0
M  V30 17 C -2.869764 3.733670 -1.729462 0 CFG=1
M  V30 18 O -3.798249 4.557402 -1.144989 0
M  V30 19 C -2.231983 2.779855 -0.700979 0
M  V30 20 N -2.794114 1.470987 -1.042296 0
M  V30 21 C -3.426470 0.392594 -0.269294 0
M  V30 22 O -3.930721 -0.661905 -0.746685 0
M  V30 23 C -3.385717 0.740321 1.155228 0 CFG=1
M  V30 24 N -4.405846 0.092672 1.983849 0
M  V30 25 C -5.114071 1.051702 2.757125 0
M  V30 26 O -4.947811 2.283503 2.734012 0
M  V30 27 C -6.116299 1.523302 3.762239 0
M  V30 28 C -6.055760 2.985064 3.996480 0
M  V30 29 C -4.794284 3.576847 4.534008 0
M  V30 30 C -4.961202 5.073012 4.712527 0
M  V30 31 C -3.826644 5.862246 5.179247 0
M  V30 32 C -2.621138 6.091665 4.394346 0
M  V30 33 C -1.759773 4.984978 3.893795 0
M  V30 34 C -0.523967 5.585241 3.180550 0
M  V30 35 C 0.404238 4.558735 2.628377 0
M  V30 36 C 0.943288 3.649382 3.686469 0
M  V30 37 C 1.898441 2.625250 3.199637 0
M  V30 38 O 2.315825 2.116084 4.304325 0
M  V30 39 N 2.495368 2.023915 2.052543 0
M  V30 40 C 2.340566 2.261693 0.664724 0
M  V30 41 C 2.805160 1.221283 -0.292944 0
M  V30 42 N 2.695100 -0.109854 0.156233 0
M  V30 43 C 3.429693 -1.083856 -0.578615 0
M  V30 44 C 3.056623 -1.444380 -1.942812 0
M  V30 45 C 1.692172 -2.062674 -2.098710 0 CFG=2
M  V30 46 N 1.631824 -3.310588 -1.312431 0
M  V30 47 C 0.499051 -3.701427 -0.550043 0
M  V30 48 O -0.409188 -2.811258 -0.662854 0
M  V30 49 C 0.448055 -4.962564 0.229544 0
M  V30 50 N 1.692644 -5.737104 0.106976 0
M  V30 51 C 0.095001 -4.763065 1.681764 0
M  V30 52 C 0.293467 -6.083660 2.392945 0
M  V30 53 N -0.322245 -7.159409 1.657411 0
M  V30 54 C -0.139558 -8.562139 1.658047 0
M  V30 55 N 0.220261 -9.105745 0.475347 0
M  V30 56 C 0.412787 -10.436809 0.368171 0
M  V30 57 N 0.257434 -11.261880 1.418597 0
M  V30 58 C -0.100821 -10.752556 2.613113 0
M  V30 59 N -0.333291 -11.277554 3.819745 0
M  V30 60 C -0.667224 -10.305783 4.679842 0
M  V30 61 C -0.668117 -9.075678 4.060214 0
M  V30 62 C -0.303854 -9.393455 2.745885 0
M  V30 63 C -1.323931 -6.646791 0.733613 0
M  V30 64 C -0.630623 -5.847951 -0.379033 0
M  V30 65 C 1.619529 -2.581246 -3.525171 0
M  V30 66 C 2.469457 -3.628854 -3.869734 0
M  V30 67 C 2.420550 -4.145101 -5.138853 0
M  V30 68 C 1.564308 -3.674848 -6.103899 0
M  V30 69 Cl 1.396476 -4.233917 -7.744001 0
M  V30 70 C 0.732048 -2.642086 -5.752703 0
M  V30 71 C 0.763294 -2.103209 -4.474104 0
M  V30 72 C 3.006988 -0.303126 1.552143 0
M  V30 73 C 3.452230 0.976926 2.212508 0
M  V30 74 C -2.098486 0.132982 1.798420 0
M  V30 75 C -2.102196 -1.365270 1.691962 0
M  V30 76 C -2.178379 0.515521 3.256974 0
M  V30 77 C -0.852907 0.693299 1.214510 0
M  V30 78 C 2.206443 2.147372 -4.472639 0
M  V30 79 C 3.260418 1.338290 -4.792514 0
M  V30 80 H 5.832964 -0.037330 -3.678231 0
M  V30 81 H 6.328684 1.222344 -4.847377 0
M  V30 82 H 7.427532 -0.121765 -4.527441 0
M  V30 83 H 6.531617 -3.026169 -7.908965 0
M  V30 84 H 1.974955 -0.368778 -7.397752 0
M  V30 85 H 0.150687 1.036809 -6.837674 0
M  V30 86 H -0.437127 3.354516 -5.983529 0
M  V30 87 H 0.329665 3.816284 -4.466923 0
M  V30 88 H -1.953034 2.141514 -4.908529 0
M  V30 89 H -2.807423 0.700387 -3.027528 0
M  V30 90 H -4.523969 2.496286 -2.486151 0
M  V30 91 H -3.318211 3.077456 -3.772023 0
M  V30 92 H -2.097960 4.307822 -2.266681 0
M  V30 93 H -4.529652 3.979100 -0.772148 0
M  V30 94 H -2.519329 3.119419 0.326516 0
M  V30 95 H -1.163213 2.860630 -0.744918 0
M  V30 96 H -3.336600 1.778491 1.380332 0
M  V30 97 H -4.964303 -0.721776 2.374517 0
M  V30 98 H -5.797230 1.010085 4.716900 0
M  V30 99 H -7.122891 1.163479 3.532697 0
M  V30 100 H -6.896771 3.219534 4.719341 0
M  V30 101 H -6.365831 3.532555 3.054036 0
M  V30 102 H -3.854051 3.361700 4.089188 0
M  V30 103 H -4.699033 3.105966 5.594158 0
M  V30 104 H -5.363582 5.424051 3.717391 0
M  V30 105 H -5.873155 5.171578 5.388942 0
M  V30 106 H -4.257296 6.914137 5.390574 0
M  V30 107 H -3.571788 5.519974 6.243588 0
M  V30 108 H -2.949488 6.753228 3.502628 0
M  V30 109 H -1.904812 6.825477 4.913013 0
M  V30 110 H -1.461434 4.289632 4.665529 0
M  V30 111 H -2.285609 4.489559 3.020569 0
M  V30 112 H -0.953866 6.148949 2.300517 0
M  V30 113 H -0.038197 6.362846 3.804394 0
M  V30 114 H -0.143082 3.956105 1.872235 0
M  V30 115 H 1.252258 5.114132 2.152033 0
M  V30 116 H 1.480144 4.338955 4.411274 0
M  V30 117 H 0.129741 3.177430 4.252333 0
M  V30 118 H 2.946931 3.219648 0.465480 0
M  V30 119 H 1.253226 2.528627 0.490225 0
M  V30 120 H 3.841320 1.492557 -0.639449 0
M  V30 121 H 2.094806 1.310093 -1.177224 0
M  V30 122 H 4.502892 -0.811101 -0.512030 0
M  V30 123 H 3.361574 -2.030323 0.041981 0
M  V30 124 H 3.214070 -0.667599 -2.714777 0
M  V30 125 H 3.760499 -2.267169 -2.275857 0
M  V30 126 H 0.843236 -1.418151 -1.886987 0
M  V30 127 H 2.481212 -3.936636 -1.323985 0
M  V30 128 H 1.866757 -6.015947 -0.878819 0
M  V30 129 H 2.510779 -5.235213 0.477423 0
M  V30 130 H -0.963546 -4.438075 1.768188 0
M  V30 131 H 0.753677 -3.977451 2.118568 0
M  V30 132 H -0.124128 -6.012949 3.437103 0
M  V30 133 H 1.410429 -6.223144 2.446740 0
M  V30 134 H 0.705883 -10.947841 -0.558077 0
M  V30 135 H -0.271887 -12.291869 4.078357 0
M  V30 136 H -0.905241 -10.468804 5.717319 0
M  V30 137 H -0.881882 -8.093481 4.430365 0
M  V30 138 H -1.875458 -7.457037 0.206467 0
M  V30 139 H -2.073420 -6.040389 1.254917 0
M  V30 140 H -0.261784 -6.490913 -1.189927 0
M  V30 141 H -1.405409 -5.188403 -0.822764 0
M  V30 142 H 3.193049 -4.096835 -3.213812 0
M  V30 143 H 3.060255 -4.964273 -5.468991 0
M  V30 144 H 0.003458 -2.153934 -6.375830 0
M  V30 145 H 0.132338 -1.276757 -4.118636 0
M  V30 146 H 2.153932 -0.770522 2.042813 0
M  V30 147 H 3.848317 -1.008163 1.631936 0
M  V30 148 H 4.445251 1.310775 1.839513 0
M  V30 149 H 3.568305 0.752694 3.290400 0
M  V30 150 H -1.031054 -1.721564 1.737427 0
M  V30 151 H -2.634094 -1.769725 0.833035 0
M  V30 152 H -2.551758 -1.840878 2.618023 0
M  V30 153 H -2.293574 1.620603 3.380807 0
M  V30 154 H -3.072654 0.085671 3.752399 0
M  V30 155 H -1.254579 0.257662 3.810849 0
M  V30 156 H -0.722087 1.752000 1.499538 0
M  V30 157 H -0.002544 0.172508 1.759275 0
M  V30 158 H -0.774189 0.473504 0.144920 0
M  V30 159 H 2.343582 2.850270 -3.637744 0
M  V30 160 H 4.137175 1.439354 -4.192999 0
M  V30 END ATOM
M  V30 BEGIN BOND
M  V30 1 1 1 2
M  V30 2 1 2 3
M  V30 3 2 3 4
M  V30 4 1 4 5
M  V30 5 1 5 6
M  V30 6 1 6 7
M  V30 7 2 7 8
M  V30 8 1 8 9
M  V30 9 2 9 10
M  V30 10 1 10 11
M  V30 11 1 11 12
M  V30 12 1 12 13
M  V30 13 2 13 14
M  V30 14 1 13 15
M  V30 15 1 15 16
M  V30 16 1 16 17
M  V30 17 1 17 18
M  V30 18 1 17 19
M  V30 19 1 19 20
M  V30 20 1 20 21
M  V30 21 2 21 22
M  V30 22 1 21 23
M  V30 23 1 23 24
M  V30 24 1 24 25
M  V30 25 2 25 26
M  V30 26 1 25 27
M  V30 27 1 27 28
M  V30 28 1 28 29
M  V30 29 1 29 30
M  V30 30 1 30 31
M  V30 31 1 31 32
M  V30 32 1 32 33
M  V30 33 1 33 34
M  V30 34 1 34 35
M  V30 35 1 35 36
M  V30 36 1 36 37
M  V30 37 2 37 38
M  V30 38 1 37 39
M  V30 39 1 39 40
M  V30 40 1 40 41
M  V30 41 1 41 42
M  V30 42 1 42 43
M  V30 43 1 43 44
M  V30 44 1 44 45
M  V30 45 1 45 46
M  V30 46 1 46 47
M  V30 47 2 47 48
M  V30 48 1 47 49
M  V30 49 1 49 50
M  V30 50 1 49 51
M  V30 51 1 51 52
M  V30 52 1 52 53
M  V30 53 1 53 54
M  V30 54 2 54 55
M  V30 55 1 55 56
M  V30 56 2 56 57
M  V30 57 1 57 58
M  V30 58 1 58 59
M  V30 59 1 59 60
M  V30 60 2 60 61
M  V30 61 1 61 62
M  V30 62 1 53 63
M  V30 63 1 63 64
M  V30 64 1 45 65
M  V30 65 2 65 66
M  V30 66 1 66 67
M  V30 67 2 67 68
M  V30 68 1 68 69
M  V30 69 1 68 70
M  V30 70 2 70 71
M  V30 71 1 42 72
M  V30 72 1 72 73
M  V30 73 1 23 74
M  V30 74 1 74 75
M  V30 75 1 74 76
M  V30 76 1 74 77
M  V30 77 1 10 78
M  V30 78 2 78 79
M  V30 79 2 6 2
M  V30 80 1 79 7
M  V30 81 1 20 15
M  V30 82 1 73 39
M  V30 83 1 64 49
M  V30 84 1 71 65
M  V30 85 1 62 54
M  V30 86 2 62 58
M  V30 87 1 1 80
M  V30 88 1 1 81
M  V30 89 1 1 82
M  V30 90 1 4 83
M  V30 91 1 8 84
M  V30 92 1 9 85
M  V30 93 1 11 86
M  V30 94 1 11 87
M  V30 95 1 12 88
M  V30 96 1 15 89 CFG=3
M  V30 97 1 16 90
M  V30 98 1 16 91
M  V30 99 1 17 92 CFG=3
M  V30 100 1 18 93
M  V30 101 1 19 94
M  V30 102 1 19 95
M  V30 103 1 23 96 CFG=3
M  V30 104 1 24 97
M  V30 105 1 27 98
M  V30 106 1 27 99
M  V30 107 1 28 100
M  V30 108 1 28 101
M  V30 109 1 29 102
M  V30 110 1 29 103
M  V30 111 1 30 104
M  V30 112 1 30 105
M  V30 113 1 31 106
M  V30 114 1 31 107
M  V30 115 1 32 108
M  V30 116 1 32 109
M  V30 117 1 33 110
M  V30 118 1 33 111
M  V30 119 1 34 112
M  V30 120 1 34 113
M  V30 121 1 35 114
M  V30 122 1 35 115
M  V30 123 1 36 116
M  V30 124 1 36 117
M  V30 125 1 40 118
M  V30 126 1 40 119
M  V30 127 1 41 120
M  V30 128 1 41 121
M  V30 129 1 43 122
M  V30 130 1 43 123
M  V30 131 1 44 124
M  V30 132 1 44 125
M  V30 133 1 45 126 CFG=1
M  V30 134 1 46 127
M  V30 135 1 50 128
M  V30 136 1 50 129
M  V30 137 1 51 130
M  V30 138 1 51 131
M  V30 139 1 52 132
M  V30 140 1 52 133
M  V30 141 1 56 134
M  V30 142 1 59 135
M  V30 143 1 60 136
M  V30 144 1 61 137
M  V30 145 1 63 138
M  V30 146 1 63 139
M  V30 147 1 64 140
M  V30 148 1 64 141
M  V30 149 1 66 142
M  V30 150 1 67 143
M  V30 151 1 70 144
M  V30 152 1 71 145
M  V30 153 1 72 146
M  V30 154 1 72 147
M  V30 155 1 73 148
M  V30 156 1 73 149
M  V30 157 1 75 150
M  V30 158 1 75 151
M  V30 159 1 75 152
M  V30 160 1 76 153
M  V30 161 1 76 154
M  V30 162 1 76 155
M  V30 163 1 77 156
M  V30 164 1 77 157
M  V30 165 1 77 158
M  V30 166 1 78 159
M  V30 167 1 79 160
M  V30 END BOND
M  V30 END CTAB
M  END
>  <Dataset>  (968) 
ChEMBL_Kinases

>  <Ligand_Instance>  (968) 
nan

>  <PDB_ID>  (968) 
nan

>  <Standardized_SMILES>  (968) 
Cc1ncsc1-c1ccc(CNC(=O)[C@@H]2C[C@@H](O)CN2C(=O)[C@@H](NC(=O)CCCCCCCCCCC(=O)N2CCN(CC[C@H](NC(=O)C3(N)CCN(c4ncnc5[nH]ccc45)CC3)c3ccc(Cl)cc3)CC2)C(C)(C)C)cc1

>  <Name>  (968) 
nan

>  <Pocket>  (968) 
nan

>  <ATP_Site>  (968) 
nan

>  <Peripheral>  (968) 
nan

>  <Num_H_Atoms_ProtBoundConf>  (968) 
nan

>  <Num_Resolved_Atoms>  (968) 
nan

>  <Num_Not_Resolved_Atoms>  (968) 
nan

$$$$
CHEMBL3675368
     RDKit          3D

  0  0  0  0  0  0  0  0  0  0999 V3000
M  V30 BEGIN CTAB
M  V30 COUNTS 49 52 0 0 0
M  V30 BEGIN ATOM
M  V30 1 N 2.006365 -5.014429 3.207183 0
M  V30 2 C 3.390940 -4.642926 3.293050 0
M  V30 3 O 4.198616 -5.243203 4.031018 0
M  V30 4 C 3.861764 -3.523609 2.486182 0
M  V30 5 C 5.194112 -3.194224 2.592558 0
M  V30 6 C 5.628483 -2.122087 1.814929 0
M  V30 7 C 4.744632 -1.458108 1.001316 0
M  V30 8 C 3.427540 -1.776454 0.890033 0
M  V30 9 C 2.568137 -1.090107 0.064665 0
M  V30 10 N 2.995006 -0.006023 -0.729863 0
M  V30 11 C 2.211823 0.806840 -1.637734 0
M  V30 12 C 1.158369 1.504252 -0.862455 0
M  V30 13 C 1.590010 2.686273 -0.296421 0
M  V30 14 C 0.685399 3.423342 0.437954 0
M  V30 15 C -0.605237 2.981034 0.593037 0
M  V30 16 C -1.078092 1.811943 0.047847 0
M  V30 17 N -2.406977 1.419538 0.245078 0
M  V30 18 C -3.140618 0.316329 -0.174892 0
M  V30 19 O -2.527591 -0.529478 -0.878335 0
M  V30 20 C -4.540540 0.061158 0.127195 0
M  V30 21 C -5.352503 0.880539 0.879357 0
M  V30 22 C -6.678263 0.618759 1.153442 0
M  V30 23 C -7.261744 -0.529254 0.658108 0
M  V30 24 F -8.559892 -0.774004 0.933395 0
M  V30 25 C -6.491102 -1.384685 -0.102147 0
M  V30 26 C -5.168233 -1.071907 -0.344878 0
M  V30 27 C -0.146161 1.121086 -0.668065 0
M  V30 28 N 1.312659 -1.550348 0.090654 0
M  V30 29 C 0.877246 -2.572503 0.825909 0
M  V30 30 N 1.733467 -3.240408 1.634826 0
M  V30 31 C 3.015057 -2.830455 1.658699 0
M  V30 32 H 1.580233 -5.789422 2.660045 0
M  V30 33 H 1.129824 -4.628849 3.642090 0
M  V30 34 H 5.866114 -3.727579 3.235172 0
M  V30 35 H 6.688691 -1.883081 1.919031 0
M  V30 36 H 5.193709 -0.663494 0.461665 0
M  V30 37 H 3.988418 0.298651 -0.704746 0
M  V30 38 H 1.753505 0.098332 -2.374953 0
M  V30 39 H 2.831382 1.505221 -2.212414 0
M  V30 40 H 2.586488 3.097441 -0.374540 0
M  V30 41 H 0.975151 4.353334 0.899511 0
M  V30 42 H -1.281770 3.609977 1.188918 0
M  V30 43 H -3.011381 2.073556 0.831344 0
M  V30 44 H -4.955551 1.783743 1.289213 0
M  V30 45 H -7.264347 1.290798 1.744432 0
M  V30 46 H -6.936090 -2.275795 -0.489204 0
M  V30 47 H -4.598921 -1.777564 -0.950475 0
M  V30 48 H -0.400437 0.194435 -1.152769 0
M  V30 49 H -0.194791 -2.744037 0.661637 0
M  V30 END ATOM
M  V30 BEGIN BOND
M  V30 1 1 1 2
M  V30 2 2 2 3
M  V30 3 1 2 4
M  V30 4 2 4 5
M  V30 5 1 5 6
M  V30 6 2 6 7
M  V30 7 1 7 8
M  V30 8 2 8 9
M  V30 9 1 9 10
M  V30 10 1 10 11
M  V30 11 1 11 12
M  V30 12 2 12 13
M  V30 13 1 13 14
M  V30 14 2 14 15
M  V30 15 1 15 16
M  V30 16 1 16 17
M  V30 17 1 17 18
M  V30 18 2 18 19
M  V30 19 1 18 20
M  V30 20 2 20 21
M  V30 21 1 21 22
M  V30 22 2 22 23
M  V30 23 1 23 24
M  V30 24 1 23 25
M  V30 25 2 25 26
M  V30 26 2 16 27
M  V30 27 1 9 28
M  V30 28 2 28 29
M  V30 29 1 29 30
M  V30 30 2 30 31
M  V30 31 1 31 4
M  V30 32 1 31 8
M  V30 33 1 27 12
M  V30 34 1 26 20
M  V30 35 1 1 32
M  V30 36 1 1 33
M  V30 37 1 5 34
M  V30 38 1 6 35
M  V30 39 1 7 36
M  V30 40 1 10 37
M  V30 41 1 11 38
M  V30 42 1 11 39
M  V30 43 1 13 40
M  V30 44 1 14 41
M  V30 45 1 15 42
M  V30 46 1 17 43
M  V30 47 1 21 44
M  V30 48 1 22 45
M  V30 49 1 25 46
M  V30 50 1 26 47
M  V30 51 1 27 48
M  V30 52 1 29 49
M  V30 END BOND
M  V30 END CTAB
M  END
>  <Dataset>  (969) 
ChEMBL_Kinases

>  <Ligand_Instance>  (969) 
nan

>  <PDB_ID>  (969) 
nan

>  <Standardized_SMILES>  (969) 
NC(=O)c1cccc2c(NCc3cccc(NC(=O)c4ccc(F)cc4)c3)ncnc12

>  <Name>  (969) 
nan

>  <Pocket>  (969) 
nan

>  <ATP_Site>  (969) 
nan

>  <Peripheral>  (969) 
nan

>  <Num_H_Atoms_ProtBoundConf>  (969) 
nan

>  <Num_Resolved_Atoms>  (969) 
nan

>  <Num_Not_Resolved_Atoms>  (969) 
nan

$$$$
CHEMBL5088511
     RDKit          3D

  0  0  0  0  0  0  0  0  0  0999 V3000
M  V30 BEGIN CTAB
M  V30 COUNTS 47 50 0 0 0
M  V30 BEGIN ATOM
M  V30 1 C 0.129481 -4.622184 2.323283 0
M  V30 2 C 0.641764 -3.228920 2.412066 0
M  V30 3 N 0.971913 -2.665259 3.582762 0
M  V30 4 C 1.398013 -1.407688 3.327794 0
M  V30 5 C 1.871436 -0.298973 4.005622 0
M  V30 6 C 2.216941 0.852187 3.360945 0
M  V30 7 C 2.098904 0.936872 1.988975 0
M  V30 8 C 2.453113 2.141460 1.246777 0
M  V30 9 C 2.293082 2.110436 -0.127334 0
M  V30 10 C 2.591277 3.186180 -0.957612 0
M  V30 11 N 2.400597 3.085234 -2.381831 0
M  V30 12 N 3.061428 4.316957 -0.383638 0
M  V30 13 C 3.227631 4.373153 0.963608 0
M  V30 14 N 3.728120 5.591261 1.526726 0
M  V30 15 C 2.929523 3.300332 1.784939 0
M  V30 16 N 1.647383 -0.114715 1.323073 0
M  V30 17 C 1.299561 -1.266025 1.946833 0
M  V30 18 N 0.825050 -2.408783 1.372321 0
M  V30 19 C 0.594734 -2.622972 -0.040867 0
M  V30 20 C -0.807305 -2.228070 -0.425679 0
M  V30 21 O -1.714877 -3.017111 0.319006 0
M  V30 22 C -3.089639 -2.801037 0.104506 0
M  V30 23 C -3.475948 -1.842735 -0.809599 0
M  V30 24 C -4.786327 -1.550488 -1.096143 0
M  V30 25 C -5.751730 -2.277347 -0.411010 0
M  V30 26 C -5.362063 -3.230300 0.498032 0
M  V30 27 C -4.041041 -3.525511 0.787465 0
M  V30 28 H 0.882158 -5.300545 2.800025 0
M  V30 29 H -0.043937 -4.970216 1.304057 0
M  V30 30 H -0.776092 -4.745257 2.985951 0
M  V30 31 H 1.947239 -0.415255 5.092902 0
M  V30 32 H 2.579537 1.685076 3.934312 0
M  V30 33 H 1.922110 1.235264 -0.637015 0
M  V30 34 H 1.413560 3.366035 -2.655267 0
M  V30 35 H 3.030251 2.796521 -3.175750 0
M  V30 36 H 4.771012 5.743963 1.548075 0
M  V30 37 H 2.811375 6.057387 1.797890 0
M  V30 38 H 3.059789 3.342689 2.846524 0
M  V30 39 H 0.689288 -3.713634 -0.265343 0
M  V30 40 H 1.360005 -2.106878 -0.643857 0
M  V30 41 H -0.932732 -2.391870 -1.515825 0
M  V30 42 H -1.001758 -1.146633 -0.251106 0
M  V30 43 H -2.728875 -1.266412 -1.352958 0
M  V30 44 H -5.034317 -0.788717 -1.822389 0
M  V30 45 H -6.792493 -2.056234 -0.628135 0
M  V30 46 H -6.151070 -3.773690 1.009789 0
M  V30 47 H -3.765985 -4.281819 1.508699 0
M  V30 END ATOM
M  V30 BEGIN BOND
M  V30 1 1 1 2
M  V30 2 2 2 3
M  V30 3 1 3 4
M  V30 4 2 4 5
M  V30 5 1 5 6
M  V30 6 2 6 7
M  V30 7 1 7 8
M  V30 8 2 8 9
M  V30 9 1 9 10
M  V30 10 1 10 11
M  V30 11 2 10 12
M  V30 12 1 12 13
M  V30 13 1 13 14
M  V30 14 2 13 15
M  V30 15 1 7 16
M  V30 16 2 16 17
M  V30 17 1 17 18
M  V30 18 1 18 19
M  V30 19 1 19 20
M  V30 20 1 20 21
M  V30 21 1 21 22
M  V30 22 2 22 23
M  V30 23 1 23 24
M  V30 24 2 24 25
M  V30 25 1 25 26
M  V30 26 2 26 27
M  V30 27 1 18 2
M  V30 28 1 27 22
M  V30 29 1 17 4
M  V30 30 1 15 8
M  V30 31 1 1 28
M  V30 32 1 1 29
M  V30 33 1 1 30
M  V30 34 1 5 31
M  V30 35 1 6 32
M  V30 36 1 9 33
M  V30 37 1 11 34
M  V30 38 1 11 35
M  V30 39 1 14 36
M  V30 40 1 14 37
M  V30 41 1 15 38
M  V30 42 1 19 39
M  V30 43 1 19 40
M  V30 44 1 20 41
M  V30 45 1 20 42
M  V30 46 1 23 43
M  V30 47 1 24 44
M  V30 48 1 25 45
M  V30 49 1 26 46
M  V30 50 1 27 47
M  V30 END BOND
M  V30 END CTAB
M  END
>  <Dataset>  (970) 
ChEMBL_Kinases

>  <Ligand_Instance>  (970) 
nan

>  <PDB_ID>  (970) 
nan

>  <Standardized_SMILES>  (970) 
Cc1nc2ccc(-c3cc(N)nc(N)c3)nc2n1CCOc1ccccc1

>  <Name>  (970) 
nan

>  <Pocket>  (970) 
nan

>  <ATP_Site>  (970) 
nan

>  <Peripheral>  (970) 
nan

>  <Num_H_Atoms_ProtBoundConf>  (970) 
nan

>  <Num_Resolved_Atoms>  (970) 
nan

>  <Num_Not_Resolved_Atoms>  (970) 
nan

$$$$
CHEMBL3675371
     RDKit          3D

  0  0  0  0  0  0  0  0  0  0999 V3000
M  V30 BEGIN CTAB
M  V30 COUNTS 51 54 0 0 0
M  V30 BEGIN ATOM
M  V30 1 N 0.757387 -3.884518 4.746135 0
M  V30 2 C 2.144877 -3.730553 5.018412 0
M  V30 3 O 2.740355 -4.215836 6.036001 0
M  V30 4 C 2.995007 -2.964098 4.087232 0
M  V30 5 C 4.333127 -2.823603 4.362700 0
M  V30 6 C 5.081141 -2.096202 3.456762 0
M  V30 7 C 4.479334 -1.554326 2.344495 0
M  V30 8 C 3.153485 -1.677929 2.046055 0
M  V30 9 C 2.600934 -1.120048 0.926330 0
M  V30 10 N 3.360590 -0.376564 -0.009279 0
M  V30 11 C 2.886823 0.256320 -1.218081 0
M  V30 12 C 1.890664 1.297825 -0.887455 0
M  V30 13 C 2.473969 2.517284 -0.569198 0
M  V30 14 C 1.638067 3.568788 -0.255644 0
M  V30 15 C 0.270812 3.418758 -0.256949 0
M  V30 16 C -0.323520 2.232732 -0.565949 0
M  V30 17 N -1.733382 2.127146 -0.553893 0
M  V30 18 C -2.601785 1.063010 -0.820433 0
M  V30 19 O -2.103997 -0.035708 -1.136082 0
M  V30 20 N -4.002098 1.101690 -0.769213 0
M  V30 21 C -4.629954 -0.155715 -1.095732 0
M  V30 22 C -4.909435 -1.092796 -0.122234 0
M  V30 23 C -5.513365 -2.309020 -0.416399 0
M  V30 24 C -5.843223 -2.585851 -1.725854 0
M  V30 25 C -5.572903 -1.664025 -2.713287 0
M  V30 26 C -4.973202 -0.467290 -2.388653 0
M  V30 27 C 0.520663 1.197444 -0.875533 0
M  V30 28 N 1.289092 -1.337570 0.786733 0
M  V30 29 C 0.557102 -2.039717 1.657492 0
M  V30 30 N 1.107730 -2.594212 2.770944 0
M  V30 31 C 2.434335 -2.405439 2.963072 0
M  V30 32 H 0.307080 -4.776664 4.395356 0
M  V30 33 H 0.076598 -3.085960 4.884900 0
M  V30 34 H 4.780018 -3.258170 5.241214 0
M  V30 35 H 6.137762 -2.001002 3.699989 0
M  V30 36 H 5.168473 -1.017790 1.728262 0
M  V30 37 H 4.380724 -0.244981 0.152942 0
M  V30 38 H 2.379656 -0.488795 -1.881943 0
M  V30 39 H 3.747401 0.672618 -1.787945 0
M  V30 40 H 3.534297 2.734388 -0.540493 0
M  V30 41 H 2.027725 4.537423 -0.000683 0
M  V30 42 H -0.352670 4.284022 -0.000605 0
M  V30 43 H -2.285540 2.998895 -0.298833 0
M  V30 44 H -4.466268 2.018907 -0.504285 0
M  V30 45 H -4.663227 -0.906214 0.914592 0
M  V30 46 H -5.734677 -3.050423 0.352617 0
M  V30 47 H -6.318903 -3.553467 -1.928895 0
M  V30 48 H -5.833927 -1.882100 -3.752443 0
M  V30 49 H -4.775127 0.234861 -3.191329 0
M  V30 50 H 0.146309 0.236120 -1.140799 0
M  V30 51 H -0.516629 -2.228350 1.560544 0
M  V30 END ATOM
M  V30 BEGIN BOND
M  V30 1 1 1 2
M  V30 2 2 2 3
M  V30 3 1 2 4
M  V30 4 2 4 5
M  V30 5 1 5 6
M  V30 6 2 6 7
M  V30 7 1 7 8
M  V30 8 2 8 9
M  V30 9 1 9 10
M  V30 10 1 10 11
M  V30 11 1 11 12
M  V30 12 2 12 13
M  V30 13 1 13 14
M  V30 14 2 14 15
M  V30 15 1 15 16
M  V30 16 1 16 17
M  V30 17 1 17 18
M  V30 18 2 18 19
M  V30 19 1 18 20
M  V30 20 1 20 21
M  V30 21 2 21 22
M  V30 22 1 22 23
M  V30 23 2 23 24
M  V30 24 1 24 25
M  V30 25 2 25 26
M  V30 26 2 16 27
M  V30 27 1 9 28
M  V30 28 2 28 29
M  V30 29 1 29 30
M  V30 30 2 30 31
M  V30 31 1 31 4
M  V30 32 1 31 8
M  V30 33 1 27 12
M  V30 34 1 26 21
M  V30 35 1 1 32
M  V30 36 1 1 33
M  V30 37 1 5 34
M  V30 38 1 6 35
M  V30 39 1 7 36
M  V30 40 1 10 37
M  V30 41 1 11 38
M  V30 42 1 11 39
M  V30 43 1 13 40
M  V30 44 1 14 41
M  V30 45 1 15 42
M  V30 46 1 17 43
M  V30 47 1 20 44
M  V30 48 1 22 45
M  V30 49 1 23 46
M  V30 50 1 24 47
M  V30 51 1 25 48
M  V30 52 1 26 49
M  V30 53 1 27 50
M  V30 54 1 29 51
M  V30 END BOND
M  V30 END CTAB
M  END
>  <Dataset>  (971) 
ChEMBL_Kinases

>  <Ligand_Instance>  (971) 
nan

>  <PDB_ID>  (971) 
nan

>  <Standardized_SMILES>  (971) 
NC(=O)c1cccc2c(NCc3cccc(NC(=O)Nc4ccccc4)c3)ncnc12

>  <Name>  (971) 
nan

>  <Pocket>  (971) 
nan

>  <ATP_Site>  (971) 
nan

>  <Peripheral>  (971) 
nan

>  <Num_H_Atoms_ProtBoundConf>  (971) 
nan

>  <Num_Resolved_Atoms>  (971) 
nan

>  <Num_Not_Resolved_Atoms>  (971) 
nan

$$$$
CHEMBL508870
     RDKit          3D

  0  0  0  0  0  0  0  0  0  0999 V3000
M  V30 BEGIN CTAB
M  V30 COUNTS 55 57 0 0 0
M  V30 BEGIN ATOM
M  V30 1 C -1.796866 5.720956 -1.465460 0
M  V30 2 O -0.655730 5.215752 -2.122849 0
M  V30 3 C 0.097239 4.193302 -1.579927 0
M  V30 4 C 1.181520 3.832600 -2.375404 0
M  V30 5 C 2.043423 2.817699 -1.973615 0
M  V30 6 C 1.873608 2.134368 -0.798676 0
M  V30 7 C 2.752546 1.063739 -0.335219 0
M  V30 8 O 3.720908 0.732341 -1.053105 0
M  V30 9 O 2.536526 0.428222 0.855602 0
M  V30 10 C 3.365024 -0.616129 1.350317 0
M  V30 11 C 2.875502 -1.102546 2.692861 0
M  V30 12 C 2.740247 0.058846 3.661978 0
M  V30 13 O 1.940192 1.040647 3.088823 0
M  V30 14 C 1.526109 -1.789884 2.524812 0
M  V30 15 C 1.933492 -3.153572 2.153213 0
M  V30 16 C 1.225001 -4.056220 1.505943 0
M  V30 17 C -0.129156 -3.905741 1.002825 0
M  V30 18 C -0.585573 -2.889518 0.232223 0
M  V30 19 C -1.870140 -2.716090 -0.228267 0
M  V30 20 C -2.820832 -3.682076 0.125224 0
M  V30 21 N -4.161728 -3.551511 -0.328115 0
M  V30 22 C -5.193099 -4.537547 0.029896 0
M  V30 23 C -4.490767 -2.397983 -1.175098 0
M  V30 24 C -2.392464 -4.730452 0.907982 0
M  V30 25 C -1.079648 -4.880160 1.361543 0
M  V30 26 C 3.292117 -3.319560 2.640496 0
M  V30 27 O 3.941761 -4.401947 2.520181 0
M  V30 28 O 3.678241 -2.127297 3.215601 0
M  V30 29 C 0.785764 2.496108 -0.000111 0
M  V30 30 C -0.069991 3.502185 -0.396728 0
M  V30 31 H -1.932611 6.815730 -1.632812 0
M  V30 32 H -2.724461 5.221359 -1.846636 0
M  V30 33 H -1.768805 5.590209 -0.376994 0
M  V30 34 H 1.419903 4.290005 -3.312157 0
M  V30 35 H 2.900119 2.539402 -2.607915 0
M  V30 36 H 3.331504 -1.479564 0.631344 0
M  V30 37 H 4.427574 -0.310933 1.406575 0
M  V30 38 H 3.705083 0.417128 4.015991 0
M  V30 39 H 2.172219 -0.341766 4.549363 0
M  V30 40 H 0.996013 0.860796 3.307311 0
M  V30 41 H 0.996192 -1.205579 1.781888 0
M  V30 42 H 1.009548 -1.766354 3.520339 0
M  V30 43 H 1.598674 -5.052648 1.269141 0
M  V30 44 H 0.078829 -2.109835 -0.107517 0
M  V30 45 H -2.175476 -1.866011 -0.853653 0
M  V30 46 H -5.370555 -4.536027 1.124596 0
M  V30 47 H -4.918749 -5.519780 -0.362564 0
M  V30 48 H -6.145884 -4.226737 -0.444589 0
M  V30 49 H -5.487664 -2.456465 -1.609650 0
M  V30 50 H -4.296161 -1.443809 -0.630362 0
M  V30 51 H -3.783475 -2.350846 -2.050737 0
M  V30 52 H -3.107411 -5.500533 1.201802 0
M  V30 53 H -0.854135 -5.758703 1.980777 0
M  V30 54 H 0.538995 2.041792 0.945506 0
M  V30 55 H -0.927413 3.829702 0.171256 0
M  V30 END ATOM
M  V30 BEGIN BOND
M  V30 1 1 1 2
M  V30 2 1 2 3
M  V30 3 2 3 4
M  V30 4 1 4 5
M  V30 5 2 5 6
M  V30 6 1 6 7
M  V30 7 2 7 8
M  V30 8 1 7 9
M  V30 9 1 9 10
M  V30 10 1 10 11
M  V30 11 1 11 12
M  V30 12 1 12 13
M  V30 13 1 11 14
M  V30 14 1 14 15
M  V30 15 2 15 16
M  V30 16 1 16 17
M  V30 17 2 17 18
M  V30 18 1 18 19
M  V30 19 2 19 20
M  V30 20 1 20 21
M  V30 21 1 21 22
M  V30 22 1 21 23
M  V30 23 1 20 24
M  V30 24 2 24 25
M  V30 25 1 15 26
M  V30 26 2 26 27
M  V30 27 1 26 28
M  V30 28 1 6 29
M  V30 29 2 29 30
M  V30 30 1 30 3
M  V30 31 1 28 11
M  V30 32 1 25 17
M  V30 33 1 1 31
M  V30 34 1 1 32
M  V30 35 1 1 33
M  V30 36 1 4 34
M  V30 37 1 5 35
M  V30 38 1 10 36
M  V30 39 1 10 37
M  V30 40 1 12 38
M  V30 41 1 12 39
M  V30 42 1 13 40
M  V30 43 1 14 41
M  V30 44 1 14 42
M  V30 45 1 16 43
M  V30 46 1 18 44
M  V30 47 1 19 45
M  V30 48 1 22 46
M  V30 49 1 22 47
M  V30 50 1 22 48
M  V30 51 1 23 49
M  V30 52 1 23 50
M  V30 53 1 23 51
M  V30 54 1 24 52
M  V30 55 1 25 53
M  V30 56 1 29 54
M  V30 57 1 30 55
M  V30 END BOND
M  V30 END CTAB
M  END
>  <Dataset>  (972) 
ChEMBL_Kinases

>  <Ligand_Instance>  (972) 
nan

>  <PDB_ID>  (972) 
nan

>  <Standardized_SMILES>  (972) 
COc1ccc(C(=O)OCC2(CO)C/C(=C\c3ccc(N(C)C)cc3)C(=O)O2)cc1

>  <Name>  (972) 
nan

>  <Pocket>  (972) 
nan

>  <ATP_Site>  (972) 
nan

>  <Peripheral>  (972) 
nan

>  <Num_H_Atoms_ProtBoundConf>  (972) 
nan

>  <Num_Resolved_Atoms>  (972) 
nan

>  <Num_Not_Resolved_Atoms>  (972) 
nan

$$$$
CHEMBL3675379
     RDKit          3D

  0  0  0  0  0  0  0  0  0  0999 V3000
M  V30 BEGIN CTAB
M  V30 COUNTS 39 41 0 0 0
M  V30 BEGIN ATOM
M  V30 1 N -1.271481 -6.358030 -0.197861 0
M  V30 2 C -0.050279 -6.201543 0.504530 0
M  V30 3 O 0.391050 -7.323837 0.785422 0
M  V30 4 C 0.543153 -4.908092 0.817907 0
M  V30 5 C 1.727646 -4.883649 1.502115 0
M  V30 6 C 2.231225 -3.607988 1.763961 0
M  V30 7 C 1.568661 -2.476222 1.354948 0
M  V30 8 C 0.389244 -2.536554 0.674496 0
M  V30 9 C -0.220469 -1.360207 0.295028 0
M  V30 10 N 0.271010 -0.060674 0.549374 0
M  V30 11 C -0.509380 1.068894 0.072302 0
M  V30 12 C 0.150753 2.350665 0.424592 0
M  V30 13 C 1.052797 2.899568 -0.467828 0
M  V30 14 C 1.700301 4.082405 -0.207234 0
M  V30 15 C 1.460425 4.768737 0.980942 0
M  V30 16 C 0.556258 4.224100 1.881811 0
M  V30 17 C 0.296084 4.958227 3.158862 0
M  V30 18 F 0.042553 4.043270 4.161120 0
M  V30 19 F 1.399401 5.690585 3.514172 0
M  V30 20 F -0.848146 5.731656 3.029062 0
M  V30 21 C -0.081886 3.032259 1.595160 0
M  V30 22 C -1.406792 -1.556982 -0.386277 0
M  V30 23 C -1.940031 -2.791182 -0.666222 0
M  V30 24 N -1.288966 -3.896294 -0.264479 0
M  V30 25 C -0.127017 -3.786868 0.404738 0
M  V30 26 H -2.262799 -6.142380 0.096621 0
M  V30 27 H -1.610994 -6.697058 -1.138842 0
M  V30 28 H 2.207928 -5.809274 1.801015 0
M  V30 29 H 3.165401 -3.540451 2.302471 0
M  V30 30 H 2.030546 -1.544940 1.600595 0
M  V30 31 H 1.151120 0.162700 1.053081 0
M  V30 32 H -0.626878 1.005235 -1.024680 0
M  V30 33 H -1.528505 1.070188 0.519637 0
M  V30 34 H 1.306338 2.439310 -1.420731 0
M  V30 35 H 2.399104 4.529371 -0.873738 0
M  V30 36 H 1.969515 5.703650 1.191442 0
M  V30 37 H -0.790504 2.608198 2.304370 0
M  V30 38 H -1.967140 -0.682781 -0.730277 0
M  V30 39 H -2.892282 -2.844815 -1.215489 0
M  V30 END ATOM
M  V30 BEGIN BOND
M  V30 1 1 1 2
M  V30 2 2 2 3
M  V30 3 1 2 4
M  V30 4 2 4 5
M  V30 5 1 5 6
M  V30 6 2 6 7
M  V30 7 1 7 8
M  V30 8 2 8 9
M  V30 9 1 9 10
M  V30 10 1 10 11
M  V30 11 1 11 12
M  V30 12 2 12 13
M  V30 13 1 13 14
M  V30 14 2 14 15
M  V30 15 1 15 16
M  V30 16 1 16 17
M  V30 17 1 17 18
M  V30 18 1 17 19
M  V30 19 1 17 20
M  V30 20 2 16 21
M  V30 21 1 9 22
M  V30 22 2 22 23
M  V30 23 1 23 24
M  V30 24 2 24 25
M  V30 25 1 25 4
M  V30 26 1 25 8
M  V30 27 1 21 12
M  V30 28 1 1 26
M  V30 29 1 1 27
M  V30 30 1 5 28
M  V30 31 1 6 29
M  V30 32 1 7 30
M  V30 33 1 10 31
M  V30 34 1 11 32
M  V30 35 1 11 33
M  V30 36 1 13 34
M  V30 37 1 14 35
M  V30 38 1 15 36
M  V30 39 1 21 37
M  V30 40 1 22 38
M  V30 41 1 23 39
M  V30 END BOND
M  V30 END CTAB
M  END
>  <Dataset>  (973) 
ChEMBL_Kinases

>  <Ligand_Instance>  (973) 
nan

>  <PDB_ID>  (973) 
nan

>  <Standardized_SMILES>  (973) 
NC(=O)c1cccc2c(NCc3cccc(C(F)(F)F)c3)ccnc12

>  <Name>  (973) 
nan

>  <Pocket>  (973) 
nan

>  <ATP_Site>  (973) 
nan

>  <Peripheral>  (973) 
nan

>  <Num_H_Atoms_ProtBoundConf>  (973) 
nan

>  <Num_Resolved_Atoms>  (973) 
nan

>  <Num_Not_Resolved_Atoms>  (973) 
nan

$$$$
CHEMBL3675380
     RDKit          3D

  0  0  0  0  0  0  0  0  0  0999 V3000
M  V30 BEGIN CTAB
M  V30 COUNTS 38 40 0 0 0
M  V30 BEGIN ATOM
M  V30 1 C -2.473352 -1.209026 0.200540 0
M  V30 2 C -1.495711 -1.437719 1.314662 0 CFG=1
M  V30 3 N -0.333972 -0.565538 1.220621 0
M  V30 4 C 0.478614 -0.634986 0.086372 0
M  V30 5 N 0.203104 -1.491410 -0.912824 0
M  V30 6 C 0.947376 -1.604122 -2.028926 0
M  V30 7 N 2.059369 -0.840475 -2.230800 0
M  V30 8 C 2.374042 0.024572 -1.267446 0
M  V30 9 C 3.507045 0.803988 -1.471051 0
M  V30 10 C 4.335988 0.707709 -2.668090 0
M  V30 11 N 4.003403 -0.214958 -3.699296 0
M  V30 12 O 5.340020 1.418282 -2.817349 0
M  V30 13 C 3.847233 1.705464 -0.482623 0
M  V30 14 C 3.096831 1.849445 0.690382 0
M  V30 15 C 1.990133 1.037141 0.809086 0
M  V30 16 C 1.604634 0.132470 -0.127210 0
M  V30 17 C -2.118075 -1.428181 2.663634 0
M  V30 18 C -2.263224 -0.154339 3.202056 0
M  V30 19 C -2.837496 -0.031810 4.466774 0
M  V30 20 C -3.255066 -1.154986 5.173014 0
M  V30 21 C -3.081027 -2.389044 4.579056 0
M  V30 22 C -2.517971 -2.558401 3.330379 0
M  V30 23 H -2.169946 -1.785561 -0.691018 0
M  V30 24 H -2.586570 -0.136714 -0.079683 0
M  V30 25 H -3.489374 -1.541261 0.496419 0
M  V30 26 H -1.137364 -2.501216 1.181091 0
M  V30 27 H -0.211378 0.057437 2.044691 0
M  V30 28 H 0.687537 -2.310923 -2.812607 0
M  V30 29 H 3.215007 -0.556441 -4.291962 0
M  V30 30 H 4.661764 -0.900198 -4.178016 0
M  V30 31 H 4.719379 2.310931 -0.630712 0
M  V30 32 H 3.396995 2.568187 1.441943 0
M  V30 33 H 1.431781 1.164149 1.713163 0
M  V30 34 H -1.995382 0.786481 2.787850 0
M  V30 35 H -2.991751 0.921299 4.968442 0
M  V30 36 H -3.694870 -1.056242 6.142470 0
M  V30 37 H -3.401465 -3.292590 5.113684 0
M  V30 38 H -2.371542 -3.512549 2.845460 0
M  V30 END ATOM
M  V30 BEGIN BOND
M  V30 1 1 1 2
M  V30 2 1 2 3
M  V30 3 1 3 4
M  V30 4 2 4 5
M  V30 5 1 5 6
M  V30 6 2 6 7
M  V30 7 1 7 8
M  V30 8 2 8 9
M  V30 9 1 9 10
M  V30 10 1 10 11
M  V30 11 2 10 12
M  V30 12 1 9 13
M  V30 13 2 13 14
M  V30 14 1 14 15
M  V30 15 2 15 16
M  V30 16 1 2 17
M  V30 17 2 17 18
M  V30 18 1 18 19
M  V30 19 2 19 20
M  V30 20 1 20 21
M  V30 21 2 21 22
M  V30 22 1 16 4
M  V30 23 1 22 17
M  V30 24 1 16 8
M  V30 25 1 1 23
M  V30 26 1 1 24
M  V30 27 1 1 25
M  V30 28 1 2 26 CFG=3
M  V30 29 1 3 27
M  V30 30 1 6 28
M  V30 31 1 11 29
M  V30 32 1 11 30
M  V30 33 1 13 31
M  V30 34 1 14 32
M  V30 35 1 15 33
M  V30 36 1 18 34
M  V30 37 1 19 35
M  V30 38 1 20 36
M  V30 39 1 21 37
M  V30 40 1 22 38
M  V30 END BOND
M  V30 END CTAB
M  END
>  <Dataset>  (974) 
ChEMBL_Kinases

>  <Ligand_Instance>  (974) 
nan

>  <PDB_ID>  (974) 
nan

>  <Standardized_SMILES>  (974) 
C[C@@H](Nc1ncnc2c(C(N)=O)cccc12)c1ccccc1

>  <Name>  (974) 
nan

>  <Pocket>  (974) 
nan

>  <ATP_Site>  (974) 
nan

>  <Peripheral>  (974) 
nan

>  <Num_H_Atoms_ProtBoundConf>  (974) 
nan

>  <Num_Resolved_Atoms>  (974) 
nan

>  <Num_Not_Resolved_Atoms>  (974) 
nan

$$$$
CHEMBL3675381
     RDKit          3D

  0  0  0  0  0  0  0  0  0  0999 V3000
M  V30 BEGIN CTAB
M  V30 COUNTS 40 42 0 0 0
M  V30 BEGIN ATOM
M  V30 1 N 0.326922 -7.023738 0.943144 0
M  V30 2 C 1.068133 -5.851175 0.660578 0
M  V30 3 O 1.873784 -6.725356 0.327957 0
M  V30 4 C 0.346031 -4.629691 0.963712 0
M  V30 5 C -0.930771 -4.562859 1.470722 0
M  V30 6 C -1.379539 -3.284193 1.666386 0
M  V30 7 N -2.718119 -3.206756 2.197763 0
M  V30 8 C -0.619544 -2.193848 1.380505 0
M  V30 9 C 0.642746 -2.252873 0.879588 0
M  V30 10 C 1.352465 -1.104191 0.614412 0
M  V30 11 N 0.836710 0.204561 0.837326 0
M  V30 12 C 1.668593 1.326035 0.523009 0
M  V30 13 C 1.078396 2.644946 0.754023 0
M  V30 14 C 1.155130 3.374353 1.940686 0
M  V30 15 C 0.564191 4.616921 2.056340 0
M  V30 16 C -0.131312 5.201431 1.008274 0
M  V30 17 Cl -0.902381 6.770478 1.085631 0
M  V30 18 C -0.239868 4.530001 -0.183537 0
M  V30 19 C -0.935118 5.013621 -1.389719 0
M  V30 20 F -0.879449 4.098081 -2.438660 0
M  V30 21 F -0.299508 6.155717 -1.887941 0
M  V30 22 F -2.262902 5.245843 -1.127202 0
M  V30 23 C 0.365960 3.275311 -0.276306 0
M  V30 24 N 2.589110 -1.286631 0.121458 0
M  V30 25 C 3.114263 -2.515915 -0.104090 0
M  V30 26 N 2.385293 -3.613135 0.169658 0
M  V30 27 C 1.138357 -3.530643 0.665232 0
M  V30 28 H -0.482662 -7.627399 1.196727 0
M  V30 29 H -0.241072 -7.855060 1.154311 0
M  V30 30 H -1.409680 -5.513308 1.647195 0
M  V30 31 H -3.507527 -3.787844 1.817212 0
M  V30 32 H -3.502957 -3.800780 1.801358 0
M  V30 33 H -1.079981 -1.238280 1.576770 0
M  V30 34 H -0.076266 0.465925 1.202783 0
M  V30 35 H 1.898621 1.253459 -0.573811 0
M  V30 36 H 2.668898 1.310250 1.014982 0
M  V30 37 H 1.691477 2.929010 2.755692 0
M  V30 38 H 0.623977 5.183506 2.976595 0
M  V30 39 H 0.295372 2.710758 -1.220320 0
M  V30 40 H 4.117707 -2.554981 -0.502618 0
M  V30 END ATOM
M  V30 BEGIN BOND
M  V30 1 1 1 2
M  V30 2 2 2 3
M  V30 3 1 2 4
M  V30 4 2 4 5
M  V30 5 1 5 6
M  V30 6 1 6 7
M  V30 7 2 6 8
M  V30 8 1 8 9
M  V30 9 2 9 10
M  V30 10 1 10 11
M  V30 11 1 11 12
M  V30 12 1 12 13
M  V30 13 2 13 14
M  V30 14 1 14 15
M  V30 15 2 15 16
M  V30 16 1 16 17
M  V30 17 1 16 18
M  V30 18 1 18 19
M  V30 19 1 19 20
M  V30 20 1 19 21
M  V30 21 1 19 22
M  V30 22 2 18 23
M  V30 23 1 10 24
M  V30 24 2 24 25
M  V30 25 1 25 26
M  V30 26 2 26 27
M  V30 27 1 27 4
M  V30 28 1 27 9
M  V30 29 1 23 13
M  V30 30 1 1 28
M  V30 31 1 1 29
M  V30 32 1 5 30
M  V30 33 1 7 31
M  V30 34 1 7 32
M  V30 35 1 8 33
M  V30 36 1 11 34
M  V30 37 1 12 35
M  V30 38 1 12 36
M  V30 39 1 14 37
M  V30 40 1 15 38
M  V30 41 1 23 39
M  V30 42 1 25 40
M  V30 END BOND
M  V30 END CTAB
M  END
>  <Dataset>  (975) 
ChEMBL_Kinases

>  <Ligand_Instance>  (975) 
nan

>  <PDB_ID>  (975) 
nan

>  <Standardized_SMILES>  (975) 
NC(=O)c1cc(N)cc2c(NCc3ccc(Cl)c(C(F)(F)F)c3)ncnc12

>  <Name>  (975) 
nan

>  <Pocket>  (975) 
nan

>  <ATP_Site>  (975) 
nan

>  <Peripheral>  (975) 
nan

>  <Num_H_Atoms_ProtBoundConf>  (975) 
nan

>  <Num_Resolved_Atoms>  (975) 
nan

>  <Num_Not_Resolved_Atoms>  (975) 
nan

$$$$
CHEMBL3675438
     RDKit          3D

  0  0  0  0  0  0  0  0  0  0999 V3000
M  V30 BEGIN CTAB
M  V30 COUNTS 55 59 0 0 0
M  V30 BEGIN ATOM
M  V30 1 C 0.453442 0.083917 5.345010 0
M  V30 2 C -0.583443 0.315298 4.268493 0
M  V30 3 N 0.052608 1.122796 3.228201 0
M  V30 4 C 1.164988 0.555575 2.550423 0
M  V30 5 N 1.608933 -0.661664 2.849096 0
M  V30 6 C 2.655796 -1.192740 2.204794 0
M  V30 7 N 3.322303 -0.538085 1.223121 0
M  V30 8 C 2.916636 0.701447 0.877837 0
M  V30 9 C 3.619497 1.329520 -0.122414 0
M  V30 10 C 4.751888 0.719437 -0.799583 0
M  V30 11 N 5.211439 -0.583255 -0.480802 0
M  V30 12 O 5.384570 1.295937 -1.693933 0
M  V30 13 C 3.183879 2.589838 -0.454469 0
M  V30 14 C 2.105680 3.208549 0.167402 0
M  V30 15 C 1.472332 2.480602 1.162342 0
M  V30 16 C 1.837940 1.205132 1.566171 0
M  V30 17 C -1.054842 -0.981348 3.705367 0
M  V30 18 C -0.840152 -2.186212 4.342802 0
M  V30 19 C -1.328208 -3.280363 3.691851 0
M  V30 20 C -2.000804 -3.348482 2.495680 0
M  V30 21 C -2.177019 -2.087268 1.916324 0
M  V30 22 N -2.863474 -1.994846 0.651201 0
M  V30 23 C -1.883924 -2.082586 -0.367616 0
M  V30 24 O -0.710638 -2.213394 0.007072 0
M  V30 25 C -2.157389 -2.030861 -1.798476 0
M  V30 26 C -1.059967 -2.126121 -2.661556 0
M  V30 27 C -1.197299 -2.088389 -4.031329 0
M  V30 28 C -2.428463 -1.954244 -4.622156 0
M  V30 29 C -3.522074 -1.859339 -3.789370 0
M  V30 30 C -3.383332 -1.897555 -2.408869 0
M  V30 31 O -4.661285 -1.730338 -4.579342 0
M  V30 32 C -4.266400 -1.445784 -5.915846 0
M  V30 33 O -2.921098 -1.882054 -5.915128 0
M  V30 34 C -1.728028 -0.905736 2.478626 0
M  V30 35 H 1.022948 1.031713 5.504711 0
M  V30 36 H 1.089815 -0.782975 5.155088 0
M  V30 37 H -0.114814 -0.154087 6.277125 0
M  V30 38 H -1.447434 0.812499 4.739888 0
M  V30 39 H -0.383526 2.054785 3.086685 0
M  V30 40 H 2.922804 -2.204048 2.544894 0
M  V30 41 H 5.591249 -0.686699 0.506908 0
M  V30 42 H 5.596193 -0.767432 0.460860 0
M  V30 43 H 3.706491 3.126650 -1.239820 0
M  V30 44 H 1.782823 4.199857 -0.112107 0
M  V30 45 H 0.640564 2.979721 1.630749 0
M  V30 46 H -0.321433 -2.237470 5.287799 0
M  V30 47 H -1.160216 -4.237661 4.193384 0
M  V30 48 H -2.360965 -4.254191 2.033297 0
M  V30 49 H -3.863130 -1.884406 0.365838 0
M  V30 50 H -0.034498 -2.236615 -2.284667 0
M  V30 51 H -0.325973 -2.165874 -4.697461 0
M  V30 52 H -4.220221 -1.823698 -1.716505 0
M  V30 53 H -4.883249 -1.953335 -6.673827 0
M  V30 54 H -4.353036 -0.325034 -5.998909 0
M  V30 55 H -1.913402 0.029979 1.952393 0
M  V30 END ATOM
M  V30 BEGIN BOND
M  V30 1 1 1 2
M  V30 2 1 2 3
M  V30 3 1 3 4
M  V30 4 2 4 5
M  V30 5 1 5 6
M  V30 6 2 6 7
M  V30 7 1 7 8
M  V30 8 2 8 9
M  V30 9 1 9 10
M  V30 10 1 10 11
M  V30 11 2 10 12
M  V30 12 1 9 13
M  V30 13 2 13 14
M  V30 14 1 14 15
M  V30 15 2 15 16
M  V30 16 1 2 17
M  V30 17 2 17 18
M  V30 18 1 18 19
M  V30 19 2 19 20
M  V30 20 1 20 21
M  V30 21 1 21 22
M  V30 22 1 22 23
M  V30 23 2 23 24
M  V30 24 1 23 25
M  V30 25 2 25 26
M  V30 26 1 26 27
M  V30 27 2 27 28
M  V30 28 1 28 29
M  V30 29 2 29 30
M  V30 30 1 29 31
M  V30 31 1 31 32
M  V30 32 1 32 33
M  V30 33 2 21 34
M  V30 34 1 16 4
M  V30 35 1 34 17
M  V30 36 1 16 8
M  V30 37 1 30 25
M  V30 38 1 33 28
M  V30 39 1 1 35
M  V30 40 1 1 36
M  V30 41 1 1 37
M  V30 42 1 2 38
M  V30 43 1 3 39
M  V30 44 1 6 40
M  V30 45 1 11 41
M  V30 46 1 11 42
M  V30 47 1 13 43
M  V30 48 1 14 44
M  V30 49 1 15 45
M  V30 50 1 18 46
M  V30 51 1 19 47
M  V30 52 1 20 48
M  V30 53 1 22 49
M  V30 54 1 26 50
M  V30 55 1 27 51
M  V30 56 1 30 52
M  V30 57 1 32 53
M  V30 58 1 32 54
M  V30 59 1 34 55
M  V30 END BOND
M  V30 END CTAB
M  END
>  <Dataset>  (976) 
ChEMBL_Kinases

>  <Ligand_Instance>  (976) 
nan

>  <PDB_ID>  (976) 
nan

>  <Standardized_SMILES>  (976) 
CC(Nc1ncnc2c(C(N)=O)cccc12)c1cccc(NC(=O)c2ccc3c(c2)OCO3)c1

>  <Name>  (976) 
nan

>  <Pocket>  (976) 
nan

>  <ATP_Site>  (976) 
nan

>  <Peripheral>  (976) 
nan

>  <Num_H_Atoms_ProtBoundConf>  (976) 
nan

>  <Num_Resolved_Atoms>  (976) 
nan

>  <Num_Not_Resolved_Atoms>  (976) 
nan

$$$$
CHEMBL5088930
     RDKit          3D

  0  0  0  0  0  0  0  0  0  0999 V3000
M  V30 BEGIN CTAB
M  V30 COUNTS 53 56 0 0 0
M  V30 BEGIN ATOM
M  V30 1 Br 0.008118 -3.775331 3.967917 0
M  V30 2 C 0.143222 -3.114926 2.177647 0
M  V30 3 C 1.401338 -3.080549 1.558026 0
M  V30 4 N 1.503779 -2.620064 0.317020 0
M  V30 5 C 0.456138 -2.174298 -0.396388 0
M  V30 6 N 0.277068 -1.636206 -1.697547 0
M  V30 7 C 0.723342 -0.276283 -1.871170 0
M  V30 8 C 0.294271 0.536925 -2.931173 0
M  V30 9 C 0.804859 1.825848 -3.020224 0
M  V30 10 C 1.703893 2.330711 -2.123614 0
M  V30 11 C 2.150577 1.566631 -1.073157 0
M  V30 12 C 3.130409 2.076738 -0.109927 0
M  V30 13 N 2.654578 2.661886 1.071128 0
M  V30 14 C 1.816546 3.796975 1.012219 0
M  V30 15 C 1.465903 4.131368 2.476648 0
M  V30 16 O 2.663625 3.956583 3.206390 0
M  V30 17 C 2.926775 2.588983 3.432507 0
M  V30 18 C 2.459197 1.808319 2.194561 0
M  V30 19 C 1.647324 0.278147 -0.971998 0
M  V30 20 N -0.760618 -2.215207 0.220533 0
M  V30 21 C -0.961691 -2.660556 1.460652 0
M  V30 22 N -2.256808 -2.679204 2.086867 0
M  V30 23 C -3.372846 -2.220665 1.301558 0
M  V30 24 C -3.632301 -3.136582 0.114787 0
M  V30 25 C -3.946541 -4.525001 0.613423 0
M  V30 26 C -4.223379 -5.482553 -0.359128 0
M  V30 27 N -4.486024 -6.649927 0.264704 0
M  V30 28 C -4.374141 -6.423657 1.584598 0
M  V30 29 N -4.050233 -5.147354 1.812826 0
M  V30 30 H 2.314886 -3.408017 2.032759 0
M  V30 31 H -0.145016 -2.116017 -2.550738 0
M  V30 32 H -0.415260 0.095636 -3.615305 0
M  V30 33 H 0.440400 2.397049 -3.846516 0
M  V30 34 H 2.037703 3.341900 -2.275496 0
M  V30 35 H 3.846500 2.801804 -0.584715 0
M  V30 36 H 3.801877 1.209557 0.183856 0
M  V30 37 H 2.383851 4.663151 0.604705 0
M  V30 38 H 0.832510 3.659908 0.507208 0
M  V30 39 H 1.164750 5.180433 2.587022 0
M  V30 40 H 0.763056 3.397280 2.895316 0
M  V30 41 H 2.453184 2.258770 4.353792 0
M  V30 42 H 4.051187 2.462395 3.431268 0
M  V30 43 H 3.105443 0.911980 2.088244 0
M  V30 44 H 1.437645 1.463384 2.380266 0
M  V30 45 H 1.981674 -0.326727 -0.166058 0
M  V30 46 H -2.351651 -3.012696 3.058307 0
M  V30 47 H -3.184478 -1.212265 0.878929 0
M  V30 48 H -4.281010 -2.198046 1.909856 0
M  V30 49 H -2.773679 -3.215580 -0.559213 0
M  V30 50 H -4.490953 -2.775820 -0.449253 0
M  V30 51 H -4.290484 -5.568304 -1.453644 0
M  V30 52 H -4.745812 -7.630156 -0.060458 0
M  V30 53 H -4.516639 -7.134349 2.397788 0
M  V30 END ATOM
M  V30 BEGIN BOND
M  V30 1 1 1 2
M  V30 2 2 2 3
M  V30 3 1 3 4
M  V30 4 2 4 5
M  V30 5 1 5 6
M  V30 6 1 6 7
M  V30 7 2 7 8
M  V30 8 1 8 9
M  V30 9 2 9 10
M  V30 10 1 10 11
M  V30 11 1 11 12
M  V30 12 1 12 13
M  V30 13 1 13 14
M  V30 14 1 14 15
M  V30 15 1 15 16
M  V30 16 1 16 17
M  V30 17 1 17 18
M  V30 18 2 11 19
M  V30 19 1 5 20
M  V30 20 2 20 21
M  V30 21 1 21 22
M  V30 22 1 22 23
M  V30 23 1 23 24
M  V30 24 1 24 25
M  V30 25 2 25 26
M  V30 26 1 26 27
M  V30 27 1 27 28
M  V30 28 2 28 29
M  V30 29 1 21 2
M  V30 30 1 29 25
M  V30 31 1 19 7
M  V30 32 1 18 13
M  V30 33 1 3 30
M  V30 34 1 6 31
M  V30 35 1 8 32
M  V30 36 1 9 33
M  V30 37 1 10 34
M  V30 38 1 12 35
M  V30 39 1 12 36
M  V30 40 1 14 37
M  V30 41 1 14 38
M  V30 42 1 15 39
M  V30 43 1 15 40
M  V30 44 1 17 41
M  V30 45 1 17 42
M  V30 46 1 18 43
M  V30 47 1 18 44
M  V30 48 1 19 45
M  V30 49 1 22 46
M  V30 50 1 23 47
M  V30 51 1 23 48
M  V30 52 1 24 49
M  V30 53 1 24 50
M  V30 54 1 26 51
M  V30 55 1 27 52
M  V30 56 1 28 53
M  V30 END BOND
M  V30 END CTAB
M  END
>  <Dataset>  (977) 
ChEMBL_Kinases

>  <Ligand_Instance>  (977) 
nan

>  <PDB_ID>  (977) 
nan

>  <Standardized_SMILES>  (977) 
Brc1cnc(Nc2cccc(CN3CCOCC3)c2)nc1NCCc1c[nH]cn1

>  <Name>  (977) 
nan

>  <Pocket>  (977) 
nan

>  <ATP_Site>  (977) 
nan

>  <Peripheral>  (977) 
nan

>  <Num_H_Atoms_ProtBoundConf>  (977) 
nan

>  <Num_Resolved_Atoms>  (977) 
nan

>  <Num_Not_Resolved_Atoms>  (977) 
nan

$$$$
CHEMBL5089002
     RDKit          3D

  0  0  0  0  0  0  0  0  0  0999 V3000
M  V30 BEGIN CTAB
M  V30 COUNTS 143 150 0 0 0
M  V30 BEGIN ATOM
M  V30 1 C 5.123614 0.055694 0.383716 0
M  V30 2 N 4.650086 -0.109660 -0.993590 0
M  V30 3 C 4.180449 -1.427840 -1.355301 0
M  V30 4 O 3.891726 -2.216672 -0.444248 0
M  V30 5 C 4.084119 -1.734305 -2.800285 0
M  V30 6 C 4.868322 -0.746300 -3.588132 0
M  V30 7 C 4.477209 0.711544 -3.324832 0
M  V30 8 N 3.177123 1.019448 -3.819863 0
M  V30 9 C 3.044329 1.767822 -5.034055 0
M  V30 10 O 3.920860 2.223175 -5.823759 0
M  V30 11 C 1.601232 1.980735 -5.300177 0
M  V30 12 C 0.976985 2.629132 -6.353923 0
M  V30 13 C -0.396413 2.708468 -6.421393 0
M  V30 14 C -1.045301 2.098304 -5.370961 0
M  V30 15 C -0.511886 1.422640 -4.270450 0
M  V30 16 N -1.266132 0.849642 -3.201524 0
M  V30 17 C -2.640321 1.011531 -3.429569 0
M  V30 18 C -3.632048 0.566808 -2.419553 0
M  V30 19 O -3.621974 -0.749973 -2.070835 0
M  V30 20 C -4.648214 -1.234896 -1.348436 0
M  V30 21 C -5.067235 -0.799031 -0.029185 0
M  V30 22 O -4.190874 -0.902163 1.044391 0
M  V30 23 C -5.001426 -0.675561 2.181027 0
M  V30 24 C -4.394355 -0.910445 3.483331 0
M  V30 25 O -3.354351 -0.294477 4.037646 0
M  V30 26 C -3.494666 0.999056 4.470547 0
M  V30 27 C -2.331271 1.500492 5.226106 0
M  V30 28 O -1.103077 1.605144 4.643015 0
M  V30 29 C -0.143226 2.017600 5.569155 0
M  V30 30 C 1.186205 2.407421 5.031768 0
M  V30 31 O 1.091250 3.486588 4.159008 0
M  V30 32 C 2.325104 3.963450 3.728217 0
M  V30 33 C 2.126412 5.191973 2.854317 0
M  V30 34 C 1.419258 4.988406 1.612639 0
M  V30 35 O 2.252908 4.901053 0.629017 0
M  V30 36 N 0.038344 4.882774 1.260681 0
M  V30 37 C -1.216283 4.775911 2.036794 0
M  V30 38 C -1.841838 3.453666 1.589802 0
M  V30 39 N -1.149665 2.844492 0.545755 0
M  V30 40 C -0.384335 1.703294 0.616294 0
M  V30 41 C -1.227005 0.446137 0.807196 0
M  V30 42 C -0.379759 -0.779232 0.821498 0 CFG=2
M  V30 43 N -1.245438 -1.955200 0.955531 0
M  V30 44 C -1.115755 -2.923251 -0.110460 0
M  V30 45 O -0.278745 -2.619810 -1.035507 0
M  V30 46 C -1.748079 -4.227314 -0.380864 0
M  V30 47 N -2.988533 -4.443635 0.320131 0
M  V30 48 C -1.946478 -4.413657 -1.841464 0
M  V30 49 C -0.735150 -4.815275 -2.614998 0
M  V30 50 N -0.009667 -5.908806 -1.994131 0
M  V30 51 C 0.137535 -7.068592 -2.776076 0
M  V30 52 N -0.025509 -6.995250 -4.115117 0
M  V30 53 C 0.153750 -8.001405 -4.964587 0
M  V30 54 N 0.536362 -9.210131 -4.421162 0
M  V30 55 C 0.695814 -9.264069 -3.068423 0
M  V30 56 N 1.054871 -10.483953 -2.706076 0
M  V30 57 C 1.118852 -10.190848 -1.322116 0
M  V30 58 C 0.794158 -8.844090 -1.019215 0
M  V30 59 C 0.516420 -8.242445 -2.182785 0
M  V30 60 C 0.404016 -5.445865 -0.700901 0
M  V30 61 C -0.786808 -5.297919 0.181105 0
M  V30 62 C 0.603275 -0.844918 1.971772 0
M  V30 63 C 1.977941 -0.600182 1.986389 0
M  V30 64 C 2.670294 -0.796224 3.168977 0
M  V30 65 C 2.066375 -1.215087 4.322082 0
M  V30 66 Cl 3.024230 -1.414713 5.783259 0
M  V30 67 C 0.710038 -1.463630 4.357681 0
M  V30 68 C 0.013254 -1.269827 3.168814 0
M  V30 69 C -0.955081 3.683006 -0.626218 0
M  V30 70 C -0.275544 4.935792 -0.183406 0
M  V30 71 C 0.864545 1.396475 -4.294365 0
M  V30 72 C 1.841976 0.806527 -3.391531 0
M  V30 73 O 1.543722 0.192982 -2.363194 0
M  V30 74 C 4.673611 1.007256 -1.904792 0
M  V30 75 O 4.861337 2.128707 -1.365694 0
M  V30 76 H 4.626632 0.936870 0.813924 0
M  V30 77 H 4.891243 -0.822537 0.985562 0
M  V30 78 H 6.211384 0.275765 0.347399 0
M  V30 79 H 3.061294 -1.821783 -3.192682 0
M  V30 80 H 4.628103 -2.728601 -2.925182 0
M  V30 81 H 5.928557 -0.816179 -3.186426 0
M  V30 82 H 4.959152 -0.968922 -4.664749 0
M  V30 83 H 5.244580 1.248594 -3.971667 0
M  V30 84 H 1.537067 3.097757 -7.168336 0
M  V30 85 H -0.918360 3.196136 -7.212285 0
M  V30 86 H -2.141302 2.167649 -5.449157 0
M  V30 87 H -0.758150 0.413019 -2.430309 0
M  V30 88 H -2.805690 2.136795 -3.577804 0
M  V30 89 H -2.967955 0.585514 -4.418216 0
M  V30 90 H -4.658859 0.809858 -2.868720 0
M  V30 91 H -3.592813 1.248691 -1.531743 0
M  V30 92 H -5.593705 -1.279096 -2.021088 0
M  V30 93 H -4.462133 -2.378090 -1.260119 0
M  V30 94 H -5.494144 0.237731 0.018318 0
M  V30 95 H -5.977728 -1.436297 0.253031 0
M  V30 96 H -5.816930 -1.458927 2.039457 0
M  V30 97 H -5.567099 0.277731 2.073697 0
M  V30 98 H -5.212665 -0.900938 4.301018 0
M  V30 99 H -4.130642 -2.046819 3.532975 0
M  V30 100 H -3.857269 1.707580 3.679976 0
M  V30 101 H -4.368301 0.987134 5.202969 0
M  V30 102 H -2.188800 0.772706 6.097270 0
M  V30 103 H -2.543542 2.476122 5.768045 0
M  V30 104 H -0.514995 2.781046 6.290851 0
M  V30 105 H 0.030133 1.099483 6.208464 0
M  V30 106 H 1.780678 2.786783 5.905825 0
M  V30 107 H 1.713930 1.566507 4.597752 0
M  V30 108 H 2.895175 4.286624 4.619089 0
M  V30 109 H 2.930464 3.193090 3.210578 0
M  V30 110 H 1.579914 5.990627 3.434283 0
M  V30 111 H 3.127441 5.627815 2.681612 0
M  V30 112 H -1.053713 4.850357 3.107103 0
M  V30 113 H -1.829626 5.634218 1.723717 0
M  V30 114 H -1.975077 2.793193 2.432124 0
M  V30 115 H -2.877705 3.745728 1.230737 0
M  V30 116 H 0.223142 1.612751 -0.325594 0
M  V30 117 H 0.333343 1.674390 1.499469 0
M  V30 118 H -1.705303 0.565900 1.802224 0
M  V30 119 H -1.965660 0.446939 0.001564 0
M  V30 120 H 0.228829 -0.843151 -0.082744 0
M  V30 121 H -1.936770 -2.293457 1.624521 0
M  V30 122 H -3.745338 -4.705280 -0.368103 0
M  V30 123 H -3.280560 -3.630941 0.901874 0
M  V30 124 H -2.306770 -3.426109 -2.246388 0
M  V30 125 H -2.740767 -5.169166 -2.036505 0
M  V30 126 H -0.033841 -3.983864 -2.867165 0
M  V30 127 H -1.115331 -5.142867 -3.629865 0
M  V30 128 H 0.017587 -7.914670 -6.023675 0
M  V30 129 H 1.336394 -11.438967 -2.418619 0
M  V30 130 H 1.343481 -10.614563 -0.295605 0
M  V30 131 H 0.701659 -8.222943 -0.118171 0
M  V30 132 H 1.153707 -6.086255 -0.182991 0
M  V30 133 H 0.911170 -4.446887 -0.802571 0
M  V30 134 H -1.379491 -6.235210 0.230793 0
M  V30 135 H -0.569934 -4.974273 1.206854 0
M  V30 136 H 2.323241 -0.277890 1.020240 0
M  V30 137 H 3.733428 -0.588879 3.066502 0
M  V30 138 H 0.209966 -1.793233 5.263235 0
M  V30 139 H -1.037836 -1.478230 3.249740 0
M  V30 140 H -1.971456 3.835019 -1.045052 0
M  V30 141 H -0.384702 3.086298 -1.344668 0
M  V30 142 H -1.017276 5.771704 -0.267796 0
M  V30 143 H 0.594982 5.155856 -0.791292 0
M  V30 END ATOM
M  V30 BEGIN BOND
M  V30 1 1 1 2
M  V30 2 1 2 3
M  V30 3 2 3 4
M  V30 4 1 3 5
M  V30 5 1 5 6
M  V30 6 1 6 7
M  V30 7 1 7 8
M  V30 8 1 8 9
M  V30 9 2 9 10
M  V30 10 1 9 11
M  V30 11 2 11 12
M  V30 12 1 12 13
M  V30 13 2 13 14
M  V30 14 1 14 15
M  V30 15 1 15 16
M  V30 16 1 16 17
M  V30 17 1 17 18
M  V30 18 1 18 19
M  V30 19 1 19 20
M  V30 20 1 20 21
M  V30 21 1 21 22
M  V30 22 1 22 23
M  V30 23 1 23 24
M  V30 24 1 24 25
M  V30 25 1 25 26
M  V30 26 1 26 27
M  V30 27 1 27 28
M  V30 28 1 28 29
M  V30 29 1 29 30
M  V30 30 1 30 31
M  V30 31 1 31 32
M  V30 32 1 32 33
M  V30 33 1 33 34
M  V30 34 2 34 35
M  V30 35 1 34 36
M  V30 36 1 36 37
M  V30 37 1 37 38
M  V30 38 1 38 39
M  V30 39 1 39 40
M  V30 40 1 40 41
M  V30 41 1 41 42
M  V30 42 1 42 43
M  V30 43 1 43 44
M  V30 44 2 44 45
M  V30 45 1 44 46
M  V30 46 1 46 47
M  V30 47 1 46 48
M  V30 48 1 48 49
M  V30 49 1 49 50
M  V30 50 1 50 51
M  V30 51 2 51 52
M  V30 52 1 52 53
M  V30 53 2 53 54
M  V30 54 1 54 55
M  V30 55 1 55 56
M  V30 56 1 56 57
M  V30 57 2 57 58
M  V30 58 1 58 59
M  V30 59 1 50 60
M  V30 60 1 60 61
M  V30 61 1 42 62
M  V30 62 2 62 63
M  V30 63 1 63 64
M  V30 64 2 64 65
M  V30 65 1 65 66
M  V30 66 1 65 67
M  V30 67 2 67 68
M  V30 68 1 39 69
M  V30 69 1 69 70
M  V30 70 2 15 71
M  V30 71 1 71 72
M  V30 72 2 72 73
M  V30 73 1 7 74
M  V30 74 2 74 75
M  V30 75 1 74 2
M  V30 76 1 72 8
M  V30 77 1 71 11
M  V30 78 1 70 36
M  V30 79 1 61 46
M  V30 80 1 68 62
M  V30 81 1 59 51
M  V30 82 2 59 55
M  V30 83 1 1 76
M  V30 84 1 1 77
M  V30 85 1 1 78
M  V30 86 1 5 79
M  V30 87 1 5 80
M  V30 88 1 6 81
M  V30 89 1 6 82
M  V30 90 1 7 83
M  V30 91 1 12 84
M  V30 92 1 13 85
M  V30 93 1 14 86
M  V30 94 1 16 87
M  V30 95 1 17 88
M  V30 96 1 17 89
M  V30 97 1 18 90
M  V30 98 1 18 91
M  V30 99 1 20 92
M  V30 100 1 20 93
M  V30 101 1 21 94
M  V30 102 1 21 95
M  V30 103 1 23 96
M  V30 104 1 23 97
M  V30 105 1 24 98
M  V30 106 1 24 99
M  V30 107 1 26 100
M  V30 108 1 26 101
M  V30 109 1 27 102
M  V30 110 1 27 103
M  V30 111 1 29 104
M  V30 112 1 29 105
M  V30 113 1 30 106
M  V30 114 1 30 107
M  V30 115 1 32 108
M  V30 116 1 32 109
M  V30 117 1 33 110
M  V30 118 1 33 111
M  V30 119 1 37 112
M  V30 120 1 37 113
M  V30 121 1 38 114
M  V30 122 1 38 115
M  V30 123 1 40 116
M  V30 124 1 40 117
M  V30 125 1 41 118
M  V30 126 1 41 119
M  V30 127 1 42 120 CFG=3
M  V30 128 1 43 121
M  V30 129 1 47 122
M  V30 130 1 47 123
M  V30 131 1 48 124
M  V30 132 1 48 125
M  V30 133 1 49 126
M  V30 134 1 49 127
M  V30 135 1 53 128
M  V30 136 1 56 129
M  V30 137 1 57 130
M  V30 138 1 58 131
M  V30 139 1 60 132
M  V30 140 1 60 133
M  V30 141 1 61 134
M  V30 142 1 61 135
M  V30 143 1 63 136
M  V30 144 1 64 137
M  V30 145 1 67 138
M  V30 146 1 68 139
M  V30 147 1 69 140
M  V30 148 1 69 141
M  V30 149 1 70 142
M  V30 150 1 70 143
M  V30 END BOND
M  V30 END CTAB
M  END
>  <Dataset>  (978) 
ChEMBL_Kinases

>  <Ligand_Instance>  (978) 
nan

>  <PDB_ID>  (978) 
nan

>  <Standardized_SMILES>  (978) 
CN1C(=O)CCC(N2C(=O)c3cccc(NCCOCCOCCOCCOCCOCCC(=O)N4CCN(CC[C@H](NC(=O)C5(N)CCN(c6ncnc7[nH]ccc67)CC5)c5ccc(Cl)cc5)CC4)c3C2=O)C1=O

>  <Name>  (978) 
nan

>  <Pocket>  (978) 
nan

>  <ATP_Site>  (978) 
nan

>  <Peripheral>  (978) 
nan

>  <Num_H_Atoms_ProtBoundConf>  (978) 
nan

>  <Num_Resolved_Atoms>  (978) 
nan

>  <Num_Not_Resolved_Atoms>  (978) 
nan

$$$$
CHEMBL5089132
     RDKit          3D

  0  0  0  0  0  0  0  0  0  0999 V3000
M  V30 BEGIN CTAB
M  V30 COUNTS 40 43 0 0 0
M  V30 BEGIN ATOM
M  V30 1 O 1.093443 -3.469684 3.458820 0
M  V30 2 C 0.246359 -2.612855 2.734649 0
M  V30 3 C 0.027717 -3.125575 1.355357 0
M  V30 4 C 0.889850 -2.555938 0.289856 0
M  V30 5 N 1.543770 -1.304300 0.613805 0
M  V30 6 C 1.960433 -0.421122 -0.413220 0
M  V30 7 N 3.228474 -0.717873 -0.825212 0
M  V30 8 C 3.797140 -0.003642 -1.839397 0
M  V30 9 N 3.167336 1.002556 -2.474514 0
M  V30 10 C 1.919776 1.312680 -2.084810 0
M  V30 11 N 1.013224 2.222038 -2.430881 0
M  V30 12 C -0.104335 2.102609 -1.667620 0
M  V30 13 C 0.069822 1.046893 -0.757713 0
M  V30 14 C -0.992763 0.696555 0.158023 0
M  V30 15 C -1.267075 1.779666 1.015127 0
M  V30 16 C -2.250602 1.774117 1.988807 0
M  V30 17 C -3.015583 0.641492 2.136844 0
M  V30 18 C -2.762282 -0.428790 1.306843 0
M  V30 19 Cl -3.720178 -1.872228 1.467858 0
M  V30 20 C -1.787162 -0.406876 0.350202 0
M  V30 21 C 1.330240 0.606582 -1.067775 0
M  V30 22 C 1.829543 -0.839728 1.956375 0
M  V30 23 C 0.661596 -1.190336 2.854094 0
M  V30 24 H 0.760641 -3.658923 4.371837 0
M  V30 25 H -0.745783 -2.703817 3.267916 0
M  V30 26 H -1.039610 -3.100926 1.034379 0
M  V30 27 H 0.244560 -4.239005 1.405955 0
M  V30 28 H 1.766681 -3.265921 0.106548 0
M  V30 29 H 0.349421 -2.524206 -0.672578 0
M  V30 30 H 4.814044 -0.230515 -2.181436 0
M  V30 31 H 1.139263 2.934077 -3.187053 0
M  V30 32 H -0.962303 2.744447 -1.784131 0
M  V30 33 H -0.740198 2.749969 1.015812 0
M  V30 34 H -2.474733 2.577535 2.645222 0
M  V30 35 H -3.795595 0.582170 2.879780 0
M  V30 36 H -1.537600 -1.180555 -0.337477 0
M  V30 37 H 2.703561 -1.433598 2.317974 0
M  V30 38 H 1.996779 0.228048 2.022487 0
M  V30 39 H -0.184449 -0.503151 2.761359 0
M  V30 40 H 1.030058 -1.060315 3.913715 0
M  V30 END ATOM
M  V30 BEGIN BOND
M  V30 1 1 1 2
M  V30 2 1 2 3
M  V30 3 1 3 4
M  V30 4 1 4 5
M  V30 5 1 5 6
M  V30 6 2 6 7
M  V30 7 1 7 8
M  V30 8 2 8 9
M  V30 9 1 9 10
M  V30 10 1 10 11
M  V30 11 1 11 12
M  V30 12 2 12 13
M  V30 13 1 13 14
M  V30 14 2 14 15
M  V30 15 1 15 16
M  V30 16 2 16 17
M  V30 17 1 17 18
M  V30 18 1 18 19
M  V30 19 2 18 20
M  V30 20 1 13 21
M  V30 21 1 5 22
M  V30 22 1 22 23
M  V30 23 1 23 2
M  V30 24 1 21 6
M  V30 25 2 21 10
M  V30 26 1 20 14
M  V30 27 1 1 24
M  V30 28 1 2 25
M  V30 29 1 3 26
M  V30 30 1 3 27
M  V30 31 1 4 28
M  V30 32 1 4 29
M  V30 33 1 8 30
M  V30 34 1 11 31
M  V30 35 1 12 32
M  V30 36 1 15 33
M  V30 37 1 16 34
M  V30 38 1 17 35
M  V30 39 1 20 36
M  V30 40 1 22 37
M  V30 41 1 22 38
M  V30 42 1 23 39
M  V30 43 1 23 40
M  V30 END BOND
M  V30 END CTAB
M  END
>  <Dataset>  (979) 
ChEMBL_Kinases

>  <Ligand_Instance>  (979) 
nan

>  <PDB_ID>  (979) 
nan

>  <Standardized_SMILES>  (979) 
OC1CCN(c2ncnc3[nH]cc(-c4cccc(Cl)c4)c23)CC1

>  <Name>  (979) 
nan

>  <Pocket>  (979) 
nan

>  <ATP_Site>  (979) 
nan

>  <Peripheral>  (979) 
nan

>  <Num_H_Atoms_ProtBoundConf>  (979) 
nan

>  <Num_Resolved_Atoms>  (979) 
nan

>  <Num_Not_Resolved_Atoms>  (979) 
nan

$$$$
CHEMBL5089171
     RDKit          3D

  0  0  0  0  0  0  0  0  0  0999 V3000
M  V30 BEGIN CTAB
M  V30 COUNTS 46 49 0 0 0
M  V30 BEGIN ATOM
M  V30 1 C -1.228759 -3.823050 1.982130 0
M  V30 2 C -0.466313 -2.572033 2.218316 0
M  V30 3 N -0.138916 -2.000713 3.391598 0
M  V30 4 C 0.573094 -0.864892 3.135528 0
M  V30 5 C 1.100904 0.018767 4.050725 0
M  V30 6 C 1.779857 1.090909 3.520242 0
M  V30 7 C 1.871362 1.186230 2.148056 0
M  V30 8 C 2.577603 2.298751 1.524369 0
M  V30 9 C 2.647214 2.358267 0.135521 0
M  V30 10 C 3.299471 3.381264 -0.558887 0
M  V30 11 N 3.332421 3.380363 -1.985830 0
M  V30 12 N 3.884444 4.349743 0.168670 0
M  V30 13 C 3.851026 4.346892 1.516231 0
M  V30 14 N 4.483242 5.392427 2.271794 0
M  V30 15 C 3.201192 3.326664 2.180863 0
M  V30 16 N 1.331931 0.287115 1.318342 0
M  V30 17 C 0.643890 -0.803004 1.759634 0
M  V30 18 N 0.007961 -1.847407 1.189807 0
M  V30 19 C 0.000260 -1.929790 -0.247715 0
M  V30 20 C -1.139288 -1.211938 -0.907071 0
M  V30 21 O -2.413954 -1.663579 -0.567572 0
M  V30 22 C -2.938846 -2.911138 -0.759067 0
M  V30 23 C -4.237486 -3.056167 -0.314864 0
M  V30 24 C -4.940211 -4.248908 -0.422218 0
M  V30 25 C -4.336016 -5.356384 -0.995542 0
M  V30 26 C -3.030065 -5.166249 -1.428426 0
M  V30 27 Br -2.118141 -6.645204 -2.233657 0
M  V30 28 N -2.372761 -3.996505 -1.311130 0
M  V30 29 H -1.068822 -4.477628 2.878277 0
M  V30 30 H -0.904678 -4.329138 1.053028 0
M  V30 31 H -2.320461 -3.593116 1.997357 0
M  V30 32 H 0.971674 -0.149028 5.111006 0
M  V30 33 H 2.213869 1.814595 4.195167 0
M  V30 34 H 2.191849 1.602065 -0.491558 0
M  V30 35 H 4.224317 3.188311 -2.525604 0
M  V30 36 H 2.507617 3.562867 -2.599422 0
M  V30 37 H 4.383388 6.449109 2.216625 0
M  V30 38 H 5.191653 5.287138 3.051358 0
M  V30 39 H 3.177880 3.329493 3.248066 0
M  V30 40 H 0.985278 -1.637122 -0.682080 0
M  V30 41 H -0.106821 -3.011123 -0.569482 0
M  V30 42 H -1.109944 -0.114467 -0.733744 0
M  V30 43 H -1.043251 -1.353412 -2.020589 0
M  V30 44 H -4.814353 -2.255650 0.152369 0
M  V30 45 H -5.960389 -4.377838 -0.077945 0
M  V30 46 H -4.855626 -6.301957 -1.094774 0
M  V30 END ATOM
M  V30 BEGIN BOND
M  V30 1 1 1 2
M  V30 2 2 2 3
M  V30 3 1 3 4
M  V30 4 2 4 5
M  V30 5 1 5 6
M  V30 6 2 6 7
M  V30 7 1 7 8
M  V30 8 2 8 9
M  V30 9 1 9 10
M  V30 10 1 10 11
M  V30 11 2 10 12
M  V30 12 1 12 13
M  V30 13 1 13 14
M  V30 14 2 13 15
M  V30 15 1 7 16
M  V30 16 2 16 17
M  V30 17 1 17 18
M  V30 18 1 18 19
M  V30 19 1 19 20
M  V30 20 1 20 21
M  V30 21 1 21 22
M  V30 22 2 22 23
M  V30 23 1 23 24
M  V30 24 2 24 25
M  V30 25 1 25 26
M  V30 26 1 26 27
M  V30 27 2 26 28
M  V30 28 1 18 2
M  V30 29 1 28 22
M  V30 30 1 17 4
M  V30 31 1 15 8
M  V30 32 1 1 29
M  V30 33 1 1 30
M  V30 34 1 1 31
M  V30 35 1 5 32
M  V30 36 1 6 33
M  V30 37 1 9 34
M  V30 38 1 11 35
M  V30 39 1 11 36
M  V30 40 1 14 37
M  V30 41 1 14 38
M  V30 42 1 15 39
M  V30 43 1 19 40
M  V30 44 1 19 41
M  V30 45 1 20 42
M  V30 46 1 20 43
M  V30 47 1 23 44
M  V30 48 1 24 45
M  V30 49 1 25 46
M  V30 END BOND
M  V30 END CTAB
M  END
>  <Dataset>  (980) 
ChEMBL_Kinases

>  <Ligand_Instance>  (980) 
nan

>  <PDB_ID>  (980) 
nan

>  <Standardized_SMILES>  (980) 
Cc1nc2ccc(-c3cc(N)nc(N)c3)nc2n1CCOc1cccc(Br)n1

>  <Name>  (980) 
nan

>  <Pocket>  (980) 
nan

>  <ATP_Site>  (980) 
nan

>  <Peripheral>  (980) 
nan

>  <Num_H_Atoms_ProtBoundConf>  (980) 
nan

>  <Num_Resolved_Atoms>  (980) 
nan

>  <Num_Not_Resolved_Atoms>  (980) 
nan

$$$$
CHEMBL5089294
     RDKit          3D

  0  0  0  0  0  0  0  0  0  0999 V3000
M  V30 BEGIN CTAB
M  V30 COUNTS 43 45 0 0 0
M  V30 BEGIN ATOM
M  V30 1 C -1.884144 -3.335348 0.896454 0
M  V30 2 O -0.687671 -2.705707 0.654609 0
M  V30 3 C -0.217440 -2.852965 -0.623469 0
M  V30 4 C -1.147561 -2.311783 -1.670174 0
M  V30 5 C -1.426515 -0.844147 -1.520957 0
M  V30 6 N -0.217028 -0.040390 -1.610345 0
M  V30 7 C 0.199122 0.422793 -2.813448 0
M  V30 8 C -0.323245 0.303039 -4.205031 0
M  V30 9 N 1.324272 1.124967 -2.608733 0
M  V30 10 C 1.638920 1.121337 -1.294502 0
M  V30 11 C 2.622163 1.632820 -0.473578 0
M  V30 12 C 2.556682 1.374720 0.879949 0
M  V30 13 C 1.568660 0.632664 1.488710 0
M  V30 14 C 1.526661 0.376597 2.925368 0
M  V30 15 C 2.460102 0.842528 3.828281 0
M  V30 16 C 2.296466 0.523439 5.161288 0
M  V30 17 N 3.212994 0.967906 6.129647 0
M  V30 18 N 1.251027 -0.230070 5.605295 0
M  V30 19 C 0.323045 -0.698615 4.741185 0
M  V30 20 N -0.778994 -1.489791 5.189433 0
M  V30 21 C 0.481503 -0.382866 3.407950 0
M  V30 22 N 0.630932 0.154493 0.645222 0
M  V30 23 C 0.654421 0.379787 -0.674486 0
M  V30 24 H -1.839223 -4.436139 0.733481 0
M  V30 25 H -2.676897 -2.830019 0.307899 0
M  V30 26 H -2.168315 -3.125558 1.966720 0
M  V30 27 H 0.006327 -3.903096 -0.872703 0
M  V30 28 H 0.762819 -2.312141 -0.673035 0
M  V30 29 H -2.104854 -2.845815 -1.648508 0
M  V30 30 H -0.692004 -2.479084 -2.674707 0
M  V30 31 H -1.916401 -0.707320 -0.513187 0
M  V30 32 H -2.185816 -0.544761 -2.245131 0
M  V30 33 H -0.521013 1.280641 -4.670070 0
M  V30 34 H -1.228108 -0.313924 -4.249069 0
M  V30 35 H 0.420648 -0.216543 -4.866420 0
M  V30 36 H 3.398168 2.212446 -0.931745 0
M  V30 37 H 3.345845 1.797552 1.461448 0
M  V30 38 H 3.279293 1.435658 3.463520 0
M  V30 39 H 3.535865 1.899339 6.472164 0
M  V30 40 H 3.355704 1.979070 6.282112 0
M  V30 41 H -0.892838 -2.490209 5.463275 0
M  V30 42 H -1.702835 -0.978736 5.274370 0
M  V30 43 H -0.265772 -0.766150 2.749712 0
M  V30 END ATOM
M  V30 BEGIN BOND
M  V30 1 1 1 2
M  V30 2 1 2 3
M  V30 3 1 3 4
M  V30 4 1 4 5
M  V30 5 1 5 6
M  V30 6 1 6 7
M  V30 7 1 7 8
M  V30 8 2 7 9
M  V30 9 1 9 10
M  V30 10 2 10 11
M  V30 11 1 11 12
M  V30 12 2 12 13
M  V30 13 1 13 14
M  V30 14 2 14 15
M  V30 15 1 15 16
M  V30 16 1 16 17
M  V30 17 2 16 18
M  V30 18 1 18 19
M  V30 19 1 19 20
M  V30 20 2 19 21
M  V30 21 1 13 22
M  V30 22 2 22 23
M  V30 23 1 23 6
M  V30 24 1 23 10
M  V30 25 1 21 14
M  V30 26 1 1 24
M  V30 27 1 1 25
M  V30 28 1 1 26
M  V30 29 1 3 27
M  V30 30 1 3 28
M  V30 31 1 4 29
M  V30 32 1 4 30
M  V30 33 1 5 31
M  V30 34 1 5 32
M  V30 35 1 8 33
M  V30 36 1 8 34
M  V30 37 1 8 35
M  V30 38 1 11 36
M  V30 39 1 12 37
M  V30 40 1 15 38
M  V30 41 1 17 39
M  V30 42 1 17 40
M  V30 43 1 20 41
M  V30 44 1 20 42
M  V30 45 1 21 43
M  V30 END BOND
M  V30 END CTAB
M  END
>  <Dataset>  (981) 
ChEMBL_Kinases

>  <Ligand_Instance>  (981) 
nan

>  <PDB_ID>  (981) 
nan

>  <Standardized_SMILES>  (981) 
COCCCn1c(C)nc2ccc(-c3cc(N)nc(N)c3)nc21

>  <Name>  (981) 
nan

>  <Pocket>  (981) 
nan

>  <ATP_Site>  (981) 
nan

>  <Peripheral>  (981) 
nan

>  <Num_H_Atoms_ProtBoundConf>  (981) 
nan

>  <Num_Resolved_Atoms>  (981) 
nan

>  <Num_Not_Resolved_Atoms>  (981) 
nan

$$$$
CHEMBL3675406
     RDKit          3D

  0  0  0  0  0  0  0  0  0  0999 V3000
M  V30 BEGIN CTAB
M  V30 COUNTS 71 75 0 0 0
M  V30 BEGIN ATOM
M  V30 1 C 5.545981 -2.131018 2.429805 0
M  V30 2 N 4.142587 -1.779908 2.286662 0
M  V30 3 C 3.958883 -0.481840 2.908993 0
M  V30 4 C 3.882831 -1.658479 0.864902 0
M  V30 5 C 2.493325 -1.299873 0.499539 0
M  V30 6 N 2.411883 -1.210782 -0.968064 0
M  V30 7 C 3.109356 -0.243409 -1.743790 0
M  V30 8 N 3.872631 0.658585 -1.106551 0
M  V30 9 C 4.562865 1.616360 -1.762057 0
M  V30 10 N 4.497984 1.688358 -3.097444 0
M  V30 11 C 3.750269 0.812604 -3.784574 0
M  V30 12 C 3.693361 0.895227 -5.147470 0
M  V30 13 C 4.452912 1.934701 -5.813681 0
M  V30 14 N 5.245179 2.851340 -5.092266 0
M  V30 15 O 4.557451 2.210064 -7.032787 0
M  V30 16 C 2.921993 -0.015254 -5.820897 0
M  V30 17 C 2.188739 -1.025385 -5.187743 0
M  V30 18 C 2.282735 -1.064161 -3.794541 0
M  V30 19 C 3.052858 -0.157707 -3.101751 0
M  V30 20 C 1.424339 -2.105688 1.089695 0
M  V30 21 C 1.557313 -3.163570 1.969255 0
M  V30 22 C 0.501735 -3.868099 2.507558 0
M  V30 23 C -0.773502 -3.448846 2.107866 0
M  V30 24 C -0.949997 -2.385855 1.222066 0
M  V30 25 N -2.336515 -2.178352 1.007779 0
M  V30 26 C -3.408178 -2.580791 0.191690 0
M  V30 27 O -3.208044 -3.423003 -0.719343 0
M  V30 28 C -4.735332 -2.027093 0.405096 0
M  V30 29 C -5.719528 -2.564512 -0.397183 0
M  V30 30 C -7.006536 -2.045379 -0.197617 0
M  V30 31 N -7.305530 -1.089224 0.701828 0
M  V30 32 C -6.334740 -0.565262 1.485844 0
M  V30 33 N -6.635896 0.442388 2.441831 0
M  V30 34 C -7.909255 0.963044 2.828558 0
M  V30 35 C -7.793416 1.344063 4.292505 0
M  V30 36 C -6.323338 1.182993 4.643873 0
M  V30 37 C -5.707748 1.197753 3.258073 0
M  V30 38 C -5.075751 -1.056205 1.308160 0
M  V30 39 C 0.141036 -1.716034 0.713597 0
M  V30 40 H 6.094915 -1.487397 1.710416 0
M  V30 41 H 5.716557 -3.178267 2.122776 0
M  V30 42 H 5.925077 -1.914602 3.448555 0
M  V30 43 H 4.685567 -0.296873 3.743588 0
M  V30 44 H 2.955957 -0.395032 3.411432 0
M  V30 45 H 4.139697 0.335293 2.185541 0
M  V30 46 H 4.584292 -0.916896 0.437439 0
M  V30 47 H 4.137884 -2.616072 0.342922 0
M  V30 48 H 2.345368 -0.222372 0.844470 0
M  V30 49 H 1.779940 -1.947519 -1.347565 0
M  V30 50 H 5.135070 2.275161 -1.123086 0
M  V30 51 H 6.282919 2.897916 -5.108685 0
M  V30 52 H 4.995485 3.627157 -4.432083 0
M  V30 53 H 2.924823 0.111566 -6.914539 0
M  V30 54 H 1.634323 -1.661366 -5.832839 0
M  V30 55 H 1.716603 -1.842905 -3.331253 0
M  V30 56 H 2.552690 -3.465867 2.253935 0
M  V30 57 H 0.669747 -4.688351 3.193426 0
M  V30 58 H -1.561220 -4.057200 2.578095 0
M  V30 59 H -2.488342 -1.460987 1.777668 0
M  V30 60 H -5.543171 -3.332486 -1.137453 0
M  V30 61 H -7.804281 -2.447392 -0.813940 0
M  V30 62 H -8.740594 0.203159 2.733669 0
M  V30 63 H -8.117480 1.871057 2.209337 0
M  V30 64 H -8.013388 2.435741 4.409849 0
M  V30 65 H -8.447327 0.742229 4.957059 0
M  V30 66 H -5.954728 2.021908 5.254880 0
M  V30 67 H -6.087313 0.262600 5.176179 0
M  V30 68 H -4.686098 0.820420 3.269384 0
M  V30 69 H -5.734959 2.253258 2.893402 0
M  V30 70 H -4.312160 -0.649029 1.918730 0
M  V30 71 H -0.173519 -0.918036 0.040875 0
M  V30 END ATOM
M  V30 BEGIN BOND
M  V30 1 1 1 2
M  V30 2 1 2 3
M  V30 3 1 2 4
M  V30 4 1 4 5
M  V30 5 1 5 6
M  V30 6 1 6 7
M  V30 7 2 7 8
M  V30 8 1 8 9
M  V30 9 2 9 10
M  V30 10 1 10 11
M  V30 11 2 11 12
M  V30 12 1 12 13
M  V30 13 1 13 14
M  V30 14 2 13 15
M  V30 15 1 12 16
M  V30 16 2 16 17
M  V30 17 1 17 18
M  V30 18 2 18 19
M  V30 19 1 5 20
M  V30 20 2 20 21
M  V30 21 1 21 22
M  V30 22 2 22 23
M  V30 23 1 23 24
M  V30 24 1 24 25
M  V30 25 1 25 26
M  V30 26 2 26 27
M  V30 27 1 26 28
M  V30 28 2 28 29
M  V30 29 1 29 30
M  V30 30 2 30 31
M  V30 31 1 31 32
M  V30 32 1 32 33
M  V30 33 1 33 34
M  V30 34 1 34 35
M  V30 35 1 35 36
M  V30 36 1 36 37
M  V30 37 2 32 38
M  V30 38 2 24 39
M  V30 39 1 19 7
M  V30 40 1 39 20
M  V30 41 1 19 11
M  V30 42 1 38 28
M  V30 43 1 37 33
M  V30 44 1 1 40
M  V30 45 1 1 41
M  V30 46 1 1 42
M  V30 47 1 3 43
M  V30 48 1 3 44
M  V30 49 1 3 45
M  V30 50 1 4 46
M  V30 51 1 4 47
M  V30 52 1 5 48
M  V30 53 1 6 49
M  V30 54 1 9 50
M  V30 55 1 14 51
M  V30 56 1 14 52
M  V30 57 1 16 53
M  V30 58 1 17 54
M  V30 59 1 18 55
M  V30 60 1 21 56
M  V30 61 1 22 57
M  V30 62 1 23 58
M  V30 63 1 25 59
M  V30 64 1 29 60
M  V30 65 1 30 61
M  V30 66 1 34 62
M  V30 67 1 34 63
M  V30 68 1 35 64
M  V30 69 1 35 65
M  V30 70 1 36 66
M  V30 71 1 36 67
M  V30 72 1 37 68
M  V30 73 1 37 69
M  V30 74 1 38 70
M  V30 75 1 39 71
M  V30 END BOND
M  V30 END CTAB
M  END
>  <Dataset>  (982) 
ChEMBL_Kinases

>  <Ligand_Instance>  (982) 
nan

>  <PDB_ID>  (982) 
nan

>  <Standardized_SMILES>  (982) 
CN(C)CC(Nc1ncnc2c(C(N)=O)cccc12)c1cccc(NC(=O)c2ccnc(N3CCCC3)c2)c1

>  <Name>  (982) 
nan

>  <Pocket>  (982) 
nan

>  <ATP_Site>  (982) 
nan

>  <Peripheral>  (982) 
nan

>  <Num_H_Atoms_ProtBoundConf>  (982) 
nan

>  <Num_Resolved_Atoms>  (982) 
nan

>  <Num_Not_Resolved_Atoms>  (982) 
nan

$$$$
CHEMBL3675415
     RDKit          3D

  0  0  0  0  0  0  0  0  0  0999 V3000
M  V30 BEGIN CTAB
M  V30 COUNTS 43 45 0 0 0
M  V30 BEGIN ATOM
M  V30 1 C -1.032940 -4.426263 -0.300202 0
M  V30 2 N -1.947139 -3.361554 -0.440529 0
M  V30 3 C -1.523740 -2.033666 -0.239729 0
M  V30 4 C -1.217742 -1.658853 1.173105 0
M  V30 5 N -0.803309 -0.258586 1.242027 0
M  V30 6 C 0.237980 0.394471 0.484272 0
M  V30 7 N 0.966494 -0.238945 -0.420111 0
M  V30 8 C 1.926052 0.340226 -1.136113 0
M  V30 9 N 2.190670 1.633094 -0.951854 0
M  V30 10 C 1.486565 2.356117 -0.040168 0
M  V30 11 C 1.789166 3.675077 0.115991 0
M  V30 12 C 2.852141 4.254627 -0.694963 0
M  V30 13 N 3.607454 3.522813 -1.653017 0
M  V30 14 O 3.177580 5.464784 -0.598881 0
M  V30 15 C 1.123835 4.453359 1.009409 0
M  V30 16 C 0.121479 3.845197 1.756356 0
M  V30 17 C -0.152158 2.498994 1.563425 0
M  V30 18 C 0.510252 1.715714 0.670888 0
M  V30 19 C -0.414779 -2.564216 1.976662 0
M  V30 20 C 0.939920 -2.633916 2.153204 0
M  V30 21 C 1.626070 -3.521548 2.948867 0
M  V30 22 C 0.926592 -4.457491 3.663890 0
M  V30 23 C -0.435869 -4.460959 3.547124 0
M  V30 24 F -1.111839 -5.392172 4.259076 0
M  V30 25 C -1.053740 -3.555644 2.742454 0
M  V30 26 H -0.977765 -4.935603 -1.320702 0
M  V30 27 H -0.026225 -4.076077 -0.077959 0
M  V30 28 H -1.344044 -5.197784 0.455457 0
M  V30 29 H -2.751874 -3.514921 -1.081353 0
M  V30 30 H -0.663804 -1.807212 -0.932526 0
M  V30 31 H -2.387257 -1.354546 -0.544843 0
M  V30 32 H -2.257578 -1.642416 1.671747 0
M  V30 33 H -1.330198 0.322334 1.929642 0
M  V30 34 H 2.517817 -0.165068 -1.867326 0
M  V30 35 H 3.591063 3.390360 -2.697307 0
M  V30 36 H 4.230872 3.130675 -0.917795 0
M  V30 37 H 1.380603 5.488226 1.114870 0
M  V30 38 H -0.399719 4.476930 2.465079 0
M  V30 39 H -0.935969 2.152622 2.191331 0
M  V30 40 H 1.556671 -1.927693 1.625881 0
M  V30 41 H 2.695156 -3.504882 3.028461 0
M  V30 42 H 1.428956 -5.156635 4.289816 0
M  V30 43 H -2.140732 -3.648349 2.725133 0
M  V30 END ATOM
M  V30 BEGIN BOND
M  V30 1 1 1 2
M  V30 2 1 2 3
M  V30 3 1 3 4
M  V30 4 1 4 5
M  V30 5 1 5 6
M  V30 6 2 6 7
M  V30 7 1 7 8
M  V30 8 2 8 9
M  V30 9 1 9 10
M  V30 10 2 10 11
M  V30 11 1 11 12
M  V30 12 1 12 13
M  V30 13 2 12 14
M  V30 14 1 11 15
M  V30 15 2 15 16
M  V30 16 1 16 17
M  V30 17 2 17 18
M  V30 18 1 4 19
M  V30 19 2 19 20
M  V30 20 1 20 21
M  V30 21 2 21 22
M  V30 22 1 22 23
M  V30 23 1 23 24
M  V30 24 2 23 25
M  V30 25 1 18 6
M  V30 26 1 25 19
M  V30 27 1 18 10
M  V30 28 1 1 26
M  V30 29 1 1 27
M  V30 30 1 1 28
M  V30 31 1 2 29
M  V30 32 1 3 30
M  V30 33 1 3 31
M  V30 34 1 4 32
M  V30 35 1 5 33
M  V30 36 1 8 34
M  V30 37 1 13 35
M  V30 38 1 13 36
M  V30 39 1 15 37
M  V30 40 1 16 38
M  V30 41 1 17 39
M  V30 42 1 20 40
M  V30 43 1 21 41
M  V30 44 1 22 42
M  V30 45 1 25 43
M  V30 END BOND
M  V30 END CTAB
M  END
>  <Dataset>  (983) 
ChEMBL_Kinases

>  <Ligand_Instance>  (983) 
nan

>  <PDB_ID>  (983) 
nan

>  <Standardized_SMILES>  (983) 
CNCC(Nc1ncnc2c(C(N)=O)cccc12)c1cccc(F)c1

>  <Name>  (983) 
nan

>  <Pocket>  (983) 
nan

>  <ATP_Site>  (983) 
nan

>  <Peripheral>  (983) 
nan

>  <Num_H_Atoms_ProtBoundConf>  (983) 
nan

>  <Num_Resolved_Atoms>  (983) 
nan

>  <Num_Not_Resolved_Atoms>  (983) 
nan

$$$$
CHEMBL5089935
     RDKit          3D

  0  0  0  0  0  0  0  0  0  0999 V3000
M  V30 BEGIN CTAB
M  V30 COUNTS 46 49 0 0 0
M  V30 BEGIN ATOM
M  V30 1 C -1.876129 -6.130330 -0.608599 0
M  V30 2 C -2.051760 -4.820113 -1.318899 0
M  V30 3 O -2.712809 -4.590346 -2.343384 0
M  V30 4 N -1.345036 -3.745981 -0.686294 0
M  V30 5 C -1.179510 -2.346618 -0.942389 0
M  V30 6 C 0.285031 -2.090795 -1.256215 0
M  V30 7 C 0.829351 -1.242450 -0.113634 0
M  V30 8 N 0.251216 0.088109 -0.159652 0
M  V30 9 C 0.498705 1.474226 -0.313409 0
M  V30 10 N 0.086497 1.887382 -1.541505 0
M  V30 11 C 0.242889 3.186652 -1.927582 0
M  V30 12 N 0.806640 4.067075 -1.092217 0
M  V30 13 C 1.219484 3.707678 0.108082 0
M  V30 14 N 1.789301 4.313956 1.165163 0
M  V30 15 C 1.981593 3.424453 2.172519 0
M  V30 16 C 1.517085 2.163150 1.764428 0
M  V30 17 C 1.658278 1.041227 2.671458 0
M  V30 18 C 2.318296 -0.164865 2.624585 0
M  V30 19 C 2.276474 -1.085282 3.645751 0
M  V30 20 C 1.555098 -0.837680 4.791150 0
M  V30 21 C 0.872389 0.353096 4.898637 0
M  V30 22 Cl -0.020949 0.609052 6.371496 0
M  V30 23 C 0.933240 1.255888 3.857936 0
M  V30 24 C 1.070627 2.406119 0.511366 0
M  V30 25 C -1.182231 -0.053788 0.038152 0
M  V30 26 C -1.605299 -1.485176 0.225890 0
M  V30 27 H -0.836385 -6.207278 -0.192422 0
M  V30 28 H -1.986052 -6.974946 -1.315206 0
M  V30 29 H -2.613322 -6.185161 0.208895 0
M  V30 30 H -0.761607 -3.871415 0.194287 0
M  V30 31 H -1.767268 -2.098193 -1.855765 0
M  V30 32 H 0.843527 -3.043753 -1.281297 0
M  V30 33 H 0.432345 -1.590224 -2.224298 0
M  V30 34 H 0.694025 -1.731106 0.854575 0
M  V30 35 H 1.913089 -1.143374 -0.320960 0
M  V30 36 H -0.073872 3.554696 -2.903005 0
M  V30 37 H 2.029510 5.338851 1.151794 0
M  V30 38 H 2.428221 3.713711 3.111875 0
M  V30 39 H 2.856595 -0.237026 1.670433 0
M  V30 40 H 2.881185 -1.955400 3.363440 0
M  V30 41 H 1.600553 -1.623427 5.506249 0
M  V30 42 H 0.341750 2.158840 4.082993 0
M  V30 43 H -1.595200 0.614584 0.813721 0
M  V30 44 H -1.680678 0.277603 -0.921042 0
M  V30 45 H -1.309934 -1.910928 1.186388 0
M  V30 46 H -2.726656 -1.517166 0.214410 0
M  V30 END ATOM
M  V30 BEGIN BOND
M  V30 1 1 1 2
M  V30 2 2 2 3
M  V30 3 1 2 4
M  V30 4 1 4 5
M  V30 5 1 5 6
M  V30 6 1 6 7
M  V30 7 1 7 8
M  V30 8 1 8 9
M  V30 9 2 9 10
M  V30 10 1 10 11
M  V30 11 2 11 12
M  V30 12 1 12 13
M  V30 13 1 13 14
M  V30 14 1 14 15
M  V30 15 2 15 16
M  V30 16 1 16 17
M  V30 17 2 17 18
M  V30 18 1 18 19
M  V30 19 2 19 20
M  V30 20 1 20 21
M  V30 21 1 21 22
M  V30 22 2 21 23
M  V30 23 1 16 24
M  V30 24 1 8 25
M  V30 25 1 25 26
M  V30 26 1 26 5
M  V30 27 1 24 9
M  V30 28 2 24 13
M  V30 29 1 23 17
M  V30 30 1 1 27
M  V30 31 1 1 28
M  V30 32 1 1 29
M  V30 33 1 4 30
M  V30 34 1 5 31
M  V30 35 1 6 32
M  V30 36 1 6 33
M  V30 37 1 7 34
M  V30 38 1 7 35
M  V30 39 1 11 36
M  V30 40 1 14 37
M  V30 41 1 15 38
M  V30 42 1 18 39
M  V30 43 1 19 40
M  V30 44 1 20 41
M  V30 45 1 23 42
M  V30 46 1 25 43
M  V30 47 1 25 44
M  V30 48 1 26 45
M  V30 49 1 26 46
M  V30 END BOND
M  V30 END CTAB
M  END
>  <Dataset>  (984) 
ChEMBL_Kinases

>  <Ligand_Instance>  (984) 
nan

>  <PDB_ID>  (984) 
nan

>  <Standardized_SMILES>  (984) 
CC(=O)NC1CCN(c2ncnc3[nH]cc(-c4cccc(Cl)c4)c23)CC1

>  <Name>  (984) 
nan

>  <Pocket>  (984) 
nan

>  <ATP_Site>  (984) 
nan

>  <Peripheral>  (984) 
nan

>  <Num_H_Atoms_ProtBoundConf>  (984) 
nan

>  <Num_Resolved_Atoms>  (984) 
nan

>  <Num_Not_Resolved_Atoms>  (984) 
nan

$$$$
CHEMBL3675431
     RDKit          3D

  0  0  0  0  0  0  0  0  0  0999 V3000
M  V30 BEGIN CTAB
M  V30 COUNTS 66 69 0 0 0
M  V30 BEGIN ATOM
M  V30 1 C 5.073063 -1.762289 7.766924 0
M  V30 2 O 5.715641 -0.682856 7.075275 0
M  V30 3 C 5.261972 -0.292587 5.814901 0
M  V30 4 C 4.198000 -0.920026 5.201082 0
M  V30 5 C 3.851321 -0.437222 3.957372 0
M  V30 6 C 4.467402 0.599369 3.291129 0
M  V30 7 C 4.074590 1.095667 1.981421 0
M  V30 8 O 4.732280 2.055944 1.505380 0
M  V30 9 N 3.016381 0.576371 1.222001 0
M  V30 10 C 2.529943 0.964777 -0.050770 0
M  V30 11 C 3.027280 1.989412 -0.822723 0
M  V30 12 C 2.526999 2.357879 -2.051396 0
M  V30 13 C 1.453954 1.657864 -2.551222 0
M  V30 14 C 0.916179 0.620946 -1.819612 0
M  V30 15 C -0.274251 -0.229017 -2.236182 0
M  V30 16 C -0.782576 0.400179 -3.473043 0
M  V30 17 N -1.947181 -0.139060 -4.099537 0
M  V30 18 C -2.010822 0.582071 -5.405912 0
M  V30 19 C -3.159076 0.393957 -3.416948 0
M  V30 20 N -1.171003 -0.508255 -1.185938 0
M  V30 21 C -2.142721 -1.568839 -1.181648 0
M  V30 22 N -2.292081 -2.437976 -2.167913 0
M  V30 23 C -3.150953 -3.454142 -2.234563 0
M  V30 24 N -3.987606 -3.649780 -1.182737 0
M  V30 25 C -3.927610 -2.824131 -0.115869 0
M  V30 26 C -3.007901 -1.800022 -0.134526 0
M  V30 27 C -3.004607 -1.028824 0.936305 0
M  V30 28 C -3.817312 -1.063568 2.174696 0
M  V30 29 C -4.794802 -2.191858 2.158889 0
M  V30 30 C -4.731948 -2.998496 0.918401 0
M  V30 31 C -5.673168 -4.106636 0.827655 0
M  V30 32 N -5.802032 -5.000046 -0.265383 0
M  V30 33 O -6.505325 -4.420585 1.717450 0
M  V30 34 C 1.469008 0.304187 -0.591646 0
M  V30 35 C 5.517900 1.164792 3.978448 0
M  V30 36 C 5.964209 0.772688 5.230205 0
M  V30 37 F 7.004871 1.378569 5.842054 0
M  V30 38 H 5.172852 -2.724558 7.225266 0
M  V30 39 H 5.357792 -1.795172 8.819029 0
M  V30 40 H 3.989362 -1.520229 7.720628 0
M  V30 41 H 3.686294 -1.733103 5.682268 0
M  V30 42 H 3.019353 -0.946715 3.504952 0
M  V30 43 H 2.545221 -0.215290 1.708920 0
M  V30 44 H 3.852747 2.569572 -0.497615 0
M  V30 45 H 2.934439 3.161628 -2.633149 0
M  V30 46 H 1.020717 1.893920 -3.487570 0
M  V30 47 H 0.213359 -1.208250 -2.524753 0
M  V30 48 H 0.018986 0.368586 -4.280978 0
M  V30 49 H -0.984284 1.504105 -3.344268 0
M  V30 50 H -2.154744 1.661383 -5.110632 0
M  V30 51 H -1.026007 0.518658 -5.885262 0
M  V30 52 H -2.865088 0.238772 -5.984473 0
M  V30 53 H -2.899757 0.870693 -2.454124 0
M  V30 54 H -3.888508 -0.411202 -3.205075 0
M  V30 55 H -3.702827 1.100260 -4.087722 0
M  V30 56 H -1.041747 0.157678 -0.404628 0
M  V30 57 H -3.158589 -4.093522 -3.121284 0
M  V30 58 H -2.329897 -0.198967 1.024489 0
M  V30 59 H -3.161263 -1.125309 3.067060 0
M  V30 60 H -4.373357 -0.089931 2.316674 0
M  V30 61 H -5.830168 -1.810992 2.304558 0
M  V30 62 H -4.611041 -2.834229 3.067259 0
M  V30 63 H -6.721281 -5.122250 -0.753699 0
M  V30 64 H -5.205656 -5.673669 -0.824224 0
M  V30 65 H 1.036078 -0.513938 -0.026233 0
M  V30 66 H 6.045780 1.999312 3.489805 0
M  V30 END ATOM
M  V30 BEGIN BOND
M  V30 1 1 1 2
M  V30 2 1 2 3
M  V30 3 2 3 4
M  V30 4 1 4 5
M  V30 5 2 5 6
M  V30 6 1 6 7
M  V30 7 2 7 8
M  V30 8 1 7 9
M  V30 9 1 9 10
M  V30 10 2 10 11
M  V30 11 1 11 12
M  V30 12 2 12 13
M  V30 13 1 13 14
M  V30 14 1 14 15
M  V30 15 1 15 16
M  V30 16 1 16 17
M  V30 17 1 17 18
M  V30 18 1 17 19
M  V30 19 1 15 20
M  V30 20 1 20 21
M  V30 21 2 21 22
M  V30 22 1 22 23
M  V30 23 2 23 24
M  V30 24 1 24 25
M  V30 25 1 25 26
M  V30 26 2 26 27
M  V30 27 1 27 28
M  V30 28 1 28 29
M  V30 29 1 29 30
M  V30 30 1 30 31
M  V30 31 1 31 32
M  V30 32 2 31 33
M  V30 33 2 14 34
M  V30 34 1 6 35
M  V30 35 2 35 36
M  V30 36 1 36 37
M  V30 37 1 36 3
M  V30 38 1 34 10
M  V30 39 1 26 21
M  V30 40 2 30 25
M  V30 41 1 1 38
M  V30 42 1 1 39
M  V30 43 1 1 40
M  V30 44 1 4 41
M  V30 45 1 5 42
M  V30 46 1 9 43
M  V30 47 1 11 44
M  V30 48 1 12 45
M  V30 49 1 13 46
M  V30 50 1 15 47
M  V30 51 1 16 48
M  V30 52 1 16 49
M  V30 53 1 18 50
M  V30 54 1 18 51
M  V30 55 1 18 52
M  V30 56 1 19 53
M  V30 57 1 19 54
M  V30 58 1 19 55
M  V30 59 1 20 56
M  V30 60 1 23 57
M  V30 61 1 27 58
M  V30 62 1 28 59
M  V30 63 1 28 60
M  V30 64 1 29 61
M  V30 65 1 29 62
M  V30 66 1 32 63
M  V30 67 1 32 64
M  V30 68 1 34 65
M  V30 69 1 35 66
M  V30 END BOND
M  V30 END CTAB
M  END
>  <Dataset>  (985) 
ChEMBL_Kinases

>  <Ligand_Instance>  (985) 
nan

>  <PDB_ID>  (985) 
nan

>  <Standardized_SMILES>  (985) 
COc1ccc(C(=O)Nc2cccc(C(CN(C)C)Nc3ncnc4c3=CCCC=4C(N)=O)c2)cc1F

>  <Name>  (985) 
nan

>  <Pocket>  (985) 
nan

>  <ATP_Site>  (985) 
nan

>  <Peripheral>  (985) 
nan

>  <Num_H_Atoms_ProtBoundConf>  (985) 
nan

>  <Num_Resolved_Atoms>  (985) 
nan

>  <Num_Not_Resolved_Atoms>  (985) 
nan

$$$$
CHEMBL3727997
     RDKit          3D

  0  0  0  0  0  0  0  0  0  0999 V3000
M  V30 BEGIN CTAB
M  V30 COUNTS 47 49 0 0 0
M  V30 BEGIN ATOM
M  V30 1 O -1.946578 -3.789303 -1.842077 0
M  V30 2 C -1.568438 -2.603013 -1.541255 0
M  V30 3 C -1.140882 -1.906496 -2.770394 0
M  V30 4 N -0.672191 -0.573444 -2.590846 0
M  V30 5 C 0.514126 -0.311316 -1.856300 0
M  V30 6 C 1.243448 -1.350380 -1.317487 0
M  V30 7 C 2.398676 -1.168114 -0.597087 0
M  V30 8 C 2.806994 0.122855 -0.431738 0
M  V30 9 C 2.177209 1.238200 -0.912688 0
M  V30 10 O 2.401152 2.566535 -0.866221 0
M  V30 11 C 3.369027 3.357693 -0.302920 0
M  V30 12 C 3.466355 3.245355 1.159908 0
M  V30 13 C 2.592970 4.064389 1.875729 0
M  V30 14 C 2.512698 4.138560 3.244033 0
M  V30 15 C 3.343545 3.358202 3.996491 0
M  V30 16 C 4.222732 2.533965 3.329921 0
M  V30 17 C 4.279518 2.482087 1.965212 0
M  V30 18 C 1.002208 0.984292 -1.640531 0
M  V30 19 N -1.636806 -2.234928 -0.184253 0
M  V30 20 N -2.088982 -3.122448 0.768640 0
M  V30 21 C -3.199246 -3.008081 1.426761 0
M  V30 22 C -3.857374 -3.827284 2.467199 0
M  V30 23 C -4.751939 -4.865244 2.311939 0
M  V30 24 Cl -5.138330 -5.237253 0.659910 0
M  V30 25 C -5.228387 -5.476876 3.450741 0
M  V30 26 N -4.862407 -5.108231 4.677333 0
M  V30 27 C -3.978121 -4.082717 4.841581 0
M  V30 28 C -3.456185 -3.419133 3.727874 0
M  V30 29 Cl -2.346099 -2.139901 4.103358 0
M  V30 30 H -0.377901 -2.546520 -3.305844 0
M  V30 31 H -2.018132 -1.922320 -3.475954 0
M  V30 32 H -1.208161 0.226146 -3.005305 0
M  V30 33 H 0.886272 -2.360488 -1.470799 0
M  V30 34 H 2.994579 -1.949552 -0.161764 0
M  V30 35 H 3.689511 0.356369 0.107179 0
M  V30 36 H 3.133931 4.433770 -0.570277 0
M  V30 37 H 4.404742 3.169312 -0.730603 0
M  V30 38 H 1.883484 4.730645 1.365694 0
M  V30 39 H 1.832323 4.776628 3.762617 0
M  V30 40 H 3.402900 3.301397 5.071146 0
M  V30 41 H 4.920155 1.879038 3.871990 0
M  V30 42 H 4.965951 1.850049 1.402530 0
M  V30 43 H 0.346320 1.735127 -2.111739 0
M  V30 44 H -1.316256 -1.251267 -0.044510 0
M  V30 45 H -3.743327 -2.104513 1.127875 0
M  V30 46 H -5.937428 -6.295982 3.252984 0
M  V30 47 H -3.727570 -3.840081 5.883541 0
M  V30 END ATOM
M  V30 BEGIN BOND
M  V30 1 2 1 2
M  V30 2 1 2 3
M  V30 3 1 3 4
M  V30 4 1 4 5
M  V30 5 2 5 6
M  V30 6 1 6 7
M  V30 7 2 7 8
M  V30 8 1 8 9
M  V30 9 1 9 10
M  V30 10 1 10 11
M  V30 11 1 11 12
M  V30 12 2 12 13
M  V30 13 1 13 14
M  V30 14 2 14 15
M  V30 15 1 15 16
M  V30 16 2 16 17
M  V30 17 2 9 18
M  V30 18 1 2 19
M  V30 19 1 19 20
M  V30 20 2 20 21
M  V30 21 1 21 22
M  V30 22 2 22 23
M  V30 23 1 23 24
M  V30 24 1 23 25
M  V30 25 2 25 26
M  V30 26 1 26 27
M  V30 27 2 27 28
M  V30 28 1 28 29
M  V30 29 1 18 5
M  V30 30 1 28 22
M  V30 31 1 17 12
M  V30 32 1 3 30
M  V30 33 1 3 31
M  V30 34 1 4 32
M  V30 35 1 6 33
M  V30 36 1 7 34
M  V30 37 1 8 35
M  V30 38 1 11 36
M  V30 39 1 11 37
M  V30 40 1 13 38
M  V30 41 1 14 39
M  V30 42 1 15 40
M  V30 43 1 16 41
M  V30 44 1 17 42
M  V30 45 1 18 43
M  V30 46 1 19 44
M  V30 47 1 21 45
M  V30 48 1 25 46
M  V30 49 1 27 47
M  V30 END BOND
M  V30 END CTAB
M  END
>  <Dataset>  (986) 
ChEMBL_Kinases

>  <Ligand_Instance>  (986) 
nan

>  <PDB_ID>  (986) 
nan

>  <Standardized_SMILES>  (986) 
O=C(CNc1cccc(OCc2ccccc2)c1)N/N=C/c1c(Cl)cncc1Cl

>  <Name>  (986) 
nan

>  <Pocket>  (986) 
nan

>  <ATP_Site>  (986) 
nan

>  <Peripheral>  (986) 
nan

>  <Num_H_Atoms_ProtBoundConf>  (986) 
nan

>  <Num_Resolved_Atoms>  (986) 
nan

>  <Num_Not_Resolved_Atoms>  (986) 
nan

$$$$
CHEMBL3675385
     RDKit          3D

  0  0  0  0  0  0  0  0  0  0999 V3000
M  V30 BEGIN CTAB
M  V30 COUNTS 51 54 0 0 0
M  V30 BEGIN ATOM
M  V30 1 N -0.988932 0.320710 6.329853 0
M  V30 2 C -1.518258 1.099833 5.284664 0
M  V30 3 O -2.028180 2.081018 5.873428 0
M  V30 4 C -1.342093 0.594626 3.933835 0
M  V30 5 C -0.526308 -0.477574 3.646377 0
M  V30 6 C -0.466025 -0.882443 2.336636 0
M  V30 7 N 0.441224 -1.990281 2.149343 0
M  V30 8 C 1.620120 -1.292554 1.780227 0
M  V30 9 O 1.435125 -0.025522 1.742941 0
M  V30 10 C 2.932523 -1.878746 1.466955 0
M  V30 11 C 3.243263 -3.232557 1.545848 0
M  V30 12 C 4.507733 -3.676438 1.228533 0
M  V30 13 N 5.465923 -2.794616 0.833905 0
M  V30 14 C 5.184250 -1.475228 0.750336 0
M  V30 15 C 3.931119 -1.010694 1.062148 0
M  V30 16 C -1.168208 -0.271647 1.349835 0
M  V30 17 C -2.001428 0.804814 1.566923 0
M  V30 18 C -2.747962 1.486735 0.633063 0
M  V30 19 N -2.640332 1.013233 -0.713706 0
M  V30 20 C -2.593207 0.616057 -2.052459 0
M  V30 21 C -1.661387 -0.554591 -2.321279 0
M  V30 22 C -2.033392 -1.878423 -2.276247 0
M  V30 23 C -1.084054 -2.850310 -2.545579 0
M  V30 24 C 0.193748 -2.450142 -2.847217 0
M  V30 25 Cl 1.338818 -3.739657 -3.172044 0
M  V30 26 C 0.620949 -1.133733 -2.905840 0
M  V30 27 C 2.034343 -0.826057 -3.249329 0
M  V30 28 F 2.348303 -1.310952 -4.506200 0
M  V30 29 F 2.803659 -1.536212 -2.341410 0
M  V30 30 F 2.292016 0.510798 -3.143969 0
M  V30 31 C -0.369903 -0.200121 -2.627733 0
M  V30 32 N -3.470525 2.501064 1.120042 0
M  V30 33 C -3.551442 2.920266 2.373828 0
M  V30 34 N -2.805209 2.214403 3.217049 0
M  V30 35 C -2.030308 1.175252 2.888787 0
M  V30 36 H -0.860137 -0.711068 6.468007 0
M  V30 37 H -0.601973 -0.261547 7.092082 0
M  V30 38 H 0.012990 -0.931230 4.460402 0
M  V30 39 H 0.528724 -3.033004 2.187560 0
M  V30 40 H 2.395171 -3.837637 1.873403 0
M  V30 41 H 4.618231 -4.741445 1.332413 0
M  V30 42 H 5.998495 -0.846779 0.429228 0
M  V30 43 H 3.806972 0.056865 0.962673 0
M  V30 44 H -1.073019 -0.640460 0.350515 0
M  V30 45 H -3.325490 1.752774 -1.067228 0
M  V30 46 H -3.589327 0.198211 -2.396099 0
M  V30 47 H -2.337270 1.424707 -2.775186 0
M  V30 48 H -3.060647 -2.094691 -2.030611 0
M  V30 49 H -1.383533 -3.898723 -2.506720 0
M  V30 50 H -0.061131 0.823088 -2.670095 0
M  V30 51 H -4.186315 3.763921 2.602775 0
M  V30 END ATOM
M  V30 BEGIN BOND
M  V30 1 1 1 2
M  V30 2 2 2 3
M  V30 3 1 2 4
M  V30 4 2 4 5
M  V30 5 1 5 6
M  V30 6 1 6 7
M  V30 7 1 7 8
M  V30 8 2 8 9
M  V30 9 1 8 10
M  V30 10 2 10 11
M  V30 11 1 11 12
M  V30 12 2 12 13
M  V30 13 1 13 14
M  V30 14 2 14 15
M  V30 15 2 6 16
M  V30 16 1 16 17
M  V30 17 2 17 18
M  V30 18 1 18 19
M  V30 19 1 19 20
M  V30 20 1 20 21
M  V30 21 2 21 22
M  V30 22 1 22 23
M  V30 23 2 23 24
M  V30 24 1 24 25
M  V30 25 1 24 26
M  V30 26 1 26 27
M  V30 27 1 27 28
M  V30 28 1 27 29
M  V30 29 1 27 30
M  V30 30 2 26 31
M  V30 31 1 18 32
M  V30 32 2 32 33
M  V30 33 1 33 34
M  V30 34 2 34 35
M  V30 35 1 35 4
M  V30 36 1 15 10
M  V30 37 1 35 17
M  V30 38 1 31 21
M  V30 39 1 1 36
M  V30 40 1 1 37
M  V30 41 1 5 38
M  V30 42 1 7 39
M  V30 43 1 11 40
M  V30 44 1 12 41
M  V30 45 1 14 42
M  V30 46 1 15 43
M  V30 47 1 16 44
M  V30 48 1 19 45
M  V30 49 1 20 46
M  V30 50 1 20 47
M  V30 51 1 22 48
M  V30 52 1 23 49
M  V30 53 1 31 50
M  V30 54 1 33 51
M  V30 END BOND
M  V30 END CTAB
M  END
>  <Dataset>  (987) 
ChEMBL_Kinases

>  <Ligand_Instance>  (987) 
nan

>  <PDB_ID>  (987) 
nan

>  <Standardized_SMILES>  (987) 
NC(=O)c1cc(NC(=O)c2ccncc2)cc2c(NCc3ccc(Cl)c(C(F)(F)F)c3)ncnc12

>  <Name>  (987) 
nan

>  <Pocket>  (987) 
nan

>  <ATP_Site>  (987) 
nan

>  <Peripheral>  (987) 
nan

>  <Num_H_Atoms_ProtBoundConf>  (987) 
nan

>  <Num_Resolved_Atoms>  (987) 
nan

>  <Num_Not_Resolved_Atoms>  (987) 
nan

$$$$
CHEMBL3685231
     RDKit          3D

  0  0  0  0  0  0  0  0  0  0999 V3000
M  V30 BEGIN CTAB
M  V30 COUNTS 77 81 0 0 0
M  V30 BEGIN ATOM
M  V30 1 C 4.145427 -1.293037 7.978454 0
M  V30 2 O 4.333740 -0.609145 6.786281 0
M  V30 3 C 3.087822 -0.463408 6.144583 0
M  V30 4 C 2.712068 0.950018 6.000234 0
M  V30 5 C 2.384711 1.594277 4.918184 0
M  V30 6 C 2.378064 0.849086 3.663585 0
M  V30 7 C 2.039019 1.413640 2.353551 0
M  V30 8 O 2.029533 0.772437 1.254987 0
M  V30 9 N 1.670627 2.787678 2.159213 0
M  V30 10 C 1.408159 2.999270 0.776163 0
M  V30 11 C 2.585273 3.367867 0.116934 0
M  V30 12 C 2.572809 3.627348 -1.255895 0
M  V30 13 C 1.366354 3.499398 -1.886861 0
M  V30 14 C 0.183434 3.139624 -1.281580 0
M  V30 15 C -1.120471 2.984770 -1.967570 0
M  V30 16 N -1.423635 1.621278 -2.345945 0
M  V30 17 C -0.628056 0.789577 -3.176418 0
M  V30 18 N 0.534549 1.209869 -3.692082 0
M  V30 19 C 1.335945 0.476893 -4.469300 0
M  V30 20 N 0.964114 -0.795636 -4.774692 0
M  V30 21 C -0.182054 -1.290546 -4.300144 0
M  V30 22 C -0.997852 -0.493289 -3.487620 0
M  V30 23 C -2.104128 -1.077754 -3.096956 0
M  V30 24 C -2.751253 -2.374475 -3.254425 0
M  V30 25 C -3.064271 -3.169995 -2.057398 0
M  V30 26 N -3.922799 -2.720046 -1.043553 0
M  V30 27 C -4.063629 -3.880086 -0.121833 0
M  V30 28 C -3.396875 -3.680791 1.188056 0
M  V30 29 N -2.158720 -2.964658 1.176174 0
M  V30 30 C -1.910430 -2.534256 2.542916 0
M  V30 31 C -2.148588 -1.779013 0.345078 0
M  V30 32 C -3.557263 -1.633653 -0.210263 0
M  V30 33 C -1.846866 -3.240988 -4.125860 0
M  V30 34 C -0.643912 -2.481770 -4.523524 0
M  V30 35 C 0.232077 -3.305875 -5.387496 0
M  V30 36 N 1.453621 -2.784796 -5.896127 0
M  V30 37 O 0.070302 -4.498193 -5.788239 0
M  V30 38 C 0.225825 2.889404 0.074674 0
M  V30 39 C 2.695232 -0.411820 3.674160 0
M  V30 40 C 3.076077 -1.213620 4.842163 0
M  V30 41 H 5.149177 -1.395277 8.473812 0
M  V30 42 H 3.694619 -2.298219 7.814402 0
M  V30 43 H 3.504112 -0.678569 8.645516 0
M  V30 44 H 2.345581 -0.950565 6.813087 0
M  V30 45 H 2.705950 1.537918 6.918003 0
M  V30 46 H 2.116264 2.637710 4.868952 0
M  V30 47 H 1.641041 3.420959 2.997906 0
M  V30 48 H 3.579954 3.485476 0.577266 0
M  V30 49 H 3.472993 3.917748 -1.807009 0
M  V30 50 H 1.365305 3.714267 -2.943489 0
M  V30 51 H -1.912054 3.345962 -1.283330 0
M  V30 52 H -1.184599 3.674138 -2.850606 0
M  V30 53 H -2.318231 1.270398 -1.943945 0
M  V30 54 H 2.274654 0.816647 -4.884439 0
M  V30 55 H -2.767243 -0.489925 -2.507506 0
M  V30 56 H -3.662543 -2.193839 -3.905302 0
M  V30 57 H -2.083954 -3.576553 -1.669713 0
M  V30 58 H -3.545166 -4.128277 -2.455516 0
M  V30 59 H -3.690651 -4.813258 -0.582622 0
M  V30 60 H -5.153009 -4.018750 0.042773 0
M  V30 61 H -4.112269 -3.330921 1.996426 0
M  V30 62 H -3.124430 -4.716248 1.571048 0
M  V30 63 H -2.378283 -1.528138 2.733036 0
M  V30 64 H -0.853481 -2.454137 2.800688 0
M  V30 65 H -2.450093 -3.213677 3.263025 0
M  V30 66 H -1.943489 -0.848322 0.954034 0
M  V30 67 H -1.362106 -1.799275 -0.409684 0
M  V30 68 H -3.827900 -0.625118 -0.514139 0
M  V30 69 H -4.203531 -1.765119 0.732668 0
M  V30 70 H -2.382212 -3.646445 -5.016704 0
M  V30 71 H -1.471621 -4.086164 -3.480052 0
M  V30 72 H 2.109367 -2.321833 -6.570869 0
M  V30 73 H 2.116901 -2.991959 -5.095759 0
M  V30 74 H -0.599806 2.599719 0.699490 0
M  V30 75 H 2.705367 -1.016825 2.755212 0
M  V30 76 H 2.427512 -2.120505 4.868841 0
M  V30 77 H 4.115633 -1.601601 4.648570 0
M  V30 END ATOM
M  V30 BEGIN BOND
M  V30 1 1 1 2
M  V30 2 1 2 3
M  V30 3 1 3 4
M  V30 4 2 4 5
M  V30 5 1 5 6
M  V30 6 1 6 7
M  V30 7 2 7 8
M  V30 8 1 7 9
M  V30 9 1 9 10
M  V30 10 2 10 11
M  V30 11 1 11 12
M  V30 12 2 12 13
M  V30 13 1 13 14
M  V30 14 1 14 15
M  V30 15 1 15 16
M  V30 16 1 16 17
M  V30 17 2 17 18
M  V30 18 1 18 19
M  V30 19 2 19 20
M  V30 20 1 20 21
M  V30 21 1 21 22
M  V30 22 2 22 23
M  V30 23 1 23 24
M  V30 24 1 24 25
M  V30 25 1 25 26
M  V30 26 1 26 27
M  V30 27 1 27 28
M  V30 28 1 28 29
M  V30 29 1 29 30
M  V30 30 1 29 31
M  V30 31 1 31 32
M  V30 32 1 24 33
M  V30 33 1 33 34
M  V30 34 1 34 35
M  V30 35 1 35 36
M  V30 36 2 35 37
M  V30 37 2 14 38
M  V30 38 2 6 39
M  V30 39 1 39 40
M  V30 40 1 40 3
M  V30 41 1 38 10
M  V30 42 1 22 17
M  V30 43 1 32 26
M  V30 44 2 34 21
M  V30 45 1 1 41
M  V30 46 1 1 42
M  V30 47 1 1 43
M  V30 48 1 3 44
M  V30 49 1 4 45
M  V30 50 1 5 46
M  V30 51 1 9 47
M  V30 52 1 11 48
M  V30 53 1 12 49
M  V30 54 1 13 50
M  V30 55 1 15 51
M  V30 56 1 15 52
M  V30 57 1 16 53
M  V30 58 1 19 54
M  V30 59 1 23 55
M  V30 60 1 24 56
M  V30 61 1 25 57
M  V30 62 1 25 58
M  V30 63 1 27 59
M  V30 64 1 27 60
M  V30 65 1 28 61
M  V30 66 1 28 62
M  V30 67 1 30 63
M  V30 68 1 30 64
M  V30 69 1 30 65
M  V30 70 1 31 66
M  V30 71 1 31 67
M  V30 72 1 32 68
M  V30 73 1 32 69
M  V30 74 1 33 70
M  V30 75 1 33 71
M  V30 76 1 36 72
M  V30 77 1 36 73
M  V30 78 1 38 74
M  V30 79 1 39 75
M  V30 80 1 40 76
M  V30 81 1 40 77
M  V30 END BOND
M  V30 END CTAB
M  END
>  <Dataset>  (988) 
ChEMBL_Kinases

>  <Ligand_Instance>  (988) 
nan

>  <PDB_ID>  (988) 
nan

>  <Standardized_SMILES>  (988) 
COC1C=CC(C(=O)Nc2cccc(CNc3ncnc4c3=CC(CN3CCN(C)CC3)CC=4C(N)=O)c2)=CC1

>  <Name>  (988) 
nan

>  <Pocket>  (988) 
nan

>  <ATP_Site>  (988) 
nan

>  <Peripheral>  (988) 
nan

>  <Num_H_Atoms_ProtBoundConf>  (988) 
nan

>  <Num_Resolved_Atoms>  (988) 
nan

>  <Num_Not_Resolved_Atoms>  (988) 
nan

$$$$
CHEMBL3685226
     RDKit          3D

  0  0  0  0  0  0  0  0  0  0999 V3000
M  V30 BEGIN CTAB
M  V30 COUNTS 54 57 0 0 0
M  V30 BEGIN ATOM
M  V30 1 N 5.440559 -3.419305 4.993613 0
M  V30 2 C 4.755601 -3.246432 3.775316 0
M  V30 3 O 4.323647 -4.354852 3.403236 0
M  V30 4 C 4.611083 -1.962307 3.112198 0
M  V30 5 C 5.078009 -0.727443 3.509046 0
M  V30 6 C 4.850301 0.399266 2.753399 0
M  V30 7 C 4.142050 0.365776 1.553586 0
M  V30 8 C 3.691085 -0.884901 1.189227 0
M  V30 9 C 2.985142 -0.951960 0.002907 0
M  V30 10 N 2.680118 0.132665 -0.869605 0
M  V30 11 C 1.470525 0.872687 -0.699793 0
M  V30 12 C 1.131027 1.929824 -1.549700 0
M  V30 13 C -0.043320 2.633220 -1.370681 0
M  V30 14 C -0.913367 2.315296 -0.351897 0
M  V30 15 C -0.604414 1.279385 0.499738 0
M  V30 16 C -1.445335 0.815579 1.646315 0
M  V30 17 N -2.370259 -0.222715 1.236171 0
M  V30 18 C -3.553912 -0.055154 0.507166 0
M  V30 19 O -3.931261 1.082481 0.126861 0
M  V30 20 C -4.440192 -1.205663 0.135264 0
M  V30 21 C -5.592408 -0.652898 -0.632757 0
M  V30 22 C -5.904257 -1.368961 -1.919400 0
M  V30 23 C -4.692573 -1.615885 -2.771657 0
M  V30 24 N -3.487144 -1.346537 -2.014482 0
M  V30 25 C -3.604141 -2.082911 -0.774006 0
M  V30 26 C 0.578697 0.568526 0.321747 0
M  V30 27 N 2.521043 -2.158010 -0.399587 0
M  V30 28 C 2.725720 -3.297843 0.320955 0
M  V30 29 N 3.411860 -3.233012 1.474060 0
M  V30 30 C 3.902078 -2.043754 1.926656 0
M  V30 31 H 4.686327 -3.242445 5.715149 0
M  V30 32 H 5.981778 -3.555136 5.847281 0
M  V30 33 H 5.621877 -0.745712 4.444262 0
M  V30 34 H 5.240015 1.336295 3.114219 0
M  V30 35 H 3.961576 1.236237 0.961828 0
M  V30 36 H 3.307369 0.421398 -1.642883 0
M  V30 37 H 1.799307 2.184125 -2.342930 0
M  V30 38 H -0.350173 3.458900 -2.001716 0
M  V30 39 H -1.839030 2.835884 -0.173861 0
M  V30 40 H -0.816182 0.424075 2.470855 0
M  V30 41 H -1.983283 1.710212 2.024114 0
M  V30 42 H -2.164113 -1.227568 1.496020 0
M  V30 43 H -4.749272 -1.765454 1.042637 0
M  V30 44 H -5.497865 0.432204 -0.864199 0
M  V30 45 H -6.513367 -0.720869 0.005963 0
M  V30 46 H -6.585717 -0.698770 -2.500053 0
M  V30 47 H -6.463044 -2.302537 -1.691706 0
M  V30 48 H -4.672522 -0.962252 -3.660596 0
M  V30 49 H -4.678894 -2.696853 -3.062868 0
M  V30 50 H -2.623063 -1.501078 -2.535818 0
M  V30 51 H -2.575151 -2.186653 -0.344047 0
M  V30 52 H -4.103770 -3.066380 -0.879195 0
M  V30 53 H 0.882128 -0.249713 0.947609 0
M  V30 54 H 2.310067 -4.205525 -0.095265 0
M  V30 END ATOM
M  V30 BEGIN BOND
M  V30 1 1 1 2
M  V30 2 2 2 3
M  V30 3 1 2 4
M  V30 4 2 4 5
M  V30 5 1 5 6
M  V30 6 2 6 7
M  V30 7 1 7 8
M  V30 8 2 8 9
M  V30 9 1 9 10
M  V30 10 1 10 11
M  V30 11 2 11 12
M  V30 12 1 12 13
M  V30 13 2 13 14
M  V30 14 1 14 15
M  V30 15 1 15 16
M  V30 16 1 16 17
M  V30 17 1 17 18
M  V30 18 2 18 19
M  V30 19 1 18 20
M  V30 20 1 20 21
M  V30 21 1 21 22
M  V30 22 1 22 23
M  V30 23 1 23 24
M  V30 24 1 24 25
M  V30 25 2 15 26
M  V30 26 1 9 27
M  V30 27 2 27 28
M  V30 28 1 28 29
M  V30 29 2 29 30
M  V30 30 1 30 4
M  V30 31 1 30 8
M  V30 32 1 26 11
M  V30 33 1 25 20
M  V30 34 1 1 31
M  V30 35 1 1 32
M  V30 36 1 5 33
M  V30 37 1 6 34
M  V30 38 1 7 35
M  V30 39 1 10 36
M  V30 40 1 12 37
M  V30 41 1 13 38
M  V30 42 1 14 39
M  V30 43 1 16 40
M  V30 44 1 16 41
M  V30 45 1 17 42
M  V30 46 1 20 43
M  V30 47 1 21 44
M  V30 48 1 21 45
M  V30 49 1 22 46
M  V30 50 1 22 47
M  V30 51 1 23 48
M  V30 52 1 23 49
M  V30 53 1 24 50
M  V30 54 1 25 51
M  V30 55 1 25 52
M  V30 56 1 26 53
M  V30 57 1 28 54
M  V30 END BOND
M  V30 END CTAB
M  END
>  <Dataset>  (989) 
ChEMBL_Kinases

>  <Ligand_Instance>  (989) 
nan

>  <PDB_ID>  (989) 
nan

>  <Standardized_SMILES>  (989) 
NC(=O)c1cccc2c(Nc3cccc(CNC(=O)C4CCCNC4)c3)ncnc12

>  <Name>  (989) 
nan

>  <Pocket>  (989) 
nan

>  <ATP_Site>  (989) 
nan

>  <Peripheral>  (989) 
nan

>  <Num_H_Atoms_ProtBoundConf>  (989) 
nan

>  <Num_Resolved_Atoms>  (989) 
nan

>  <Num_Not_Resolved_Atoms>  (989) 
nan

$$$$
CHEMBL3685225
     RDKit          3D

  0  0  0  0  0  0  0  0  0  0999 V3000
M  V30 BEGIN CTAB
M  V30 COUNTS 58 61 0 0 0
M  V30 BEGIN ATOM
M  V30 1 C 7.411920 -3.642371 3.080256 0
M  V30 2 O 7.558458 -2.745669 1.975916 0
M  V30 3 C 6.485359 -1.926665 1.630760 0
M  V30 4 C 6.517331 -1.027435 0.585820 0
M  V30 5 C 5.435017 -0.224226 0.263259 0
M  V30 6 C 4.279846 -0.307447 0.993607 0
M  V30 7 C 3.084198 0.490934 0.740619 0
M  V30 8 O 2.013979 0.402960 1.429744 0
M  V30 9 N 2.978565 1.456104 -0.302348 0
M  V30 10 C 1.682043 2.098438 -0.321138 0
M  V30 11 C 1.339908 3.248363 0.359150 0
M  V30 12 C 0.044109 3.688897 0.199940 0
M  V30 13 C -0.835309 2.993848 -0.602395 0
M  V30 14 C -0.494468 1.819239 -1.300048 0
M  V30 15 C -1.689091 1.358647 -2.064586 0
M  V30 16 N -2.594460 0.548668 -1.319294 0
M  V30 17 C -3.056297 -0.637150 -0.720815 0
M  V30 18 C -2.426788 -1.859723 -0.813306 0
M  V30 19 C -1.247300 -1.999785 -1.652376 0
M  V30 20 N -0.568677 -3.272034 -1.725593 0
M  V30 21 O -0.374669 -1.627703 -2.435901 0
M  V30 22 C -2.836430 -3.014392 -0.200086 0
M  V30 23 N -3.943753 -2.886302 0.534366 0
M  V30 24 C -4.614854 -1.746826 0.677554 0
M  V30 25 C -5.730920 -1.765325 1.458447 0
M  V30 26 C -6.148355 -3.003439 2.101902 0
M  V30 27 N -5.403273 -4.192695 1.918575 0
M  V30 28 O -7.163400 -3.077615 2.832703 0
M  V30 29 C -6.504204 -0.649027 1.678755 0
M  V30 30 C -6.106016 0.522505 1.069311 0
M  V30 31 C -4.972884 0.499222 0.288473 0
M  V30 32 C -4.188441 -0.607110 0.057539 0
M  V30 33 C 0.802065 1.409540 -1.119618 0
M  V30 34 C 4.213929 -1.197310 2.046686 0
M  V30 35 C 5.297548 -1.966643 2.329582 0
M  V30 36 H 6.494896 -4.270995 2.883104 0
M  V30 37 H 7.186324 -3.123218 4.027008 0
M  V30 38 H 8.295622 -4.297968 3.148684 0
M  V30 39 H 7.427818 -0.945032 -0.009506 0
M  V30 40 H 5.451875 0.477693 -0.548180 0
M  V30 41 H 3.798950 1.609303 -0.928737 0
M  V30 42 H 2.148907 3.653539 0.933935 0
M  V30 43 H -0.180768 4.592398 0.750017 0
M  V30 44 H -1.812606 3.504454 -0.598151 0
M  V30 45 H -2.186289 2.213522 -2.566056 0
M  V30 46 H -1.243492 0.818057 -2.947044 0
M  V30 47 H -3.224131 1.361307 -1.154435 0
M  V30 48 H -0.740665 -4.097182 -2.366807 0
M  V30 49 H 0.233537 -3.698804 -1.179507 0
M  V30 50 H -2.347313 -3.967677 -0.269547 0
M  V30 51 H -5.578551 -4.583041 0.955473 0
M  V30 52 H -4.981335 -5.052035 1.535187 0
M  V30 53 H -7.370719 -0.762513 2.312675 0
M  V30 54 H -6.692756 1.395556 1.228879 0
M  V30 55 H -4.729262 1.448409 -0.150668 0
M  V30 56 H 0.985976 0.516911 -1.686914 0
M  V30 57 H 3.322071 -1.317692 2.674591 0
M  V30 58 H 5.241833 -2.673316 3.167799 0
M  V30 END ATOM
M  V30 BEGIN BOND
M  V30 1 1 1 2
M  V30 2 1 2 3
M  V30 3 2 3 4
M  V30 4 1 4 5
M  V30 5 2 5 6
M  V30 6 1 6 7
M  V30 7 2 7 8
M  V30 8 1 7 9
M  V30 9 1 9 10
M  V30 10 2 10 11
M  V30 11 1 11 12
M  V30 12 2 12 13
M  V30 13 1 13 14
M  V30 14 1 14 15
M  V30 15 1 15 16
M  V30 16 1 16 17
M  V30 17 2 17 18
M  V30 18 1 18 19
M  V30 19 1 19 20
M  V30 20 2 19 21
M  V30 21 1 18 22
M  V30 22 2 22 23
M  V30 23 1 23 24
M  V30 24 2 24 25
M  V30 25 1 25 26
M  V30 26 1 26 27
M  V30 27 2 26 28
M  V30 28 1 25 29
M  V30 29 2 29 30
M  V30 30 1 30 31
M  V30 31 2 31 32
M  V30 32 2 14 33
M  V30 33 1 6 34
M  V30 34 2 34 35
M  V30 35 1 35 3
M  V30 36 1 33 10
M  V30 37 1 32 17
M  V30 38 1 32 24
M  V30 39 1 1 36
M  V30 40 1 1 37
M  V30 41 1 1 38
M  V30 42 1 4 39
M  V30 43 1 5 40
M  V30 44 1 9 41
M  V30 45 1 11 42
M  V30 46 1 12 43
M  V30 47 1 13 44
M  V30 48 1 15 45
M  V30 49 1 15 46
M  V30 50 1 16 47
M  V30 51 1 20 48
M  V30 52 1 20 49
M  V30 53 1 22 50
M  V30 54 1 27 51
M  V30 55 1 27 52
M  V30 56 1 29 53
M  V30 57 1 30 54
M  V30 58 1 31 55
M  V30 59 1 33 56
M  V30 60 1 34 57
M  V30 61 1 35 58
M  V30 END BOND
M  V30 END CTAB
M  END
>  <Dataset>  (990) 
ChEMBL_Kinases

>  <Ligand_Instance>  (990) 
nan

>  <PDB_ID>  (990) 
nan

>  <Standardized_SMILES>  (990) 
COc1ccc(C(=O)Nc2cccc(CNc3c(C(N)=O)cnc4c(C(N)=O)cccc34)c2)cc1

>  <Name>  (990) 
nan

>  <Pocket>  (990) 
nan

>  <ATP_Site>  (990) 
nan

>  <Peripheral>  (990) 
nan

>  <Num_H_Atoms_ProtBoundConf>  (990) 
nan

>  <Num_Resolved_Atoms>  (990) 
nan

>  <Num_Not_Resolved_Atoms>  (990) 
nan

$$$$
CHEMBL3685224
     RDKit          3D

  0  0  0  0  0  0  0  0  0  0999 V3000
M  V30 BEGIN CTAB
M  V30 COUNTS 53 56 0 0 0
M  V30 BEGIN ATOM
M  V30 1 C -0.874650 0.665212 3.023811 0
M  V30 2 C -0.518112 -0.017980 1.715511 0
M  V30 3 N 0.189988 0.948002 0.871890 0
M  V30 4 C 1.402436 1.495239 1.368985 0
M  V30 5 N 1.886308 1.141607 2.571789 0
M  V30 6 C 3.021518 1.624744 3.088668 0
M  V30 7 N 3.783237 2.530862 2.413735 0
M  V30 8 C 3.346623 2.920784 1.204127 0
M  V30 9 C 4.065578 3.835335 0.462727 0
M  V30 10 C 5.316401 4.391072 0.990553 0
M  V30 11 N 5.868467 4.052607 2.247339 0
M  V30 12 O 6.022363 5.229213 0.368581 0
M  V30 13 C 3.672303 4.275715 -0.783708 0
M  V30 14 C 2.483452 3.755949 -1.300906 0
M  V30 15 C 1.779592 2.841315 -0.541165 0
M  V30 16 C 2.173121 2.411861 0.686439 0
M  V30 17 C -1.754157 -0.511854 1.104724 0
M  V30 18 C -2.647136 0.327554 0.498376 0
M  V30 19 C -3.807657 -0.090819 -0.081990 0
M  V30 20 C -4.084521 -1.451939 -0.046930 0
M  V30 21 C -3.211902 -2.347786 0.555951 0
M  V30 22 N -3.476419 -3.762650 0.604331 0
M  V30 23 C -2.937713 -4.423020 -0.527492 0
M  V30 24 O -2.310980 -3.840395 -1.450685 0
M  V30 25 C -3.126603 -5.912793 -0.632029 0
M  V30 26 C -2.474754 -6.423723 -1.917025 0
M  V30 27 N -1.066917 -6.160593 -1.585872 0
M  V30 28 C -0.868235 -6.033787 -0.181492 0
M  V30 29 O 0.156716 -5.600039 0.405115 0
M  V30 30 C -2.169771 -6.541256 0.381489 0
M  V30 31 C -2.053029 -1.863983 1.126478 0
M  V30 32 H -0.834740 1.766325 2.867533 0
M  V30 33 H -0.176919 0.345682 3.825278 0
M  V30 34 H -1.938884 0.454346 3.299685 0
M  V30 35 H 0.183224 -0.879784 1.897700 0
M  V30 36 H -0.262718 1.146991 -0.021445 0
M  V30 37 H 3.379116 1.312511 4.067000 0
M  V30 38 H 6.534984 3.396554 2.717043 0
M  V30 39 H 5.493740 4.662988 3.006244 0
M  V30 40 H 4.275525 4.997709 -1.325971 0
M  V30 41 H 2.211013 4.121794 -2.271252 0
M  V30 42 H 0.874884 2.484194 -1.002943 0
M  V30 43 H -2.466603 1.397418 0.450506 0
M  V30 44 H -4.548951 0.511123 -0.572483 0
M  V30 45 H -4.956897 -1.892643 -0.465921 0
M  V30 46 H -3.989491 -4.345039 1.329150 0
M  V30 47 H -4.160905 -6.227321 -0.515695 0
M  V30 48 H -2.700242 -7.487422 -1.999786 0
M  V30 49 H -2.797067 -5.820912 -2.787753 0
M  V30 50 H -0.325199 -6.083499 -2.342260 0
M  V30 51 H -2.400151 -6.107830 1.353766 0
M  V30 52 H -2.212710 -7.646450 0.322544 0
M  V30 53 H -1.380490 -2.585174 1.595336 0
M  V30 END ATOM
M  V30 BEGIN BOND
M  V30 1 1 1 2
M  V30 2 1 2 3
M  V30 3 1 3 4
M  V30 4 2 4 5
M  V30 5 1 5 6
M  V30 6 2 6 7
M  V30 7 1 7 8
M  V30 8 2 8 9
M  V30 9 1 9 10
M  V30 10 1 10 11
M  V30 11 2 10 12
M  V30 12 1 9 13
M  V30 13 2 13 14
M  V30 14 1 14 15
M  V30 15 2 15 16
M  V30 16 1 2 17
M  V30 17 2 17 18
M  V30 18 1 18 19
M  V30 19 2 19 20
M  V30 20 1 20 21
M  V30 21 1 21 22
M  V30 22 1 22 23
M  V30 23 2 23 24
M  V30 24 1 23 25
M  V30 25 1 25 26
M  V30 26 1 26 27
M  V30 27 1 27 28
M  V30 28 2 28 29
M  V30 29 1 28 30
M  V30 30 2 21 31
M  V30 31 1 16 4
M  V30 32 1 31 17
M  V30 33 1 16 8
M  V30 34 1 30 25
M  V30 35 1 1 32
M  V30 36 1 1 33
M  V30 37 1 1 34
M  V30 38 1 2 35
M  V30 39 1 3 36
M  V30 40 1 6 37
M  V30 41 1 11 38
M  V30 42 1 11 39
M  V30 43 1 13 40
M  V30 44 1 14 41
M  V30 45 1 15 42
M  V30 46 1 18 43
M  V30 47 1 19 44
M  V30 48 1 20 45
M  V30 49 1 22 46
M  V30 50 1 25 47
M  V30 51 1 26 48
M  V30 52 1 26 49
M  V30 53 1 27 50
M  V30 54 1 30 51
M  V30 55 1 30 52
M  V30 56 1 31 53
M  V30 END BOND
M  V30 END CTAB
M  END
>  <Dataset>  (991) 
ChEMBL_Kinases

>  <Ligand_Instance>  (991) 
nan

>  <PDB_ID>  (991) 
nan

>  <Standardized_SMILES>  (991) 
CC(Nc1ncnc2c(C(N)=O)cccc12)c1cccc(NC(=O)C2CNC(=O)C2)c1

>  <Name>  (991) 
nan

>  <Pocket>  (991) 
nan

>  <ATP_Site>  (991) 
nan

>  <Peripheral>  (991) 
nan

>  <Num_H_Atoms_ProtBoundConf>  (991) 
nan

>  <Num_Resolved_Atoms>  (991) 
nan

>  <Num_Not_Resolved_Atoms>  (991) 
nan

$$$$
CHEMBL3675516
     RDKit          3D

  0  0  0  0  0  0  0  0  0  0999 V3000
M  V30 BEGIN CTAB
M  V30 COUNTS 71 74 0 0 0
M  V30 BEGIN ATOM
M  V30 1 C 4.239972 -4.006121 2.804722 0
M  V30 2 C 3.310478 -3.837498 1.872006 0
M  V30 3 C 2.020951 -4.566209 1.763235 0
M  V30 4 N 0.887877 -3.631478 1.832112 0
M  V30 5 C 0.884774 -3.114211 3.200716 0
M  V30 6 C -0.354001 -4.305144 1.633811 0
M  V30 7 C -0.646038 -4.828547 0.280673 0
M  V30 8 C -0.745523 -3.865921 -0.836759 0
M  V30 9 N 0.412877 -3.070296 -1.123419 0
M  V30 10 C 0.262544 -2.139677 -2.193553 0
M  V30 11 N -0.862946 -1.999380 -2.896473 0
M  V30 12 C -1.008387 -1.131709 -3.897206 0
M  V30 13 N 0.015583 -0.314242 -4.269781 0
M  V30 14 C 1.196842 -0.388567 -3.609711 0
M  V30 15 C 2.217632 0.445006 -4.000259 0
M  V30 16 C 2.014660 1.382860 -5.104785 0
M  V30 17 N 3.097080 2.231413 -5.463037 0
M  V30 18 O 0.886759 1.385177 -5.678306 0
M  V30 19 C 3.416031 0.367016 -3.328443 0
M  V30 20 C 3.593958 -0.527179 -2.283868 0
M  V30 21 C 2.513040 -1.331744 -1.953424 0
M  V30 22 C 1.288079 -1.304485 -2.584297 0
M  V30 23 C -1.975950 -3.042697 -0.699424 0
M  V30 24 C -3.209404 -3.329410 -1.226700 0
M  V30 25 C -4.320169 -2.528616 -1.079834 0
M  V30 26 C -4.176890 -1.350950 -0.346997 0
M  V30 27 C -2.958639 -0.995019 0.216250 0
M  V30 28 N -2.803451 0.190767 0.949464 0
M  V30 29 C -2.909211 0.683573 2.274951 0
M  V30 30 O -3.253843 -0.180160 3.121218 0
M  V30 31 C -2.621856 2.080312 2.520617 0
M  V30 32 C -2.230546 3.032078 1.602790 0
M  V30 33 C -1.991867 4.345873 2.012148 0
M  V30 34 C -2.145543 4.715067 3.351268 0
M  V30 35 O -1.856662 6.056115 3.515367 0
M  V30 36 C -1.908132 6.762101 4.731522 0
M  V30 37 C -2.536260 3.747685 4.244647 0
M  V30 38 C -2.770418 2.453432 3.838121 0
M  V30 39 C -1.879921 -1.851256 0.027927 0
M  V30 40 H 5.124691 -3.371717 2.714122 0
M  V30 41 H 5.097125 -3.345726 2.660782 0
M  V30 42 H 3.342112 -3.129001 1.025271 0
M  V30 43 H 1.976859 -5.340880 2.544458 0
M  V30 44 H 1.952625 -5.071415 0.792426 0
M  V30 45 H 1.635997 -2.331020 3.374627 0
M  V30 46 H 1.089115 -3.919470 3.935415 0
M  V30 47 H -0.124383 -2.700641 3.470585 0
M  V30 48 H -0.328725 -5.212070 2.315759 0
M  V30 49 H -1.220712 -3.721009 2.070704 0
M  V30 50 H 0.155333 -5.573977 -0.003388 0
M  V30 51 H -1.594335 -5.409701 0.345306 0
M  V30 52 H -0.923399 -4.488435 -1.772565 0
M  V30 53 H 1.277464 -3.189870 -0.575393 0
M  V30 54 H -1.998707 -1.163850 -4.348689 0
M  V30 55 H 2.802361 3.122014 -5.954717 0
M  V30 56 H 3.178205 3.138732 -5.931532 0
M  V30 57 H 4.224229 1.019384 -3.630435 0
M  V30 58 H 4.545426 -0.567486 -1.772495 0
M  V30 59 H 2.727579 -1.999273 -1.134065 0
M  V30 60 H -3.287211 -4.259444 -1.795500 0
M  V30 61 H -5.264732 -2.841145 -1.537849 0
M  V30 62 H -5.038792 -0.708211 -0.219332 0
M  V30 63 H -2.532749 0.764154 0.127299 0
M  V30 64 H -2.127276 2.693282 0.586741 0
M  V30 65 H -1.693174 4.971286 1.185203 0
M  V30 66 H -2.436341 7.735992 4.625789 0
M  V30 67 H -2.495124 6.158705 5.452576 0
M  V30 68 H -0.893045 7.014493 5.135361 0
M  V30 69 H -2.625324 4.135117 5.247723 0
M  V30 70 H -3.075190 1.782440 4.640920 0
M  V30 71 H -0.926104 -1.558647 0.477206 0
M  V30 END ATOM
M  V30 BEGIN BOND
M  V30 1 2 1 2
M  V30 2 1 2 3
M  V30 3 1 3 4
M  V30 4 1 4 5
M  V30 5 1 4 6
M  V30 6 1 6 7
M  V30 7 1 7 8
M  V30 8 1 8 9
M  V30 9 1 9 10
M  V30 10 2 10 11
M  V30 11 1 11 12
M  V30 12 2 12 13
M  V30 13 1 13 14
M  V30 14 2 14 15
M  V30 15 1 15 16
M  V30 16 1 16 17
M  V30 17 2 16 18
M  V30 18 1 15 19
M  V30 19 2 19 20
M  V30 20 1 20 21
M  V30 21 2 21 22
M  V30 22 1 8 23
M  V30 23 2 23 24
M  V30 24 1 24 25
M  V30 25 2 25 26
M  V30 26 1 26 27
M  V30 27 1 27 28
M  V30 28 1 28 29
M  V30 29 2 29 30
M  V30 30 1 29 31
M  V30 31 2 31 32
M  V30 32 1 32 33
M  V30 33 2 33 34
M  V30 34 1 34 35
M  V30 35 1 35 36
M  V30 36 1 34 37
M  V30 37 2 37 38
M  V30 38 2 27 39
M  V30 39 1 22 10
M  V30 40 1 39 23
M  V30 41 1 22 14
M  V30 42 1 38 31
M  V30 43 1 1 40
M  V30 44 1 1 41
M  V30 45 1 2 42
M  V30 46 1 3 43
M  V30 47 1 3 44
M  V30 48 1 5 45
M  V30 49 1 5 46
M  V30 50 1 5 47
M  V30 51 1 6 48
M  V30 52 1 6 49
M  V30 53 1 7 50
M  V30 54 1 7 51
M  V30 55 1 8 52
M  V30 56 1 9 53
M  V30 57 1 12 54
M  V30 58 1 17 55
M  V30 59 1 17 56
M  V30 60 1 19 57
M  V30 61 1 20 58
M  V30 62 1 21 59
M  V30 63 1 24 60
M  V30 64 1 25 61
M  V30 65 1 26 62
M  V30 66 1 28 63
M  V30 67 1 32 64
M  V30 68 1 33 65
M  V30 69 1 36 66
M  V30 70 1 36 67
M  V30 71 1 36 68
M  V30 72 1 37 69
M  V30 73 1 38 70
M  V30 74 1 39 71
M  V30 END BOND
M  V30 END CTAB
M  END
>  <Dataset>  (992) 
ChEMBL_Kinases

>  <Ligand_Instance>  (992) 
nan

>  <PDB_ID>  (992) 
nan

>  <Standardized_SMILES>  (992) 
C=CCN(C)CCC(Nc1ncnc2c(C(N)=O)cccc12)c1cccc(NC(=O)c2ccc(OC)cc2)c1

>  <Name>  (992) 
nan

>  <Pocket>  (992) 
nan

>  <ATP_Site>  (992) 
nan

>  <Peripheral>  (992) 
nan

>  <Num_H_Atoms_ProtBoundConf>  (992) 
nan

>  <Num_Resolved_Atoms>  (992) 
nan

>  <Num_Not_Resolved_Atoms>  (992) 
nan

$$$$
CHEMBL3685222
     RDKit          3D

  0  0  0  0  0  0  0  0  0  0999 V3000
M  V30 BEGIN CTAB
M  V30 COUNTS 65 68 0 0 0
M  V30 BEGIN ATOM
M  V30 1 C 3.157079 1.261925 5.536001 0
M  V30 2 C 2.307101 2.459134 5.111465 0
M  V30 3 C 2.124058 3.321385 6.312361 0
M  V30 4 N 3.025032 3.094245 4.038233 0
M  V30 5 C 3.216561 2.211946 2.935436 0
M  V30 6 C 1.872200 1.808086 2.331097 0
M  V30 7 C 0.950246 2.984215 2.197644 0
M  V30 8 C 0.360515 2.924858 0.828176 0
M  V30 9 O 0.328780 3.648277 -0.202857 0
M  V30 10 N -0.347163 1.715748 0.684031 0
M  V30 11 C -1.074082 1.205898 -0.428780 0
M  V30 12 C -2.396423 1.486790 -0.562670 0
M  V30 13 C -3.089894 0.979049 -1.657404 0
M  V30 14 C -2.453814 0.208024 -2.587541 0
M  V30 15 C -1.129166 -0.103747 -2.500662 0
M  V30 16 C -0.284084 -0.921547 -3.404343 0
M  V30 17 N -0.257960 -2.317977 -2.998459 0
M  V30 18 C -1.437633 -3.107400 -2.960374 0
M  V30 19 N -2.351933 -2.882652 -3.842922 0
M  V30 20 C -3.524746 -3.717925 -3.747876 0
M  V30 21 N -3.801740 -4.663111 -2.906350 0
M  V30 22 C -2.857144 -5.008462 -1.865928 0
M  V30 23 C -2.389834 -6.417170 -1.948591 0
M  V30 24 C -2.827664 -7.490395 -2.832426 0
M  V30 25 N -3.845549 -7.123418 -3.737393 0
M  V30 26 O -2.231343 -8.566664 -2.648296 0
M  V30 27 C -1.424856 -6.628509 -1.035749 0
M  V30 28 C -0.991585 -5.499383 -0.134549 0
M  V30 29 C -0.655307 -4.388135 -1.094499 0
M  V30 30 C -1.624498 -4.157691 -1.967123 0
M  V30 31 C -0.461328 0.423439 -1.386786 0
M  V30 32 C 1.626825 4.305787 2.396489 0
M  V30 33 C 2.516910 4.348859 3.594569 0
M  V30 34 H 2.931641 0.944777 6.580861 0
M  V30 35 H 4.220608 1.482174 5.459058 0
M  V30 36 H 2.897768 0.363623 4.909073 0
M  V30 37 H 1.362865 2.021207 4.727880 0
M  V30 38 H 1.380644 4.123583 6.208523 0
M  V30 39 H 3.110166 3.631803 6.692494 0
M  V30 40 H 1.708500 2.652593 7.122052 0
M  V30 41 H 3.705618 1.287747 3.280613 0
M  V30 42 H 3.835694 2.707706 2.160826 0
M  V30 43 H 2.159254 1.403951 1.316939 0
M  V30 44 H 1.402244 0.961294 2.854215 0
M  V30 45 H 0.092951 2.962127 2.907214 0
M  V30 46 H -0.522535 0.895148 1.334745 0
M  V30 47 H -2.971340 2.087253 0.127224 0
M  V30 48 H -4.148451 1.182125 -1.798727 0
M  V30 49 H -2.954705 -0.199011 -3.446787 0
M  V30 50 H 0.731322 -0.507446 -3.429974 0
M  V30 51 H -0.721659 -0.936429 -4.438185 0
M  V30 52 H 0.652579 -2.792104 -2.715449 0
M  V30 53 H -4.325009 -3.565878 -4.473709 0
M  V30 54 H -3.324755 -4.892477 -0.856474 0
M  V30 55 H -3.727422 -6.665135 -4.656890 0
M  V30 56 H -4.673931 -7.457704 -3.179100 0
M  V30 57 H -0.946201 -7.613403 -0.936216 0
M  V30 58 H -0.083110 -5.812050 0.390490 0
M  V30 59 H -1.832223 -5.204706 0.490134 0
M  V30 60 H 0.275824 -3.860522 -1.048412 0
M  V30 61 H 0.610420 0.236866 -1.214045 0
M  V30 62 H 2.126768 4.577553 1.446826 0
M  V30 63 H 0.835401 5.072678 2.536997 0
M  V30 64 H 3.417361 4.960982 3.301032 0
M  V30 65 H 2.065086 4.950391 4.437636 0
M  V30 END ATOM
M  V30 BEGIN BOND
M  V30 1 1 1 2
M  V30 2 1 2 3
M  V30 3 1 2 4
M  V30 4 1 4 5
M  V30 5 1 5 6
M  V30 6 1 6 7
M  V30 7 1 7 8
M  V30 8 2 8 9
M  V30 9 1 8 10
M  V30 10 1 10 11
M  V30 11 2 11 12
M  V30 12 1 12 13
M  V30 13 2 13 14
M  V30 14 1 14 15
M  V30 15 1 15 16
M  V30 16 1 16 17
M  V30 17 1 17 18
M  V30 18 2 18 19
M  V30 19 1 19 20
M  V30 20 2 20 21
M  V30 21 1 21 22
M  V30 22 1 22 23
M  V30 23 1 23 24
M  V30 24 1 24 25
M  V30 25 2 24 26
M  V30 26 2 23 27
M  V30 27 1 27 28
M  V30 28 1 28 29
M  V30 29 2 29 30
M  V30 30 2 15 31
M  V30 31 1 7 32
M  V30 32 1 32 33
M  V30 33 1 33 4
M  V30 34 1 31 11
M  V30 35 1 30 18
M  V30 36 1 30 22
M  V30 37 1 1 34
M  V30 38 1 1 35
M  V30 39 1 1 36
M  V30 40 1 2 37
M  V30 41 1 3 38
M  V30 42 1 3 39
M  V30 43 1 3 40
M  V30 44 1 5 41
M  V30 45 1 5 42
M  V30 46 1 6 43
M  V30 47 1 6 44
M  V30 48 1 7 45
M  V30 49 1 10 46
M  V30 50 1 12 47
M  V30 51 1 13 48
M  V30 52 1 14 49
M  V30 53 1 16 50
M  V30 54 1 16 51
M  V30 55 1 17 52
M  V30 56 1 20 53
M  V30 57 1 22 54
M  V30 58 1 25 55
M  V30 59 1 25 56
M  V30 60 1 27 57
M  V30 61 1 28 58
M  V30 62 1 28 59
M  V30 63 1 29 60
M  V30 64 1 31 61
M  V30 65 1 32 62
M  V30 66 1 32 63
M  V30 67 1 33 64
M  V30 68 1 33 65
M  V30 END BOND
M  V30 END CTAB
M  END
>  <Dataset>  (993) 
ChEMBL_Kinases

>  <Ligand_Instance>  (993) 
nan

>  <PDB_ID>  (993) 
nan

>  <Standardized_SMILES>  (993) 
CC(C)N1CCC(C(=O)Nc2cccc(CNC3=NC=NC4C(C(N)=O)=CCC=C34)c2)CC1

>  <Name>  (993) 
nan

>  <Pocket>  (993) 
nan

>  <ATP_Site>  (993) 
nan

>  <Peripheral>  (993) 
nan

>  <Num_H_Atoms_ProtBoundConf>  (993) 
nan

>  <Num_Resolved_Atoms>  (993) 
nan

>  <Num_Not_Resolved_Atoms>  (993) 
nan

$$$$
CHEMBL3685221
     RDKit          3D

  0  0  0  0  0  0  0  0  0  0999 V3000
M  V30 BEGIN CTAB
M  V30 COUNTS 64 68 0 0 0
M  V30 BEGIN ATOM
M  V30 1 N 3.929565 1.669826 6.639378 0
M  V30 2 C 3.147500 1.939016 5.463415 0
M  V30 3 O 2.760257 3.083762 5.795235 0
M  V30 4 C 3.033986 0.968462 4.380025 0
M  V30 5 C 3.705436 -0.229775 4.515137 0
M  V30 6 C 3.536586 -1.079296 3.441203 0
M  V30 7 C 2.772647 -0.772886 2.332537 0
M  V30 8 C 2.128120 0.432651 2.252544 0
M  V30 9 C 1.370374 0.716296 1.134889 0
M  V30 10 N 1.203028 -0.144694 0.037571 0
M  V30 11 C 0.380034 0.257398 -1.077964 0
M  V30 12 C -1.081510 0.472422 -0.696501 0
M  V30 13 C -1.819876 0.886044 -1.946620 0
M  V30 14 N -3.212040 1.122566 -1.737014 0
M  V30 15 C -3.552720 2.254077 -0.944188 0
M  V30 16 C -4.205194 1.785608 0.325660 0
M  V30 17 C -4.552545 0.347080 0.042581 0
M  V30 18 C -3.997723 0.009499 -1.317909 0
M  V30 19 C 0.389315 -0.705820 -2.208292 0
M  V30 20 C 0.522565 -0.435201 -3.565185 0
M  V30 21 C 0.507883 -1.454333 -4.475127 0
M  V30 22 C 0.362443 -2.747822 -4.062123 0
M  V30 23 C 0.223890 -3.085725 -2.712227 0
M  V30 24 N 0.073081 -4.438336 -2.296170 0
M  V30 25 C -0.054538 -4.701347 -0.917333 0
M  V30 26 C -1.368703 -4.702954 -0.469429 0
M  V30 27 C -1.688850 -4.943856 0.862988 0
M  V30 28 C -0.700287 -5.188568 1.777223 0
M  V30 29 C 0.592503 -5.175774 1.280448 0
M  V30 30 N 0.923136 -4.946082 0.000688 0
M  V30 31 C 0.243590 -2.028500 -1.823511 0
M  V30 32 N 0.784379 1.926943 1.166672 0
M  V30 33 C 0.908714 2.801989 2.183293 0
M  V30 34 N 1.643007 2.545777 3.283017 0
M  V30 35 C 2.257785 1.327495 3.296355 0
M  V30 36 H 3.814270 0.898053 7.331397 0
M  V30 37 H 4.754732 2.075029 7.143842 0
M  V30 38 H 4.301364 -0.492578 5.358780 0
M  V30 39 H 4.031509 -2.040992 3.471324 0
M  V30 40 H 2.701117 -1.488603 1.556024 0
M  V30 41 H 1.614892 -1.073941 -0.075777 0
M  V30 42 H 0.832062 1.199631 -1.453777 0
M  V30 43 H -1.204633 1.204116 0.125483 0
M  V30 44 H -1.525674 -0.462937 -0.297249 0
M  V30 45 H -1.724344 0.065396 -2.687453 0
M  V30 46 H -1.380539 1.786372 -2.383448 0
M  V30 47 H -2.712606 2.951130 -0.747089 0
M  V30 48 H -4.311014 2.884596 -1.495469 0
M  V30 49 H -3.497141 1.871334 1.195683 0
M  V30 50 H -5.137222 2.380919 0.539820 0
M  V30 51 H -4.141030 -0.299144 0.845450 0
M  V30 52 H -5.655742 0.237028 0.075489 0
M  V30 53 H -4.881353 -0.026763 -2.019928 0
M  V30 54 H -3.519933 -0.965787 -1.398800 0
M  V30 55 H 0.633222 0.640769 -3.777465 0
M  V30 56 H 0.616863 -1.172373 -5.514138 0
M  V30 57 H 0.353948 -3.549192 -4.817110 0
M  V30 58 H 0.063286 -5.169577 -3.026627 0
M  V30 59 H -2.242024 -4.519944 -1.107069 0
M  V30 60 H -2.713646 -4.946660 1.220681 0
M  V30 61 H -0.929596 -5.376684 2.810054 0
M  V30 62 H 1.387539 -5.367892 1.994589 0
M  V30 63 H 0.132361 -2.339652 -0.778783 0
M  V30 64 H 0.383956 3.747025 2.084012 0
M  V30 END ATOM
M  V30 BEGIN BOND
M  V30 1 1 1 2
M  V30 2 2 2 3
M  V30 3 1 2 4
M  V30 4 2 4 5
M  V30 5 1 5 6
M  V30 6 2 6 7
M  V30 7 1 7 8
M  V30 8 2 8 9
M  V30 9 1 9 10
M  V30 10 1 10 11
M  V30 11 1 11 12
M  V30 12 1 12 13
M  V30 13 1 13 14
M  V30 14 1 14 15
M  V30 15 1 15 16
M  V30 16 1 16 17
M  V30 17 1 17 18
M  V30 18 1 11 19
M  V30 19 2 19 20
M  V30 20 1 20 21
M  V30 21 2 21 22
M  V30 22 1 22 23
M  V30 23 1 23 24
M  V30 24 1 24 25
M  V30 25 2 25 26
M  V30 26 1 26 27
M  V30 27 2 27 28
M  V30 28 1 28 29
M  V30 29 2 29 30
M  V30 30 2 23 31
M  V30 31 1 9 32
M  V30 32 2 32 33
M  V30 33 1 33 34
M  V30 34 2 34 35
M  V30 35 1 35 4
M  V30 36 1 35 8
M  V30 37 1 18 14
M  V30 38 1 31 19
M  V30 39 1 30 25
M  V30 40 1 1 36
M  V30 41 1 1 37
M  V30 42 1 5 38
M  V30 43 1 6 39
M  V30 44 1 7 40
M  V30 45 1 10 41
M  V30 46 1 11 42
M  V30 47 1 12 43
M  V30 48 1 12 44
M  V30 49 1 13 45
M  V30 50 1 13 46
M  V30 51 1 15 47
M  V30 52 1 15 48
M  V30 53 1 16 49
M  V30 54 1 16 50
M  V30 55 1 17 51
M  V30 56 1 17 52
M  V30 57 1 18 53
M  V30 58 1 18 54
M  V30 59 1 20 55
M  V30 60 1 21 56
M  V30 61 1 22 57
M  V30 62 1 24 58
M  V30 63 1 26 59
M  V30 64 1 27 60
M  V30 65 1 28 61
M  V30 66 1 29 62
M  V30 67 1 31 63
M  V30 68 1 33 64
M  V30 END BOND
M  V30 END CTAB
M  END
>  <Dataset>  (994) 
ChEMBL_Kinases

>  <Ligand_Instance>  (994) 
nan

>  <PDB_ID>  (994) 
nan

>  <Standardized_SMILES>  (994) 
NC(=O)c1cccc2c(NC(CCN3CCCC3)c3cccc(Nc4ccccn4)c3)ncnc12

>  <Name>  (994) 
nan

>  <Pocket>  (994) 
nan

>  <ATP_Site>  (994) 
nan

>  <Peripheral>  (994) 
nan

>  <Num_H_Atoms_ProtBoundConf>  (994) 
nan

>  <Num_Resolved_Atoms>  (994) 
nan

>  <Num_Not_Resolved_Atoms>  (994) 
nan

$$$$
CHEMBL3685219
     RDKit          3D

  0  0  0  0  0  0  0  0  0  0999 V3000
M  V30 BEGIN CTAB
M  V30 COUNTS 69 73 0 0 0
M  V30 BEGIN ATOM
M  V30 1 C 7.168579 3.390882 8.026609 0
M  V30 2 O 5.879525 3.073446 7.587209 0
M  V30 3 C 5.524047 2.902633 6.258568 0
M  V30 4 C 6.399671 3.024425 5.196846 0
M  V30 5 C 6.020482 2.848959 3.877627 0
M  V30 6 C 4.697791 2.537326 3.634241 0
M  V30 7 C 4.317571 2.356993 2.237951 0
M  V30 8 O 5.196065 2.480801 1.347336 0
M  V30 9 N 2.987994 2.048616 1.885519 0
M  V30 10 C 2.324608 1.820977 0.663261 0
M  V30 11 C 1.812094 2.995494 0.118434 0
M  V30 12 C 1.117582 3.009233 -1.082393 0
M  V30 13 C 0.949032 1.786329 -1.733099 0
M  V30 14 C 1.455969 0.615117 -1.197351 0
M  V30 15 C 1.248819 -0.640611 -1.920020 0
M  V30 16 N 0.032575 -1.339565 -1.560398 0
M  V30 17 C -0.281446 -2.565885 -2.228166 0
M  V30 18 N 0.543373 -3.043489 -3.174156 0
M  V30 19 C 0.251630 -4.186200 -3.806432 0
M  V30 20 N -0.854441 -4.902034 -3.537375 0
M  V30 21 C -1.722563 -4.481474 -2.601975 0
M  V30 22 C -2.874314 -5.167251 -2.278293 0
M  V30 23 C -3.197992 -6.403236 -2.958272 0
M  V30 24 N -2.389247 -6.980473 -3.973696 0
M  V30 25 O -4.233919 -7.078159 -2.704784 0
M  V30 26 C -3.746534 -4.709348 -1.312720 0
M  V30 27 C -3.485152 -3.535890 -0.635853 0
M  V30 28 C -4.357324 -2.954409 0.412876 0
M  V30 29 N -5.320189 -2.014693 -0.065913 0
M  V30 30 C -6.265560 -2.502660 -1.013798 0
M  V30 31 C -6.757070 -1.426561 -1.962836 0
M  V30 32 O -6.867540 -0.183143 -1.392424 0
M  V30 33 C -5.779654 0.249593 -0.678502 0
M  V30 34 C -4.701223 -0.781918 -0.521474 0
M  V30 35 C -2.311083 -2.866566 -0.987755 0
M  V30 36 C -1.417910 -3.293007 -1.945387 0
M  V30 37 C 2.142843 0.627543 -0.002608 0
M  V30 38 C 3.792074 2.406513 4.664331 0
M  V30 39 C 4.204808 2.590196 5.990799 0
M  V30 40 H 7.986973 2.902726 7.474659 0
M  V30 41 H 7.247675 3.041238 9.082542 0
M  V30 42 H 7.302365 4.503399 8.066943 0
M  V30 43 H 7.404594 3.270053 5.507293 0
M  V30 44 H 6.760021 2.959890 3.090242 0
M  V30 45 H 2.210137 1.931209 2.569257 0
M  V30 46 H 1.899926 3.998239 0.565437 0
M  V30 47 H 0.712419 3.896180 -1.525211 0
M  V30 48 H 0.407291 1.743824 -2.683100 0
M  V30 49 H 2.095143 -1.338292 -1.659688 0
M  V30 50 H 1.331029 -0.438321 -3.008433 0
M  V30 51 H -0.501704 -0.865131 -0.833066 0
M  V30 52 H 0.881284 -4.615026 -4.575264 0
M  V30 53 H -1.601548 -7.515720 -3.539104 0
M  V30 54 H -2.857273 -6.673690 -4.853902 0
M  V30 55 H -4.624652 -5.255982 -1.079099 0
M  V30 56 H -3.749035 -2.484788 1.203941 0
M  V30 57 H -4.893237 -3.800349 0.892447 0
M  V30 58 H -5.861006 -3.303212 -1.650427 0
M  V30 59 H -7.157937 -2.906022 -0.474452 0
M  V30 60 H -7.769341 -1.729480 -2.295238 0
M  V30 61 H -6.146172 -1.397180 -2.890428 0
M  V30 62 H -6.127731 0.500531 0.349291 0
M  V30 63 H -5.325073 1.131415 -1.184052 0
M  V30 64 H -4.010022 -0.466615 0.285689 0
M  V30 65 H -4.182985 -1.045166 -1.469359 0
M  V30 66 H -2.123310 -1.960965 -0.455501 0
M  V30 67 H 2.566526 -0.244148 0.474139 0
M  V30 68 H 2.772451 2.167998 4.500532 0
M  V30 69 H 3.458062 2.479101 6.792312 0
M  V30 END ATOM
M  V30 BEGIN BOND
M  V30 1 1 1 2
M  V30 2 1 2 3
M  V30 3 2 3 4
M  V30 4 1 4 5
M  V30 5 2 5 6
M  V30 6 1 6 7
M  V30 7 2 7 8
M  V30 8 1 7 9
M  V30 9 1 9 10
M  V30 10 2 10 11
M  V30 11 1 11 12
M  V30 12 2 12 13
M  V30 13 1 13 14
M  V30 14 1 14 15
M  V30 15 1 15 16
M  V30 16 1 16 17
M  V30 17 2 17 18
M  V30 18 1 18 19
M  V30 19 2 19 20
M  V30 20 1 20 21
M  V30 21 2 21 22
M  V30 22 1 22 23
M  V30 23 1 23 24
M  V30 24 2 23 25
M  V30 25 1 22 26
M  V30 26 2 26 27
M  V30 27 1 27 28
M  V30 28 1 28 29
M  V30 29 1 29 30
M  V30 30 1 30 31
M  V30 31 1 31 32
M  V30 32 1 32 33
M  V30 33 1 33 34
M  V30 34 1 27 35
M  V30 35 2 35 36
M  V30 36 2 14 37
M  V30 37 1 6 38
M  V30 38 2 38 39
M  V30 39 1 39 3
M  V30 40 1 37 10
M  V30 41 1 36 17
M  V30 42 1 36 21
M  V30 43 1 34 29
M  V30 44 1 1 40
M  V30 45 1 1 41
M  V30 46 1 1 42
M  V30 47 1 4 43
M  V30 48 1 5 44
M  V30 49 1 9 45
M  V30 50 1 11 46
M  V30 51 1 12 47
M  V30 52 1 13 48
M  V30 53 1 15 49
M  V30 54 1 15 50
M  V30 55 1 16 51
M  V30 56 1 19 52
M  V30 57 1 24 53
M  V30 58 1 24 54
M  V30 59 1 26 55
M  V30 60 1 28 56
M  V30 61 1 28 57
M  V30 62 1 30 58
M  V30 63 1 30 59
M  V30 64 1 31 60
M  V30 65 1 31 61
M  V30 66 1 33 62
M  V30 67 1 33 63
M  V30 68 1 34 64
M  V30 69 1 34 65
M  V30 70 1 35 66
M  V30 71 1 37 67
M  V30 72 1 38 68
M  V30 73 1 39 69
M  V30 END BOND
M  V30 END CTAB
M  END
>  <Dataset>  (995) 
ChEMBL_Kinases

>  <Ligand_Instance>  (995) 
nan

>  <PDB_ID>  (995) 
nan

>  <Standardized_SMILES>  (995) 
COc1ccc(C(=O)Nc2cccc(CNc3ncnc4c(C(N)=O)cc(CN5CCOCC5)cc34)c2)cc1

>  <Name>  (995) 
nan

>  <Pocket>  (995) 
nan

>  <ATP_Site>  (995) 
nan

>  <Peripheral>  (995) 
nan

>  <Num_H_Atoms_ProtBoundConf>  (995) 
nan

>  <Num_Resolved_Atoms>  (995) 
nan

>  <Num_Not_Resolved_Atoms>  (995) 
nan

$$$$
CHEMBL3685218
     RDKit          3D

  0  0  0  0  0  0  0  0  0  0999 V3000
M  V30 BEGIN CTAB
M  V30 COUNTS 47 49 0 0 0
M  V30 BEGIN ATOM
M  V30 1 C 1.100564 -5.149442 1.632382 0
M  V30 2 C 2.325217 -4.354803 2.018858 0
M  V30 3 N 2.130567 -3.646631 3.280495 0
M  V30 4 C 2.611372 -3.314116 1.000684 0
M  V30 5 C 3.659305 -3.463496 0.099334 0
M  V30 6 C 3.962558 -2.508009 -0.848303 0
M  V30 7 C 3.223573 -1.342933 -0.943666 0
M  V30 8 C 2.172682 -1.155177 -0.068043 0
M  V30 9 N 1.273535 -0.059716 0.055833 0
M  V30 10 C 1.558901 0.964103 0.990669 0
M  V30 11 O 2.630429 0.832626 1.668789 0
M  V30 12 C 0.865243 2.189365 1.368492 0
M  V30 13 C 1.402473 3.460135 1.432772 0
M  V30 14 C 0.408127 4.315523 1.861525 0
M  V30 15 O -0.696356 3.628895 2.057921 0
M  V30 16 C -0.466554 2.351771 1.773876 0
M  V30 17 C -1.479016 1.295484 1.874334 0
M  V30 18 N -2.014145 1.020686 0.523107 0
M  V30 19 C -2.929947 -0.077971 0.692427 0
M  V30 20 C -3.759081 -0.312741 -0.548591 0
M  V30 21 O -4.583275 0.818549 -0.670329 0
M  V30 22 C -3.737690 1.888914 -0.957449 0
M  V30 23 C -2.780014 2.198630 0.151534 0
M  V30 24 C 1.882550 -2.129726 0.881731 0
M  V30 25 H 0.377388 -5.157969 2.494967 0
M  V30 26 H 0.574996 -4.731261 0.754886 0
M  V30 27 H 1.380301 -6.198524 1.373666 0
M  V30 28 H 3.228507 -5.004867 2.083087 0
M  V30 29 H 1.130538 -3.347318 3.284623 0
M  V30 30 H 2.433736 -4.178481 4.109638 0
M  V30 31 H 4.277532 -4.352514 0.116780 0
M  V30 32 H 4.760013 -2.584326 -1.561908 0
M  V30 33 H 3.347809 -0.509417 -1.624970 0
M  V30 34 H 0.389138 0.126447 -0.461911 0
M  V30 35 H 2.406977 3.791345 1.200434 0
M  V30 36 H 0.368781 5.379464 2.053055 0
M  V30 37 H -2.350935 1.645324 2.466168 0
M  V30 38 H -1.129396 0.362662 2.354687 0
M  V30 39 H -2.384475 -1.011603 0.988279 0
M  V30 40 H -3.606823 0.149536 1.527318 0
M  V30 41 H -4.421614 -1.173210 -0.370290 0
M  V30 42 H -3.162604 -0.452977 -1.450778 0
M  V30 43 H -3.166601 1.627076 -1.858572 0
M  V30 44 H -4.381028 2.789266 -1.091553 0
M  V30 45 H -2.029410 2.923778 -0.261145 0
M  V30 46 H -3.298845 2.604306 1.044265 0
M  V30 47 H 1.085083 -2.090928 1.622489 0
M  V30 END ATOM
M  V30 BEGIN BOND
M  V30 1 1 1 2
M  V30 2 1 2 3
M  V30 3 1 2 4
M  V30 4 2 4 5
M  V30 5 1 5 6
M  V30 6 2 6 7
M  V30 7 1 7 8
M  V30 8 1 8 9
M  V30 9 1 9 10
M  V30 10 2 10 11
M  V30 11 1 10 12
M  V30 12 1 12 13
M  V30 13 2 13 14
M  V30 14 1 14 15
M  V30 15 1 15 16
M  V30 16 1 16 17
M  V30 17 1 17 18
M  V30 18 1 18 19
M  V30 19 1 19 20
M  V30 20 1 20 21
M  V30 21 1 21 22
M  V30 22 1 22 23
M  V30 23 2 8 24
M  V30 24 1 24 4
M  V30 25 2 16 12
M  V30 26 1 23 18
M  V30 27 1 1 25
M  V30 28 1 1 26
M  V30 29 1 1 27
M  V30 30 1 2 28
M  V30 31 1 3 29
M  V30 32 1 3 30
M  V30 33 1 5 31
M  V30 34 1 6 32
M  V30 35 1 7 33
M  V30 36 1 9 34
M  V30 37 1 13 35
M  V30 38 1 14 36
M  V30 39 1 17 37
M  V30 40 1 17 38
M  V30 41 1 19 39
M  V30 42 1 19 40
M  V30 43 1 20 41
M  V30 44 1 20 42
M  V30 45 1 22 43
M  V30 46 1 22 44
M  V30 47 1 23 45
M  V30 48 1 23 46
M  V30 49 1 24 47
M  V30 END BOND
M  V30 END CTAB
M  END
>  <Dataset>  (996) 
ChEMBL_Kinases

>  <Ligand_Instance>  (996) 
nan

>  <PDB_ID>  (996) 
nan

>  <Standardized_SMILES>  (996) 
CC(N)c1cccc(NC(=O)c2ccoc2CN2CCOCC2)c1

>  <Name>  (996) 
nan

>  <Pocket>  (996) 
nan

>  <ATP_Site>  (996) 
nan

>  <Peripheral>  (996) 
nan

>  <Num_H_Atoms_ProtBoundConf>  (996) 
nan

>  <Num_Resolved_Atoms>  (996) 
nan

>  <Num_Not_Resolved_Atoms>  (996) 
nan

$$$$
CHEMBL3675518
     RDKit          3D

  0  0  0  0  0  0  0  0  0  0999 V3000
M  V30 BEGIN CTAB
M  V30 COUNTS 64 68 0 0 0
M  V30 BEGIN ATOM
M  V30 1 N 6.934277 2.005227 1.959461 0
M  V30 2 C 6.995594 0.693322 1.413642 0
M  V30 3 O 8.134628 0.146871 1.456421 0
M  V30 4 C 5.876159 -0.022453 0.835864 0
M  V30 5 C 6.111843 -1.288049 0.365079 0
M  V30 6 C 5.028228 -1.952653 -0.181627 0
M  V30 7 C 3.798700 -1.346766 -0.233134 0
M  V30 8 C 3.627306 -0.073207 0.256880 0
M  V30 9 C 2.377467 0.493886 0.182870 0
M  V30 10 N 1.214782 -0.080233 -0.331961 0
M  V30 11 C -0.167392 0.084855 -0.605635 0
M  V30 12 C -0.574760 1.087592 -1.619905 0
M  V30 13 C -0.276904 2.509319 -1.433472 0
M  V30 14 N -0.770881 3.261766 -0.412296 0
M  V30 15 C -0.541840 3.240159 0.947269 0
M  V30 16 C -1.716833 4.224101 1.106425 0
M  V30 17 C -1.861827 4.128265 -0.420499 0
M  V30 18 C -0.805074 -1.208950 -1.060146 0
M  V30 19 C -0.217271 -2.030059 -1.998910 0
M  V30 20 C -0.790382 -3.211735 -2.417983 0
M  V30 21 C -2.014253 -3.602806 -1.877561 0
M  V30 22 C -2.608721 -2.806484 -0.951246 0
M  V30 23 N -3.873502 -3.141002 -0.344280 0
M  V30 24 C -3.617847 -3.903136 0.823160 0
M  V30 25 O -2.413241 -4.110093 1.062762 0
M  V30 26 C -4.622645 -4.443225 1.731676 0
M  V30 27 C -4.166299 -5.169322 2.812451 0
M  V30 28 C -5.075637 -5.703013 3.703155 0
M  V30 29 C -6.449973 -5.550920 3.575841 0
M  V30 30 Br -7.595857 -6.330442 4.863636 0
M  V30 31 C -6.871541 -4.811440 2.471944 0
M  V30 32 C -5.979669 -4.267327 1.566438 0
M  V30 33 C -2.025047 -1.625080 -0.539318 0
M  V30 34 N 2.274733 1.719471 0.668417 0
M  V30 35 C 3.268607 2.420141 1.207710 0
M  V30 36 N 4.492362 1.869420 1.282107 0
M  V30 37 C 4.665179 0.629296 0.807849 0
M  V30 38 H 6.330720 2.541193 2.635757 0
M  V30 39 H 7.537579 2.832360 1.800530 0
M  V30 40 H 7.083741 -1.768747 0.405271 0
M  V30 41 H 5.227852 -2.964025 -0.554795 0
M  V30 42 H 3.047127 -1.967108 -0.679344 0
M  V30 43 H 1.434523 -1.036640 -0.665585 0
M  V30 44 H -0.650286 0.300023 0.406212 0
M  V30 45 H -1.650404 0.872753 -1.863358 0
M  V30 46 H -0.061936 0.749243 -2.581310 0
M  V30 47 H -0.586090 3.023824 -2.413330 0
M  V30 48 H 0.847942 2.627895 -1.497205 0
M  V30 49 H 0.436052 3.748974 1.207388 0
M  V30 50 H -0.680996 2.362398 1.579130 0
M  V30 51 H -2.543123 3.772324 1.662269 0
M  V30 52 H -1.437767 5.219718 1.477142 0
M  V30 53 H -2.865512 3.782749 -0.659770 0
M  V30 54 H -1.645353 5.116764 -0.877579 0
M  V30 55 H 0.727846 -1.757488 -2.436578 0
M  V30 56 H -0.325125 -3.855481 -3.156660 0
M  V30 57 H -2.493030 -4.514972 -2.177073 0
M  V30 58 H -4.894141 -2.949398 -0.572258 0
M  V30 59 H -3.103296 -5.340111 2.992478 0
M  V30 60 H -4.674658 -6.276440 4.553196 0
M  V30 61 H -7.951375 -4.692641 2.372615 0
M  V30 62 H -6.330135 -3.698764 0.719859 0
M  V30 63 H -2.466336 -0.970452 0.191334 0
M  V30 64 H 3.134179 3.421374 1.592293 0
M  V30 END ATOM
M  V30 BEGIN BOND
M  V30 1 1 1 2
M  V30 2 2 2 3
M  V30 3 1 2 4
M  V30 4 2 4 5
M  V30 5 1 5 6
M  V30 6 2 6 7
M  V30 7 1 7 8
M  V30 8 2 8 9
M  V30 9 1 9 10
M  V30 10 1 10 11
M  V30 11 1 11 12
M  V30 12 1 12 13
M  V30 13 1 13 14
M  V30 14 1 14 15
M  V30 15 1 15 16
M  V30 16 1 16 17
M  V30 17 1 11 18
M  V30 18 2 18 19
M  V30 19 1 19 20
M  V30 20 2 20 21
M  V30 21 1 21 22
M  V30 22 1 22 23
M  V30 23 1 23 24
M  V30 24 2 24 25
M  V30 25 1 24 26
M  V30 26 2 26 27
M  V30 27 1 27 28
M  V30 28 2 28 29
M  V30 29 1 29 30
M  V30 30 1 29 31
M  V30 31 2 31 32
M  V30 32 2 22 33
M  V30 33 1 9 34
M  V30 34 2 34 35
M  V30 35 1 35 36
M  V30 36 2 36 37
M  V30 37 1 37 4
M  V30 38 1 37 8
M  V30 39 1 17 14
M  V30 40 1 33 18
M  V30 41 1 32 26
M  V30 42 1 1 38
M  V30 43 1 1 39
M  V30 44 1 5 40
M  V30 45 1 6 41
M  V30 46 1 7 42
M  V30 47 1 10 43
M  V30 48 1 11 44
M  V30 49 1 12 45
M  V30 50 1 12 46
M  V30 51 1 13 47
M  V30 52 1 13 48
M  V30 53 1 15 49
M  V30 54 1 15 50
M  V30 55 1 16 51
M  V30 56 1 16 52
M  V30 57 1 17 53
M  V30 58 1 17 54
M  V30 59 1 19 55
M  V30 60 1 20 56
M  V30 61 1 21 57
M  V30 62 1 23 58
M  V30 63 1 27 59
M  V30 64 1 28 60
M  V30 65 1 31 61
M  V30 66 1 32 62
M  V30 67 1 33 63
M  V30 68 1 35 64
M  V30 END BOND
M  V30 END CTAB
M  END
>  <Dataset>  (997) 
ChEMBL_Kinases

>  <Ligand_Instance>  (997) 
nan

>  <PDB_ID>  (997) 
nan

>  <Standardized_SMILES>  (997) 
NC(=O)c1cccc2c(NC(CCN3CCC3)c3cccc(NC(=O)c4ccc(Br)cc4)c3)ncnc12

>  <Name>  (997) 
nan

>  <Pocket>  (997) 
nan

>  <ATP_Site>  (997) 
nan

>  <Peripheral>  (997) 
nan

>  <Num_H_Atoms_ProtBoundConf>  (997) 
nan

>  <Num_Resolved_Atoms>  (997) 
nan

>  <Num_Not_Resolved_Atoms>  (997) 
nan

$$$$
CHEMBL3675478
     RDKit          3D

  0  0  0  0  0  0  0  0  0  0999 V3000
M  V30 BEGIN CTAB
M  V30 COUNTS 43 45 0 0 0
M  V30 BEGIN ATOM
M  V30 1 N -3.505842 -4.066252 1.864446 0
M  V30 2 C -2.081172 -3.939237 1.509110 0
M  V30 3 C -1.914679 -2.585099 0.921844 0
M  V30 4 C -0.471022 -2.320688 0.514345 0 CFG=1
M  V30 5 N -0.219007 -1.076839 -0.070194 0
M  V30 6 C -0.025742 0.164234 -0.736765 0
M  V30 7 N -0.567281 0.615781 -1.876351 0
M  V30 8 C -0.358207 1.775120 -2.470243 0
M  V30 9 N 0.490874 2.588300 -1.862603 0
M  V30 10 C 1.099437 2.265903 -0.725102 0
M  V30 11 C 1.948807 3.237949 -0.236735 0
M  V30 12 C 2.166701 4.514499 -0.909449 0
M  V30 13 N 1.487347 4.803681 -2.128733 0
M  V30 14 O 2.949854 5.378283 -0.433915 0
M  V30 15 C 2.621853 2.988736 0.942220 0
M  V30 16 C 2.429400 1.788690 1.592834 0
M  V30 17 C 1.561202 0.891413 1.018732 0
M  V30 18 C 0.847346 1.044968 -0.146060 0
M  V30 19 C 0.342299 -2.504433 1.790315 0
M  V30 20 C -0.055662 -2.346824 3.099738 0
M  V30 21 C 0.854592 -2.587405 4.104877 0
M  V30 22 C 2.144380 -2.977166 3.883308 0
M  V30 23 C 2.580524 -3.145013 2.594126 0
M  V30 24 C 1.668123 -2.903828 1.596340 0
M  V30 25 H -3.628163 -4.224885 2.880022 0
M  V30 26 H -3.974439 -4.805070 1.284515 0
M  V30 27 H -1.844570 -4.726549 0.737237 0
M  V30 28 H -1.508955 -4.189630 2.392119 0
M  V30 29 H -2.309644 -1.817175 1.614380 0
M  V30 30 H -2.548170 -2.563939 -0.015142 0
M  V30 31 H -0.166343 -3.205298 -0.129609 0
M  V30 32 H -0.925468 -1.439238 -0.786230 0
M  V30 33 H -0.930030 1.860041 -3.369839 0
M  V30 34 H 0.794323 5.539997 -1.848125 0
M  V30 35 H 1.521982 4.481593 -3.128232 0
M  V30 36 H 3.301026 3.701724 1.382577 0
M  V30 37 H 2.934471 1.558175 2.511496 0
M  V30 38 H 1.426494 -0.032274 1.544375 0
M  V30 39 H -1.082237 -2.029029 3.210817 0
M  V30 40 H 0.451826 -2.437648 5.118502 0
M  V30 41 H 2.830393 -3.156637 4.703102 0
M  V30 42 H 3.587681 -3.450549 2.374757 0
M  V30 43 H 2.050664 -3.047766 0.575985 0
M  V30 END ATOM
M  V30 BEGIN BOND
M  V30 1 1 1 2
M  V30 2 1 2 3
M  V30 3 1 3 4
M  V30 4 1 4 5
M  V30 5 1 5 6
M  V30 6 2 6 7
M  V30 7 1 7 8
M  V30 8 2 8 9
M  V30 9 1 9 10
M  V30 10 2 10 11
M  V30 11 1 11 12
M  V30 12 1 12 13
M  V30 13 2 12 14
M  V30 14 1 11 15
M  V30 15 2 15 16
M  V30 16 1 16 17
M  V30 17 2 17 18
M  V30 18 1 4 19
M  V30 19 2 19 20
M  V30 20 1 20 21
M  V30 21 2 21 22
M  V30 22 1 22 23
M  V30 23 2 23 24
M  V30 24 1 18 6
M  V30 25 1 24 19
M  V30 26 1 18 10
M  V30 27 1 1 25
M  V30 28 1 1 26
M  V30 29 1 2 27
M  V30 30 1 2 28
M  V30 31 1 3 29
M  V30 32 1 3 30
M  V30 33 1 4 31 CFG=3
M  V30 34 1 5 32
M  V30 35 1 8 33
M  V30 36 1 13 34
M  V30 37 1 13 35
M  V30 38 1 15 36
M  V30 39 1 16 37
M  V30 40 1 17 38
M  V30 41 1 20 39
M  V30 42 1 21 40
M  V30 43 1 22 41
M  V30 44 1 23 42
M  V30 45 1 24 43
M  V30 END BOND
M  V30 END CTAB
M  END
>  <Dataset>  (998) 
ChEMBL_Kinases

>  <Ligand_Instance>  (998) 
nan

>  <PDB_ID>  (998) 
nan

>  <Standardized_SMILES>  (998) 
NCC[C@@H](Nc1ncnc2c(C(N)=O)cccc12)c1ccccc1

>  <Name>  (998) 
nan

>  <Pocket>  (998) 
nan

>  <ATP_Site>  (998) 
nan

>  <Peripheral>  (998) 
nan

>  <Num_H_Atoms_ProtBoundConf>  (998) 
nan

>  <Num_Resolved_Atoms>  (998) 
nan

>  <Num_Not_Resolved_Atoms>  (998) 
nan

$$$$
CHEMBL3685215
     RDKit          3D

  0  0  0  0  0  0  0  0  0  0999 V3000
M  V30 BEGIN CTAB
M  V30 COUNTS 55 58 0 0 0
M  V30 BEGIN ATOM
M  V30 1 C 4.161520 -2.301425 3.745098 0
M  V30 2 C 2.874446 -1.616882 3.511603 0
M  V30 3 C 2.429126 -0.353607 3.813070 0
M  V30 4 C 1.136786 -0.316830 3.344663 0
M  V30 5 C 0.212297 0.851598 3.434220 0
M  V30 6 F -0.769599 0.624004 4.358855 0
M  V30 7 F 0.930888 1.971668 3.733554 0
M  V30 8 F -0.385107 0.973841 2.177240 0
M  V30 9 N 0.846977 -1.504800 2.796545 0
M  V30 10 N 1.903799 -2.306569 2.893889 0
M  V30 11 C 1.685490 -3.620581 2.313242 0
M  V30 12 C 2.018894 -3.666217 0.865546 0
M  V30 13 O 2.964630 -4.063661 0.142307 0
M  V30 14 N 0.885812 -3.065590 0.199776 0
M  V30 15 C 0.444466 -2.746513 -1.133474 0
M  V30 16 C -0.329480 -3.582321 -1.913229 0
M  V30 17 C -0.721726 -3.204759 -3.201795 0
M  V30 18 C -0.301620 -1.974095 -3.645171 0
M  V30 19 C 0.477791 -1.075597 -2.924239 0
M  V30 20 C 0.882818 0.257513 -3.464033 0
M  V30 21 N 0.057294 1.340963 -3.035806 0
M  V30 22 C -1.349724 1.438933 -3.189763 0
M  V30 23 N -2.074771 0.475141 -3.763372 0
M  V30 24 C -3.405375 0.533111 -3.911471 0
M  V30 25 N -4.115809 1.600843 -3.477053 0
M  V30 26 C -3.410660 2.587982 -2.895016 0
M  V30 27 C -4.131164 3.675001 -2.456170 0
M  V30 28 C -5.566039 3.864047 -2.544678 0
M  V30 29 N -6.412403 2.900991 -3.102212 0
M  V30 30 O -6.262833 4.814904 -2.184114 0
M  V30 31 C -3.495822 4.748474 -1.844542 0
M  V30 32 C -2.125272 4.733994 -1.670645 0
M  V30 33 C -1.438151 3.605721 -2.133757 0
M  V30 34 C -2.046671 2.537007 -2.739114 0
M  V30 35 C 0.826833 -1.509394 -1.668147 0
M  V30 36 H 4.822782 -1.664348 4.364143 0
M  V30 37 H 4.661644 -2.533574 2.787449 0
M  V30 38 H 3.944257 -3.271989 4.276699 0
M  V30 39 H 3.018571 0.388931 4.307821 0
M  V30 40 H 2.474504 -4.268235 2.800543 0
M  V30 41 H 0.721410 -4.058453 2.568927 0
M  V30 42 H -0.011150 -2.663556 0.610872 0
M  V30 43 H -0.616920 -4.527374 -1.494451 0
M  V30 44 H -1.327970 -3.860561 -3.810280 0
M  V30 45 H -0.624584 -1.727396 -4.638711 0
M  V30 46 H 0.842048 0.222470 -4.589572 0
M  V30 47 H 1.940223 0.455271 -3.208699 0
M  V30 48 H 0.584417 2.104847 -2.572179 0
M  V30 49 H -3.938000 -0.298800 -4.392253 0
M  V30 50 H -6.365897 1.912407 -2.771536 0
M  V30 51 H -7.144453 2.506747 -3.710563 0
M  V30 52 H -4.022176 5.624391 -1.484280 0
M  V30 53 H -1.600768 5.557235 -1.194846 0
M  V30 54 H -0.390915 3.643066 -1.976706 0
M  V30 55 H 1.434478 -0.799093 -1.115142 0
M  V30 END ATOM
M  V30 BEGIN BOND
M  V30 1 1 1 2
M  V30 2 2 2 3
M  V30 3 1 3 4
M  V30 4 1 4 5
M  V30 5 1 5 6
M  V30 6 1 5 7
M  V30 7 1 5 8
M  V30 8 2 4 9
M  V30 9 1 9 10
M  V30 10 1 10 11
M  V30 11 1 11 12
M  V30 12 2 12 13
M  V30 13 1 12 14
M  V30 14 1 14 15
M  V30 15 2 15 16
M  V30 16 1 16 17
M  V30 17 2 17 18
M  V30 18 1 18 19
M  V30 19 1 19 20
M  V30 20 1 20 21
M  V30 21 1 21 22
M  V30 22 2 22 23
M  V30 23 1 23 24
M  V30 24 2 24 25
M  V30 25 1 25 26
M  V30 26 2 26 27
M  V30 27 1 27 28
M  V30 28 1 28 29
M  V30 29 2 28 30
M  V30 30 1 27 31
M  V30 31 2 31 32
M  V30 32 1 32 33
M  V30 33 2 33 34
M  V30 34 2 19 35
M  V30 35 1 10 2
M  V30 36 1 35 15
M  V30 37 1 34 22
M  V30 38 1 34 26
M  V30 39 1 1 36
M  V30 40 1 1 37
M  V30 41 1 1 38
M  V30 42 1 3 39
M  V30 43 1 11 40
M  V30 44 1 11 41
M  V30 45 1 14 42
M  V30 46 1 16 43
M  V30 47 1 17 44
M  V30 48 1 18 45
M  V30 49 1 20 46
M  V30 50 1 20 47
M  V30 51 1 21 48
M  V30 52 1 24 49
M  V30 53 1 29 50
M  V30 54 1 29 51
M  V30 55 1 31 52
M  V30 56 1 32 53
M  V30 57 1 33 54
M  V30 58 1 35 55
M  V30 END BOND
M  V30 END CTAB
M  END
>  <Dataset>  (999) 
ChEMBL_Kinases

>  <Ligand_Instance>  (999) 
nan

>  <PDB_ID>  (999) 
nan

>  <Standardized_SMILES>  (999) 
Cc1cc(C(F)(F)F)nn1CC(=O)Nc1cccc(CNc2ncnc3c(C(N)=O)cccc23)c1

>  <Name>  (999) 
nan

>  <Pocket>  (999) 
nan

>  <ATP_Site>  (999) 
nan

>  <Peripheral>  (999) 
nan

>  <Num_H_Atoms_ProtBoundConf>  (999) 
nan

>  <Num_Resolved_Atoms>  (999) 
nan

>  <Num_Not_Resolved_Atoms>  (999) 
nan

$$$$
