CHEMBL4741486
     RDKit          3D

  0  0  0  0  0  0  0  0  0  0999 V3000
M  V30 BEGIN CTAB
M  V30 COUNTS 39 41 0 0 0
M  V30 BEGIN ATOM
M  V30 1 C -1.623161 -5.304508 3.839426 0
M  V30 2 C -0.739142 -4.337182 3.123898 0
M  V30 3 C 0.544962 -4.018479 3.577552 0
M  V30 4 C 1.357982 -3.114625 2.901008 0
M  V30 5 C 0.912053 -2.510918 1.762833 0
M  V30 6 C 1.694521 -1.545898 0.981816 0
M  V30 7 C 0.939253 -0.421081 0.625473 0
M  V30 8 C 1.479016 0.612491 -0.109461 0
M  V30 9 C 0.679929 1.777108 -0.480180 0
M  V30 10 C -0.658967 1.527647 -0.693835 0
M  V30 11 C -1.575414 2.503715 -1.049131 0
M  V30 12 C -1.090403 3.807241 -1.193091 0
M  V30 13 C -1.998146 4.906845 -1.570222 0
M  V30 14 O -1.660485 6.120489 -1.724401 0
M  V30 15 O -3.329994 4.650290 -1.784365 0
M  V30 16 C 0.251367 4.050507 -0.977884 0
M  V30 17 C 1.156510 3.080009 -0.625829 0
M  V30 18 C 2.821056 0.456160 -0.467866 0
M  V30 19 N 3.552838 -0.623547 -0.127824 0
M  V30 20 C 3.015433 -1.643614 0.598399 0
M  V30 21 N 3.671174 -2.811508 1.011310 0
M  V30 22 C -0.360846 -2.853708 1.349963 0
M  V30 23 C -1.227584 -3.735451 1.958891 0
M  V30 24 H -2.388079 -4.714518 4.417309 0
M  V30 25 H -1.040293 -5.941909 4.510619 0
M  V30 26 H -2.231821 -5.870492 3.088469 0
M  V30 27 H 0.891691 -4.505974 4.488030 0
M  V30 28 H 2.357531 -2.878625 3.271578 0
M  V30 29 H -0.098192 -0.288052 0.899111 0
M  V30 30 H -1.144052 0.552718 -0.612336 0
M  V30 31 H -2.635043 2.318264 -1.220076 0
M  V30 32 H -4.049151 5.389029 -1.822461 0
M  V30 33 H 0.668275 5.063968 -1.081336 0
M  V30 34 H 2.202924 3.195125 -0.444871 0
M  V30 35 H 3.266540 1.261690 -1.048248 0
M  V30 36 H 4.298728 -2.759434 1.838087 0
M  V30 37 H 3.596102 -3.749875 0.568875 0
M  V30 38 H -0.714949 -2.361716 0.430484 0
M  V30 39 H -2.205201 -3.922987 1.536401 0
M  V30 END ATOM
M  V30 BEGIN BOND
M  V30 1 1 1 2
M  V30 2 2 2 3
M  V30 3 1 3 4
M  V30 4 2 4 5
M  V30 5 1 5 6
M  V30 6 2 6 7
M  V30 7 1 7 8
M  V30 8 1 8 9
M  V30 9 2 9 10
M  V30 10 1 10 11
M  V30 11 2 11 12
M  V30 12 1 12 13
M  V30 13 2 13 14
M  V30 14 1 13 15
M  V30 15 1 12 16
M  V30 16 2 16 17
M  V30 17 2 8 18
M  V30 18 1 18 19
M  V30 19 2 19 20
M  V30 20 1 20 21
M  V30 21 1 5 22
M  V30 22 2 22 23
M  V30 23 1 23 2
M  V30 24 1 20 6
M  V30 25 1 17 9
M  V30 26 1 1 24
M  V30 27 1 1 25
M  V30 28 1 1 26
M  V30 29 1 3 27
M  V30 30 1 4 28
M  V30 31 1 7 29
M  V30 32 1 10 30
M  V30 33 1 11 31
M  V30 34 1 15 32
M  V30 35 1 16 33
M  V30 36 1 17 34
M  V30 37 1 18 35
M  V30 38 1 21 36
M  V30 39 1 21 37
M  V30 40 1 22 38
M  V30 41 1 23 39
M  V30 END BOND
M  V30 END CTAB
M  END
>  <Dataset>  (1) 
ChEMBL_Kinases

>  <Ligand_Instance>  (1) 
nan

>  <PDB_ID>  (1) 
nan

>  <Standardized_SMILES>  (1) 
Cc1ccc(-c2cc(-c3ccc(C(=O)O)cc3)cnc2N)cc1

>  <Name>  (1) 
nan

>  <Pocket>  (1) 
nan

>  <ATP_Site>  (1) 
nan

>  <Peripheral>  (1) 
nan

>  <Num_H_Atoms_ProtBoundConf>  (1) 
nan

>  <Num_Resolved_Atoms>  (1) 
nan

>  <Num_Not_Resolved_Atoms>  (1) 
nan

$$$$
CHEMBL4740662
     RDKit          3D

  0  0  0  0  0  0  0  0  0  0999 V3000
M  V30 BEGIN CTAB
M  V30 COUNTS 50 53 0 0 0
M  V30 BEGIN ATOM
M  V30 1 N 6.300873 -2.782464 5.389818 0
M  V30 2 C 5.717593 -2.622385 4.411750 0
M  V30 3 C 4.974596 -2.439716 3.188408 0
M  V30 4 C 3.595649 -2.540876 3.151472 0
M  V30 5 N 2.945827 -2.359821 1.976079 0
M  V30 6 C 3.627705 -2.083961 0.850904 0
M  V30 7 N 2.970206 -1.888728 -0.393335 0
M  V30 8 C 1.559921 -1.972107 -0.549087 0
M  V30 9 C 0.710458 -0.898005 -0.384905 0
M  V30 10 C -0.660436 -0.915119 -0.523359 0
M  V30 11 N -1.487798 0.221554 -0.386941 0
M  V30 12 C -1.259326 1.583629 -0.037266 0
M  V30 13 C -0.961739 1.861336 1.398987 0 CFG=2
M  V30 14 C -0.746816 3.378972 1.508470 0
M  V30 15 N 0.587543 3.658875 1.076849 0
M  V30 16 C 1.559003 3.119957 2.010442 0
M  V30 17 C 0.885851 2.028940 2.805119 0
M  V30 18 O 0.135507 1.260650 1.934970 0
M  V30 19 C -1.195912 -2.140425 -0.858377 0
M  V30 20 C -2.616245 -2.411012 -1.032218 0
M  V30 21 C -3.667501 -2.127655 -0.187167 0
M  V30 22 C -4.962926 -2.428253 -0.488176 0
M  V30 23 C -5.267454 -3.052008 -1.699987 0
M  V30 24 F -6.579469 -3.313586 -1.916535 0
M  V30 25 C -4.233681 -3.349727 -2.569057 0
M  V30 26 C -2.924660 -3.033750 -2.240441 0
M  V30 27 C -0.374455 -3.228086 -1.029232 0
M  V30 28 N 0.958352 -3.152750 -0.880960 0
M  V30 29 C 5.000746 -1.984585 0.894653 0
M  V30 30 N 5.645357 -2.163127 2.055382 0
M  V30 31 H 3.029242 -2.765500 4.063229 0
M  V30 32 H 3.482015 -1.676141 -1.252372 0
M  V30 33 H 1.224841 -0.004111 -0.141669 0
M  V30 34 H -2.521299 0.067441 -0.588830 0
M  V30 35 H -0.360876 1.981405 -0.603821 0
M  V30 36 H -2.073221 2.270717 -0.341856 0
M  V30 37 H -1.825837 1.653418 2.069030 0
M  V30 38 H -1.454550 3.835687 0.788371 0
M  V30 39 H -0.986902 3.733001 2.529425 0
M  V30 40 H 0.758800 4.654748 0.848145 0
M  V30 41 H 1.968588 3.904175 2.684749 0
M  V30 42 H 2.440691 2.661028 1.505710 0
M  V30 43 H 1.692050 1.381174 3.206742 0
M  V30 44 H 0.318615 2.381922 3.677595 0
M  V30 45 H -3.388427 -1.654500 0.743590 0
M  V30 46 H -5.692207 -2.153073 0.259080 0
M  V30 47 H -4.580731 -3.825109 -3.463404 0
M  V30 48 H -2.256104 -3.345970 -3.049584 0
M  V30 49 H -0.745267 -4.199926 -1.290529 0
M  V30 50 H 5.635328 -1.767594 0.049404 0
M  V30 END ATOM
M  V30 BEGIN BOND
M  V30 1 3 1 2
M  V30 2 1 2 3
M  V30 3 2 3 4
M  V30 4 1 4 5
M  V30 5 2 5 6
M  V30 6 1 6 7
M  V30 7 1 7 8
M  V30 8 2 8 9
M  V30 9 1 9 10
M  V30 10 1 10 11
M  V30 11 1 11 12
M  V30 12 1 12 13
M  V30 13 1 13 14
M  V30 14 1 14 15
M  V30 15 1 15 16
M  V30 16 1 16 17
M  V30 17 1 17 18
M  V30 18 2 10 19
M  V30 19 1 19 20
M  V30 20 2 20 21
M  V30 21 1 21 22
M  V30 22 2 22 23
M  V30 23 1 23 24
M  V30 24 1 23 25
M  V30 25 2 25 26
M  V30 26 1 19 27
M  V30 27 2 27 28
M  V30 28 1 6 29
M  V30 29 2 29 30
M  V30 30 1 30 3
M  V30 31 1 28 8
M  V30 32 1 18 13
M  V30 33 1 26 20
M  V30 34 1 4 31
M  V30 35 1 7 32
M  V30 36 1 9 33
M  V30 37 1 11 34
M  V30 38 1 12 35
M  V30 39 1 12 36
M  V30 40 1 13 37 CFG=1
M  V30 41 1 14 38
M  V30 42 1 14 39
M  V30 43 1 15 40
M  V30 44 1 16 41
M  V30 45 1 16 42
M  V30 46 1 17 43
M  V30 47 1 17 44
M  V30 48 1 21 45
M  V30 49 1 22 46
M  V30 50 1 25 47
M  V30 51 1 26 48
M  V30 52 1 27 49
M  V30 53 1 29 50
M  V30 END BOND
M  V30 END CTAB
M  END
>  <Dataset>  (2) 
ChEMBL_Kinases

>  <Ligand_Instance>  (2) 
nan

>  <PDB_ID>  (2) 
nan

>  <Standardized_SMILES>  (2) 
N#Cc1cnc(Nc2cc(NC[C@@H]3CNCCO3)c(-c3ccc(F)cc3)cn2)cn1

>  <Name>  (2) 
nan

>  <Pocket>  (2) 
nan

>  <ATP_Site>  (2) 
nan

>  <Peripheral>  (2) 
nan

>  <Num_H_Atoms_ProtBoundConf>  (2) 
nan

>  <Num_Resolved_Atoms>  (2) 
nan

>  <Num_Not_Resolved_Atoms>  (2) 
nan

$$$$
CHEMBL4740663
     RDKit          3D

  0  0  0  0  0  0  0  0  0  0999 V3000
M  V30 BEGIN CTAB
M  V30 COUNTS 56 59 0 0 0
M  V30 BEGIN ATOM
M  V30 1 C 3.839400 -5.575757 4.829224 0
M  V30 2 C 4.724300 -4.660012 5.294387 0
M  V30 3 C 4.966685 -4.185130 3.947234 0
M  V30 4 O 4.303326 -4.804190 3.104557 0
M  V30 5 N 5.829098 -3.155862 3.550462 0
M  V30 6 C 6.238110 -2.509974 2.326535 0
M  V30 7 C 5.137259 -1.856481 1.605419 0
M  V30 8 N 5.027761 -0.524650 1.893934 0
M  V30 9 C 4.064989 0.255330 1.375016 0
M  V30 10 C 3.112939 -0.237921 0.507275 0
M  V30 11 C 2.068737 0.651269 -0.031887 0
M  V30 12 C 2.214830 1.990356 -0.301813 0
M  V30 13 C 1.095275 2.682292 -0.793659 0
M  V30 14 C -0.126848 2.025138 -1.001232 0
M  V30 15 C -1.108172 3.012476 -1.522758 0 CFG=2
M  V30 16 C -1.559869 3.806265 -0.295890 0
M  V30 17 C -2.257446 2.314878 -2.116538 0
M  V30 18 O -2.771381 2.104905 -3.256738 0
M  V30 19 N -3.044884 1.679400 -1.113589 0
M  V30 20 C -4.232267 0.892056 -1.130855 0
M  V30 21 C -4.271487 -0.492618 -1.239142 0
M  V30 22 C -5.587226 -0.954483 -1.226438 0
M  V30 23 C -6.058088 -2.362477 -1.319587 0
M  V30 24 C -7.428863 -2.629942 -1.772754 0
M  V30 25 C -7.089191 -2.746965 -0.311094 0
M  V30 26 N -6.287296 0.177321 -1.110763 0
M  V30 27 N -5.514259 1.254454 -1.054304 0
M  V30 28 C -0.209868 0.687149 -0.715440 0
M  V30 29 C 0.873376 -0.010212 -0.231235 0
M  V30 30 C 3.192435 -1.572393 0.193075 0
M  V30 31 C 4.192093 -2.349360 0.740810 0
M  V30 32 F 4.302442 -3.640691 0.421702 0
M  V30 33 H 3.131753 -6.322948 4.555505 0
M  V30 34 H 3.174212 -6.234188 4.292971 0
M  V30 35 H 4.835129 -4.699210 6.359929 0
M  V30 36 H 6.295471 -2.764713 4.430512 0
M  V30 37 H 6.703606 -3.335146 1.699976 0
M  V30 38 H 7.077260 -1.821161 2.497601 0
M  V30 39 H 4.000032 1.306052 1.617956 0
M  V30 40 H 3.172261 2.412527 -0.115297 0
M  V30 41 H 1.352580 3.737601 -0.965184 0
M  V30 42 H -0.619582 3.753732 -2.174135 0
M  V30 43 H -2.653439 4.060030 -0.362543 0
M  V30 44 H -1.022041 4.768993 -0.301649 0
M  V30 45 H -1.293695 3.302610 0.655649 0
M  V30 46 H -2.857976 1.697198 -0.064317 0
M  V30 47 H -3.380482 -1.115622 -1.322865 0
M  V30 48 H -5.280791 -3.118964 -1.491684 0
M  V30 49 H -8.082270 -1.801367 -2.092604 0
M  V30 50 H -7.636370 -3.575634 -2.344960 0
M  V30 51 H -7.062637 -3.742269 0.178426 0
M  V30 52 H -7.507477 -1.927354 0.335392 0
M  V30 53 H -7.348434 0.150396 -1.073265 0
M  V30 54 H -1.182260 0.273292 -0.914509 0
M  V30 55 H 0.689850 -1.055681 -0.043118 0
M  V30 56 H 2.482893 -2.018212 -0.478855 0
M  V30 END ATOM
M  V30 BEGIN BOND
M  V30 1 2 1 2
M  V30 2 1 2 3
M  V30 3 2 3 4
M  V30 4 1 3 5
M  V30 5 1 5 6
M  V30 6 1 6 7
M  V30 7 2 7 8
M  V30 8 1 8 9
M  V30 9 2 9 10
M  V30 10 1 10 11
M  V30 11 2 11 12
M  V30 12 1 12 13
M  V30 13 2 13 14
M  V30 14 1 14 15
M  V30 15 1 15 16
M  V30 16 1 15 17
M  V30 17 2 17 18
M  V30 18 1 17 19
M  V30 19 1 19 20
M  V30 20 1 20 21
M  V30 21 2 21 22
M  V30 22 1 22 23
M  V30 23 1 23 24
M  V30 24 1 24 25
M  V30 25 1 22 26
M  V30 26 1 26 27
M  V30 27 1 14 28
M  V30 28 2 28 29
M  V30 29 1 10 30
M  V30 30 2 30 31
M  V30 31 1 31 32
M  V30 32 1 31 7
M  V30 33 1 29 11
M  V30 34 2 27 20
M  V30 35 1 25 23
M  V30 36 1 1 33
M  V30 37 1 1 34
M  V30 38 1 2 35
M  V30 39 1 5 36
M  V30 40 1 6 37
M  V30 41 1 6 38
M  V30 42 1 9 39
M  V30 43 1 12 40
M  V30 44 1 13 41
M  V30 45 1 15 42 CFG=3
M  V30 46 1 16 43
M  V30 47 1 16 44
M  V30 48 1 16 45
M  V30 49 1 19 46
M  V30 50 1 21 47
M  V30 51 1 23 48
M  V30 52 1 24 49
M  V30 53 1 24 50
M  V30 54 1 25 51
M  V30 55 1 25 52
M  V30 56 1 26 53
M  V30 57 1 28 54
M  V30 58 1 29 55
M  V30 59 1 30 56
M  V30 END BOND
M  V30 END CTAB
M  END
>  <Dataset>  (3) 
ChEMBL_Kinases

>  <Ligand_Instance>  (3) 
nan

>  <PDB_ID>  (3) 
nan

>  <Standardized_SMILES>  (3) 
C=CC(=O)NCc1ncc(-c2ccc([C@H](C)C(=O)Nc3cc(C4CC4)[nH]n3)cc2)cc1F

>  <Name>  (3) 
nan

>  <Pocket>  (3) 
nan

>  <ATP_Site>  (3) 
nan

>  <Peripheral>  (3) 
nan

>  <Num_H_Atoms_ProtBoundConf>  (3) 
nan

>  <Num_Resolved_Atoms>  (3) 
nan

>  <Num_Not_Resolved_Atoms>  (3) 
nan

$$$$
CHEMBL4740741
     RDKit          3D

  0  0  0  0  0  0  0  0  0  0999 V3000
M  V30 BEGIN CTAB
M  V30 COUNTS 42 44 0 0 0
M  V30 BEGIN ATOM
M  V30 1 C 1.474380 -4.515044 2.963626 0
M  V30 2 C 1.878384 -3.437091 2.637661 0
M  V30 3 C 2.358585 -2.131077 2.263376 0
M  V30 4 C 3.536331 -1.588023 2.752627 0
M  V30 5 N 3.943143 -0.385457 2.374037 0
M  V30 6 C 3.253355 0.376068 1.506403 0
M  V30 7 N 3.688219 1.663717 1.084407 0
M  V30 8 C 2.913621 2.555697 0.249499 0
M  V30 9 C 2.612476 2.534401 -1.095606 0
M  V30 10 N 1.875326 3.545295 -1.573557 0
M  V30 11 C 1.465545 4.521192 -0.745298 0
M  V30 12 C 0.681556 5.581391 -1.297467 0
M  V30 13 N 0.027285 6.442076 -1.761779 0
M  V30 14 C 1.747646 4.573390 0.607417 0
M  V30 15 N 2.498056 3.539239 1.079592 0
M  V30 16 C 2.072079 -0.128212 0.992881 0
M  V30 17 C 1.605840 -1.402822 1.372170 0
M  V30 18 N 0.367358 -1.840273 0.811010 0
M  V30 19 C -0.465379 -1.169401 -0.140111 0
M  V30 20 C -1.796158 -1.803481 -0.416072 0 CFG=2
M  V30 21 C -2.857265 -1.560667 0.598937 0
M  V30 22 N -2.861136 -2.474873 1.675204 0
M  V30 23 C -2.595836 -3.830194 1.337884 0
M  V30 24 C -2.105200 -4.090657 -0.040112 0
M  V30 25 O -1.803519 -3.076756 -0.866190 0
M  V30 26 H 1.093507 -5.483271 3.261241 0
M  V30 27 H 4.140956 -2.164590 3.463162 0
M  V30 28 H 4.633750 2.072098 1.356572 0
M  V30 29 H 3.045065 1.657739 -1.550499 0
M  V30 30 H 1.379531 5.397955 1.224505 0
M  V30 31 H 1.524216 0.495052 0.294512 0
M  V30 32 H 0.070217 -2.780968 1.171123 0
M  V30 33 H 0.049915 -1.040670 -1.115195 0
M  V30 34 H -0.672137 -0.140914 0.214493 0
M  V30 35 H -2.171603 -1.186029 -1.334419 0
M  V30 36 H -2.903584 -0.531902 0.995112 0
M  V30 37 H -3.853553 -1.690555 0.074642 0
M  V30 38 H -2.494847 -2.157369 2.574962 0
M  V30 39 H -1.810708 -4.211384 2.045198 0
M  V30 40 H -3.502036 -4.426546 1.607679 0
M  V30 41 H -2.931996 -4.686118 -0.550618 0
M  V30 42 H -1.246492 -4.813510 -0.071296 0
M  V30 END ATOM
M  V30 BEGIN BOND
M  V30 1 3 1 2
M  V30 2 1 2 3
M  V30 3 2 3 4
M  V30 4 1 4 5
M  V30 5 2 5 6
M  V30 6 1 6 7
M  V30 7 1 7 8
M  V30 8 2 8 9
M  V30 9 1 9 10
M  V30 10 2 10 11
M  V30 11 1 11 12
M  V30 12 3 12 13
M  V30 13 1 11 14
M  V30 14 2 14 15
M  V30 15 1 6 16
M  V30 16 2 16 17
M  V30 17 1 17 18
M  V30 18 1 18 19
M  V30 19 1 19 20
M  V30 20 1 20 21
M  V30 21 1 21 22
M  V30 22 1 22 23
M  V30 23 1 23 24
M  V30 24 1 24 25
M  V30 25 1 17 3
M  V30 26 1 25 20
M  V30 27 1 15 8
M  V30 28 1 1 26
M  V30 29 1 4 27
M  V30 30 1 7 28
M  V30 31 1 9 29
M  V30 32 1 14 30
M  V30 33 1 16 31
M  V30 34 1 18 32
M  V30 35 1 19 33
M  V30 36 1 19 34
M  V30 37 1 20 35 CFG=3
M  V30 38 1 21 36
M  V30 39 1 21 37
M  V30 40 1 22 38
M  V30 41 1 23 39
M  V30 42 1 23 40
M  V30 43 1 24 41
M  V30 44 1 24 42
M  V30 END BOND
M  V30 END CTAB
M  END
>  <Dataset>  (4) 
ChEMBL_Kinases

>  <Ligand_Instance>  (4) 
nan

>  <PDB_ID>  (4) 
nan

>  <Standardized_SMILES>  (4) 
C#Cc1cnc(Nc2cnc(C#N)cn2)cc1NC[C@@H]1CNCCO1

>  <Name>  (4) 
nan

>  <Pocket>  (4) 
nan

>  <ATP_Site>  (4) 
nan

>  <Peripheral>  (4) 
nan

>  <Num_H_Atoms_ProtBoundConf>  (4) 
nan

>  <Num_Resolved_Atoms>  (4) 
nan

>  <Num_Not_Resolved_Atoms>  (4) 
nan

$$$$
CHEMBL4740761
     RDKit          3D

  0  0  0  0  0  0  0  0  0  0999 V3000
M  V30 BEGIN CTAB
M  V30 COUNTS 55 59 0 0 0
M  V30 BEGIN ATOM
M  V30 1 C -3.522911 -5.226797 -1.015407 0
M  V30 2 O -2.976057 -6.350727 -0.347149 0
M  V30 3 C -1.688734 -6.259670 0.163633 0
M  V30 4 C -0.881017 -5.146511 0.074204 0
M  V30 5 C 0.389200 -5.145849 0.612559 0
M  V30 6 C 1.256255 -3.975627 0.525969 0
M  V30 7 C 0.622271 -2.749602 0.538617 0
M  V30 8 N 1.398437 -1.660098 0.457180 0
M  V30 9 C 2.731889 -1.639423 0.364169 0
M  V30 10 C 3.571191 -0.596930 0.277421 0
M  V30 11 C 3.290092 0.883753 0.255507 0
M  V30 12 C 4.358222 1.757091 0.143462 0
M  V30 13 C 4.079355 3.126784 0.124313 0
M  V30 14 C 2.777842 3.534383 0.216090 0
M  V30 15 C 1.698908 2.693044 0.328102 0
M  V30 16 N 0.340438 3.077428 0.423433 0
M  V30 17 C -0.214126 4.371721 0.415492 0
M  V30 18 O 0.527828 5.353708 0.313878 0
M  V30 19 N -1.600038 4.656401 0.517464 0
M  V30 20 C -2.178824 5.982541 0.508374 0
M  V30 21 C -3.509912 5.859683 1.228991 0
M  V30 22 C -3.588333 4.409359 1.650084 0
M  V30 23 C -2.684394 3.732685 0.647248 0
M  V30 24 C 2.003869 1.364729 0.344034 0
M  V30 25 S 5.163187 -1.151616 0.179613 0
M  V30 26 N 4.731039 -2.971611 0.258031 0
M  V30 27 C 3.387511 -2.847870 0.349584 0
M  V30 28 C 2.632725 -4.003375 0.431413 0
M  V30 29 C 0.793583 -6.311198 1.236282 0
M  V30 30 C 0.034573 -7.458350 1.359654 0
M  V30 31 C -1.238306 -7.406325 0.799621 0
M  V30 32 N -2.042000 -8.575542 0.912406 0
M  V30 33 H -3.536170 -4.373275 -0.336272 0
M  V30 34 H -2.897784 -4.925158 -1.895857 0
M  V30 35 H -4.517518 -5.459403 -1.456676 0
M  V30 36 H -1.279937 -4.282459 -0.430171 0
M  V30 37 H -0.447321 -2.607884 0.609149 0
M  V30 38 H 5.392200 1.449609 0.070281 0
M  V30 39 H 4.907983 3.819912 0.036654 0
M  V30 40 H 2.642235 4.590375 0.195131 0
M  V30 41 H -0.400496 2.353837 0.514024 0
M  V30 42 H -1.512154 6.666354 1.084521 0
M  V30 43 H -2.324807 6.366816 -0.516008 0
M  V30 44 H -4.322865 6.001699 0.461036 0
M  V30 45 H -3.612903 6.551137 2.074569 0
M  V30 46 H -3.192839 4.331960 2.682176 0
M  V30 47 H -4.623361 4.014953 1.620635 0
M  V30 48 H -3.262087 3.625306 -0.292578 0
M  V30 49 H -2.346414 2.727326 1.025722 0
M  V30 50 H 1.191294 0.657262 0.431141 0
M  V30 51 H 2.985752 -5.028917 0.433293 0
M  V30 52 H 1.796956 -6.341726 1.673395 0
M  V30 53 H 0.410203 -8.325690 1.855319 0
M  V30 54 H -2.047766 -9.406429 0.273458 0
M  V30 55 H -2.720878 -8.672730 1.700036 0
M  V30 END ATOM
M  V30 BEGIN BOND
M  V30 1 1 1 2
M  V30 2 1 2 3
M  V30 3 2 3 4
M  V30 4 1 4 5
M  V30 5 1 5 6
M  V30 6 1 6 7
M  V30 7 2 7 8
M  V30 8 1 8 9
M  V30 9 2 9 10
M  V30 10 1 10 11
M  V30 11 2 11 12
M  V30 12 1 12 13
M  V30 13 2 13 14
M  V30 14 1 14 15
M  V30 15 1 15 16
M  V30 16 1 16 17
M  V30 17 2 17 18
M  V30 18 1 17 19
M  V30 19 1 19 20
M  V30 20 1 20 21
M  V30 21 1 21 22
M  V30 22 1 22 23
M  V30 23 2 15 24
M  V30 24 1 10 25
M  V30 25 1 25 26
M  V30 26 2 26 27
M  V30 27 1 27 28
M  V30 28 2 5 29
M  V30 29 1 29 30
M  V30 30 2 30 31
M  V30 31 1 31 32
M  V30 32 1 31 3
M  V30 33 2 28 6
M  V30 34 1 27 9
M  V30 35 1 24 11
M  V30 36 1 23 19
M  V30 37 1 1 33
M  V30 38 1 1 34
M  V30 39 1 1 35
M  V30 40 1 4 36
M  V30 41 1 7 37
M  V30 42 1 12 38
M  V30 43 1 13 39
M  V30 44 1 14 40
M  V30 45 1 16 41
M  V30 46 1 20 42
M  V30 47 1 20 43
M  V30 48 1 21 44
M  V30 49 1 21 45
M  V30 50 1 22 46
M  V30 51 1 22 47
M  V30 52 1 23 48
M  V30 53 1 23 49
M  V30 54 1 24 50
M  V30 55 1 28 51
M  V30 56 1 29 52
M  V30 57 1 30 53
M  V30 58 1 32 54
M  V30 59 1 32 55
M  V30 END BOND
M  V30 END CTAB
M  END
>  <Dataset>  (5) 
ChEMBL_Kinases

>  <Ligand_Instance>  (5) 
nan

>  <PDB_ID>  (5) 
nan

>  <Standardized_SMILES>  (5) 
COc1cc(-c2cnc3c(-c4cccc(NC(=O)N5CCCC5)c4)snc3c2)ccc1N

>  <Name>  (5) 
nan

>  <Pocket>  (5) 
nan

>  <ATP_Site>  (5) 
nan

>  <Peripheral>  (5) 
nan

>  <Num_H_Atoms_ProtBoundConf>  (5) 
nan

>  <Num_Resolved_Atoms>  (5) 
nan

>  <Num_Not_Resolved_Atoms>  (5) 
nan

$$$$
CHEMBL4740781
     RDKit          3D

  0  0  0  0  0  0  0  0  0  0999 V3000
M  V30 BEGIN CTAB
M  V30 COUNTS 36 38 0 0 0
M  V30 BEGIN ATOM
M  V30 1 N -1.805771 -3.787302 0.883249 0
M  V30 2 C -0.825032 -2.792075 0.732681 0
M  V30 3 N 0.359715 -3.269014 0.293518 0
M  V30 4 C 1.412917 -2.422219 0.098431 0
M  V30 5 C 1.169932 -1.088557 0.378665 0
M  V30 6 C 2.229834 -0.068418 0.206804 0
M  V30 7 C 2.259497 1.055817 1.033506 0
M  V30 8 C 3.278252 1.994388 0.833448 0
M  V30 9 C 4.231764 1.817108 -0.155300 0
M  V30 10 C 4.136807 0.681950 -0.931694 0
M  V30 11 C 5.160977 0.541147 -1.957609 0
M  V30 12 O 6.082540 1.373412 -2.149319 0
M  V30 13 O 5.349748 -0.464692 -2.894813 0
M  V30 14 C 3.167813 -0.269037 -0.785501 0
M  V30 15 C -0.046903 -0.602202 0.829343 0
M  V30 16 C -1.096216 -1.477814 1.018552 0
M  V30 17 C -2.405888 -1.038337 1.486842 0
M  V30 18 C -3.227679 -1.584055 2.431179 0
M  V30 19 C -4.441903 -1.000742 2.726830 0
M  V30 20 C -4.883256 0.147599 2.093390 0
M  V30 21 Cl -6.431610 0.800164 2.542328 0
M  V30 22 C -4.050667 0.696245 1.140016 0
M  V30 23 C -2.821328 0.123901 0.826338 0
M  V30 24 H -2.409899 -4.389965 1.495253 0
M  V30 25 H -2.340193 -4.345835 0.155891 0
M  V30 26 H 2.383997 -2.719436 -0.247249 0
M  V30 27 H 1.522091 1.206439 1.808190 0
M  V30 28 H 3.348240 2.893359 1.453463 0
M  V30 29 H 5.015654 2.554062 -0.298451 0
M  V30 30 H 5.371351 -0.270266 -3.908404 0
M  V30 31 H 3.188593 -1.119124 -1.449089 0
M  V30 32 H -0.208551 0.446775 1.040707 0
M  V30 33 H -2.820814 -2.477261 2.884718 0
M  V30 34 H -4.987534 -1.544439 3.497100 0
M  V30 35 H -4.394613 1.608761 0.632529 0
M  V30 36 H -2.258202 0.662795 0.049444 0
M  V30 END ATOM
M  V30 BEGIN BOND
M  V30 1 1 1 2
M  V30 2 2 2 3
M  V30 3 1 3 4
M  V30 4 2 4 5
M  V30 5 1 5 6
M  V30 6 2 6 7
M  V30 7 1 7 8
M  V30 8 2 8 9
M  V30 9 1 9 10
M  V30 10 1 10 11
M  V30 11 2 11 12
M  V30 12 1 11 13
M  V30 13 2 10 14
M  V30 14 1 5 15
M  V30 15 2 15 16
M  V30 16 1 16 17
M  V30 17 2 17 18
M  V30 18 1 18 19
M  V30 19 2 19 20
M  V30 20 1 20 21
M  V30 21 1 20 22
M  V30 22 2 22 23
M  V30 23 1 16 2
M  V30 24 1 23 17
M  V30 25 1 14 6
M  V30 26 1 1 24
M  V30 27 1 1 25
M  V30 28 1 4 26
M  V30 29 1 7 27
M  V30 30 1 8 28
M  V30 31 1 9 29
M  V30 32 1 13 30
M  V30 33 1 14 31
M  V30 34 1 15 32
M  V30 35 1 18 33
M  V30 36 1 19 34
M  V30 37 1 22 35
M  V30 38 1 23 36
M  V30 END BOND
M  V30 END CTAB
M  END
>  <Dataset>  (6) 
ChEMBL_Kinases

>  <Ligand_Instance>  (6) 
nan

>  <PDB_ID>  (6) 
nan

>  <Standardized_SMILES>  (6) 
Nc1ncc(-c2cccc(C(=O)O)c2)cc1-c1ccc(Cl)cc1

>  <Name>  (6) 
nan

>  <Pocket>  (6) 
nan

>  <ATP_Site>  (6) 
nan

>  <Peripheral>  (6) 
nan

>  <Num_H_Atoms_ProtBoundConf>  (6) 
nan

>  <Num_Resolved_Atoms>  (6) 
nan

>  <Num_Not_Resolved_Atoms>  (6) 
nan

$$$$
CHEMBL4740866
     RDKit          3D

  0  0  0  0  0  0  0  0  0  0999 V3000
M  V30 BEGIN CTAB
M  V30 COUNTS 37 40 0 0 0
M  V30 BEGIN ATOM
M  V30 1 N 1.677682 -5.846528 2.474481 0
M  V30 2 C 2.435360 -4.716775 2.818384 0
M  V30 3 O 3.127687 -4.767437 3.856399 0
M  V30 4 C 2.418763 -3.518892 1.993746 0
M  V30 5 C 3.185775 -2.436171 2.382887 0
M  V30 6 C 3.143731 -1.320025 1.575922 0
M  V30 7 C 2.366105 -1.279390 0.420594 0
M  V30 8 N 2.392961 -0.077649 -0.343667 0
M  V30 9 C 3.365998 0.576101 -1.031945 0
M  V30 10 N 2.829394 1.694164 -1.583330 0
M  V30 11 C 1.519766 1.763172 -1.254414 0
M  V30 12 C 0.603903 2.735686 -1.606323 0
M  V30 13 C -0.680904 2.565468 -1.133840 0
M  V30 14 C -1.020699 1.475855 -0.351179 0
M  V30 15 C -2.377494 1.268580 0.165117 0
M  V30 16 C -3.179276 2.233076 0.749126 0
M  V30 17 C -4.450558 1.884021 1.193163 0
M  V30 18 N -4.915218 0.631113 1.066718 0
M  V30 19 C -4.141009 -0.311664 0.499856 0
M  V30 20 C -2.865599 -0.020595 0.039210 0
M  V30 21 C -0.056258 0.518520 -0.022641 0
M  V30 22 F -0.379383 -0.546036 0.739510 0
M  V30 23 C 1.256048 0.646547 -0.476379 0
M  V30 24 N 1.628216 -2.368034 0.077666 0
M  V30 25 C 1.646572 -3.481424 0.848424 0
M  V30 26 H 1.705414 -6.786001 1.982494 0
M  V30 27 H 0.660922 -5.881442 2.774959 0
M  V30 28 H 3.770418 -2.524835 3.290348 0
M  V30 29 H 3.742392 -0.467309 1.874551 0
M  V30 30 H 4.352057 0.129743 -1.031277 0
M  V30 31 H 0.906865 3.571917 -2.218967 0
M  V30 32 H -1.443800 3.309575 -1.385432 0
M  V30 33 H -2.736792 3.215323 0.815434 0
M  V30 34 H -5.001936 2.719845 1.639058 0
M  V30 35 H -4.589850 -1.306109 0.433095 0
M  V30 36 H -2.348730 -0.878464 -0.397861 0
M  V30 37 H 1.049123 -4.360348 0.569084 0
M  V30 END ATOM
M  V30 BEGIN BOND
M  V30 1 1 1 2
M  V30 2 2 2 3
M  V30 3 1 2 4
M  V30 4 2 4 5
M  V30 5 1 5 6
M  V30 6 2 6 7
M  V30 7 1 7 8
M  V30 8 1 8 9
M  V30 9 2 9 10
M  V30 10 1 10 11
M  V30 11 2 11 12
M  V30 12 1 12 13
M  V30 13 2 13 14
M  V30 14 1 14 15
M  V30 15 2 15 16
M  V30 16 1 16 17
M  V30 17 2 17 18
M  V30 18 1 18 19
M  V30 19 2 19 20
M  V30 20 1 14 21
M  V30 21 1 21 22
M  V30 22 2 21 23
M  V30 23 1 7 24
M  V30 24 2 24 25
M  V30 25 1 25 4
M  V30 26 1 23 8
M  V30 27 1 23 11
M  V30 28 1 20 15
M  V30 29 1 1 26
M  V30 30 1 1 27
M  V30 31 1 5 28
M  V30 32 1 6 29
M  V30 33 1 9 30
M  V30 34 1 12 31
M  V30 35 1 13 32
M  V30 36 1 16 33
M  V30 37 1 17 34
M  V30 38 1 19 35
M  V30 39 1 20 36
M  V30 40 1 25 37
M  V30 END BOND
M  V30 END CTAB
M  END
>  <Dataset>  (7) 
ChEMBL_Kinases

>  <Ligand_Instance>  (7) 
nan

>  <PDB_ID>  (7) 
nan

>  <Standardized_SMILES>  (7) 
NC(=O)c1ccc(-n2cnc3ccc(-c4ccncc4)c(F)c32)nc1

>  <Name>  (7) 
nan

>  <Pocket>  (7) 
nan

>  <ATP_Site>  (7) 
nan

>  <Peripheral>  (7) 
nan

>  <Num_H_Atoms_ProtBoundConf>  (7) 
nan

>  <Num_Resolved_Atoms>  (7) 
nan

>  <Num_Not_Resolved_Atoms>  (7) 
nan

$$$$
CHEMBL4740867
     RDKit          3D

  0  0  0  0  0  0  0  0  0  0999 V3000
M  V30 BEGIN CTAB
M  V30 COUNTS 43 45 0 0 0
M  V30 BEGIN ATOM
M  V30 1 C -1.706985 -5.714676 -0.176104 0
M  V30 2 C -1.932766 -4.296883 0.253789 0
M  V30 3 C -2.880037 -4.058850 1.229900 0
M  V30 4 C -3.077086 -2.733260 1.617888 0
M  V30 5 C -2.335035 -1.754162 1.022164 0
M  V30 6 C -1.402814 -2.044729 0.053399 0
M  V30 7 C -1.157538 -3.347765 -0.379254 0
M  V30 8 C -0.689186 -1.019730 -0.507385 0
M  V30 9 O 0.155540 -1.294694 -1.389884 0
M  V30 10 N -0.821731 0.264230 -0.188832 0
M  V30 11 C -0.115133 1.402969 -0.705178 0
M  V30 12 C 1.098330 1.813937 0.044083 0
M  V30 13 C 2.175541 0.830434 0.154161 0
M  V30 14 O 2.703553 -0.290050 -0.056868 0
M  V30 15 N 3.214076 1.478079 0.922692 0
M  V30 16 C 4.505293 1.007658 1.348704 0
M  V30 17 C 4.552727 0.849758 2.866684 0
M  V30 18 C 5.672496 1.772403 0.799420 0
M  V30 19 C -1.755824 0.505260 0.774220 0
M  V30 20 N -2.155485 1.681619 1.341853 0
M  V30 21 N -3.094035 1.437906 2.239055 0
M  V30 22 C -3.294744 0.109005 2.245828 0
M  V30 23 S -4.415954 -0.464004 3.276769 0
M  V30 24 N -2.479735 -0.465918 1.352702 0
M  V30 25 H -2.189150 -6.442599 0.476727 0
M  V30 26 H -2.109667 -5.866890 -1.214829 0
M  V30 27 H -0.627446 -5.921682 -0.262048 0
M  V30 28 H -3.420935 -4.870283 1.649971 0
M  V30 29 H -3.806668 -2.599926 2.362451 0
M  V30 30 H -0.442412 -3.591261 -1.125402 0
M  V30 31 H -0.811049 2.292762 -0.687882 0
M  V30 32 H 0.155413 1.208375 -1.765871 0
M  V30 33 H 1.469982 2.755047 -0.452448 0
M  V30 34 H 0.738601 2.122627 1.071884 0
M  V30 35 H 3.303364 2.447511 1.367249 0
M  V30 36 H 4.627198 -0.028499 0.968513 0
M  V30 37 H 5.387825 0.157420 3.086164 0
M  V30 38 H 4.783308 1.811371 3.364721 0
M  V30 39 H 3.613245 0.389317 3.173423 0
M  V30 40 H 5.495275 2.839962 0.633704 0
M  V30 41 H 6.526285 1.671599 1.502238 0
M  V30 42 H 6.025581 1.335588 -0.165707 0
M  V30 43 H -3.507251 2.241643 2.766126 0
M  V30 END ATOM
M  V30 BEGIN BOND
M  V30 1 1 1 2
M  V30 2 2 2 3
M  V30 3 1 3 4
M  V30 4 2 4 5
M  V30 5 1 5 6
M  V30 6 2 6 7
M  V30 7 1 6 8
M  V30 8 2 8 9
M  V30 9 1 8 10
M  V30 10 1 10 11
M  V30 11 1 11 12
M  V30 12 1 12 13
M  V30 13 2 13 14
M  V30 14 1 13 15
M  V30 15 1 15 16
M  V30 16 1 16 17
M  V30 17 1 16 18
M  V30 18 1 10 19
M  V30 19 2 19 20
M  V30 20 1 20 21
M  V30 21 1 21 22
M  V30 22 2 22 23
M  V30 23 1 22 24
M  V30 24 1 7 2
M  V30 25 1 24 19
M  V30 26 1 24 5
M  V30 27 1 1 25
M  V30 28 1 1 26
M  V30 29 1 1 27
M  V30 30 1 3 28
M  V30 31 1 4 29
M  V30 32 1 7 30
M  V30 33 1 11 31
M  V30 34 1 11 32
M  V30 35 1 12 33
M  V30 36 1 12 34
M  V30 37 1 15 35
M  V30 38 1 16 36
M  V30 39 1 17 37
M  V30 40 1 17 38
M  V30 41 1 17 39
M  V30 42 1 18 40
M  V30 43 1 18 41
M  V30 44 1 18 42
M  V30 45 1 21 43
M  V30 END BOND
M  V30 END CTAB
M  END
>  <Dataset>  (8) 
ChEMBL_Kinases

>  <Ligand_Instance>  (8) 
nan

>  <PDB_ID>  (8) 
nan

>  <Standardized_SMILES>  (8) 
Cc1ccc2c(c1)c(=O)n(CCC(=O)NC(C)C)c1n[nH]c(=S)n21

>  <Name>  (8) 
nan

>  <Pocket>  (8) 
nan

>  <ATP_Site>  (8) 
nan

>  <Peripheral>  (8) 
nan

>  <Num_H_Atoms_ProtBoundConf>  (8) 
nan

>  <Num_Resolved_Atoms>  (8) 
nan

>  <Num_Not_Resolved_Atoms>  (8) 
nan

$$$$
CHEMBL4740879
     RDKit          3D

  0  0  0  0  0  0  0  0  0  0999 V3000
M  V30 BEGIN CTAB
M  V30 COUNTS 61 67 0 0 0
M  V30 BEGIN ATOM
M  V30 1 O 1.931505 0.668116 4.152613 0
M  V30 2 C 2.814596 0.765208 3.265745 0
M  V30 3 C 3.472962 -0.416652 3.924226 0
M  V30 4 C 2.651795 -0.829853 5.087286 0
M  V30 5 C 2.810453 -0.347176 6.366006 0
M  V30 6 C 2.009964 -0.769340 7.427544 0
M  V30 7 C 1.026370 -1.707286 7.166954 0
M  V30 8 C 0.801299 -2.241943 5.913024 0
M  V30 9 C 1.642652 -1.760163 4.939436 0
M  V30 10 N 3.235365 1.479686 2.140167 0
M  V30 11 C 2.258382 2.518630 1.915113 0
M  V30 12 C 2.429127 3.767523 2.522073 0
M  V30 13 N 1.479170 4.682400 2.267086 0
M  V30 14 C 0.415233 4.443026 1.479691 0
M  V30 15 C 0.226979 3.220610 0.871829 0
M  V30 16 C -0.897716 2.882274 0.007108 0
M  V30 17 C -1.910090 3.767696 -0.296706 0
M  V30 18 C -2.991722 3.492166 -1.107339 0
M  V30 19 C -3.074870 2.228892 -1.664026 0
M  V30 20 N -3.945645 1.603292 -2.477362 0
M  V30 21 N -3.522667 0.368494 -2.694736 0
M  V30 22 C -2.353452 0.159239 -2.020295 0
M  V30 23 C -1.524948 -1.050130 -1.965121 0
M  V30 24 N -1.836059 -2.206370 -2.627363 0
M  V30 25 C -0.869088 -3.126274 -2.367153 0
M  V30 26 C -0.698816 -4.451713 -2.784894 0
M  V30 27 C -1.746503 -4.975713 -3.672060 0
M  V30 28 C -2.269953 -4.290415 -4.749762 0
M  V30 29 C -3.255872 -4.900991 -5.505483 0
M  V30 30 N -3.719852 -6.124968 -5.233425 0
M  V30 31 C -3.240057 -6.819571 -4.201055 0
M  V30 32 C -2.244280 -6.256035 -3.402119 0
M  V30 33 C 0.403502 -5.161344 -2.353311 0
M  V30 34 C 1.316132 -4.523673 -1.507868 0
M  V30 35 N 1.111410 -3.232136 -1.125911 0
M  V30 36 C 0.048576 -2.525848 -1.533208 0
M  V30 37 N -0.371504 -1.245874 -1.295590 0
M  V30 38 C -2.047365 1.333808 -1.354341 0
M  V30 39 N -1.029101 1.651373 -0.567977 0
M  V30 40 C 1.174331 2.245410 1.101140 0
M  V30 41 H 4.512866 -0.156069 4.238175 0
M  V30 42 H 3.550720 -1.207500 3.169622 0
M  V30 43 H 3.599019 0.390889 6.522565 0
M  V30 44 H 2.160518 -0.368707 8.426030 0
M  V30 45 H 0.415599 -2.016251 8.025462 0
M  V30 46 H 0.043877 -2.961424 5.722974 0
M  V30 47 H 1.501449 -2.156994 3.924415 0
M  V30 48 H 4.122255 1.119181 1.731373 0
M  V30 49 H 3.287264 3.955304 3.155075 0
M  V30 50 H -0.305669 5.205026 1.313214 0
M  V30 51 H -1.892547 4.768112 0.112724 0
M  V30 52 H -3.766931 4.215459 -1.322047 0
M  V30 53 H -4.801239 2.075843 -2.843793 0
M  V30 54 H -1.878898 -3.294974 -4.954850 0
M  V30 55 H -3.669963 -4.370528 -6.350309 0
M  V30 56 H -3.624615 -7.816121 -3.987486 0
M  V30 57 H -1.849119 -6.816973 -2.559231 0
M  V30 58 H 0.500131 -6.181699 -2.697321 0
M  V30 59 H 2.181374 -5.093911 -1.174472 0
M  V30 60 H 0.100503 -0.541218 -0.709120 0
M  V30 61 H 1.075347 1.277566 0.652494 0
M  V30 END ATOM
M  V30 BEGIN BOND
M  V30 1 2 1 2
M  V30 2 1 2 3
M  V30 3 1 3 4
M  V30 4 2 4 5
M  V30 5 1 5 6
M  V30 6 2 6 7
M  V30 7 1 7 8
M  V30 8 2 8 9
M  V30 9 1 2 10
M  V30 10 1 10 11
M  V30 11 2 11 12
M  V30 12 1 12 13
M  V30 13 2 13 14
M  V30 14 1 14 15
M  V30 15 1 15 16
M  V30 16 2 16 17
M  V30 17 1 17 18
M  V30 18 2 18 19
M  V30 19 1 19 20
M  V30 20 1 20 21
M  V30 21 2 21 22
M  V30 22 1 22 23
M  V30 23 2 23 24
M  V30 24 1 24 25
M  V30 25 2 25 26
M  V30 26 1 26 27
M  V30 27 2 27 28
M  V30 28 1 28 29
M  V30 29 2 29 30
M  V30 30 1 30 31
M  V30 31 2 31 32
M  V30 32 1 26 33
M  V30 33 2 33 34
M  V30 34 1 34 35
M  V30 35 2 35 36
M  V30 36 1 36 37
M  V30 37 1 22 38
M  V30 38 2 38 39
M  V30 39 2 15 40
M  V30 40 1 9 4
M  V30 41 1 40 11
M  V30 42 1 39 16
M  V30 43 1 38 19
M  V30 44 1 37 23
M  V30 45 1 36 25
M  V30 46 1 32 27
M  V30 47 1 3 41
M  V30 48 1 3 42
M  V30 49 1 5 43
M  V30 50 1 6 44
M  V30 51 1 7 45
M  V30 52 1 8 46
M  V30 53 1 9 47
M  V30 54 1 10 48
M  V30 55 1 12 49
M  V30 56 1 14 50
M  V30 57 1 17 51
M  V30 58 1 18 52
M  V30 59 1 20 53
M  V30 60 1 28 54
M  V30 61 1 29 55
M  V30 62 1 31 56
M  V30 63 1 32 57
M  V30 64 1 33 58
M  V30 65 1 34 59
M  V30 66 1 37 60
M  V30 67 1 40 61
M  V30 END BOND
M  V30 END CTAB
M  END
>  <Dataset>  (9) 
ChEMBL_Kinases

>  <Ligand_Instance>  (9) 
nan

>  <PDB_ID>  (9) 
nan

>  <Standardized_SMILES>  (9) 
O=C(Cc1ccccc1)Nc1cncc(-c2ccc3[nH]nc(-c4nc5c(-c6ccncc6)ccnc5[nH]4)c3n2)c1

>  <Name>  (9) 
nan

>  <Pocket>  (9) 
nan

>  <ATP_Site>  (9) 
nan

>  <Peripheral>  (9) 
nan

>  <Num_H_Atoms_ProtBoundConf>  (9) 
nan

>  <Num_Resolved_Atoms>  (9) 
nan

>  <Num_Not_Resolved_Atoms>  (9) 
nan

$$$$
CHEMBL4740899
     RDKit          3D

  0  0  0  0  0  0  0  0  0  0999 V3000
M  V30 BEGIN CTAB
M  V30 COUNTS 79 84 0 0 0
M  V30 BEGIN ATOM
M  V30 1 C 6.824567 -4.403934 1.492466 0
M  V30 2 C 5.621446 -3.451184 1.420980 0
M  V30 3 C 4.894057 -3.787697 0.144354 0 CFG=2
M  V30 4 C 5.751151 -3.621325 -1.038865 0
M  V30 5 N 7.005560 -4.117402 -1.073698 0
M  V30 6 N 7.558739 -3.881288 -2.245739 0
M  V30 7 C 6.682677 -3.230852 -2.994581 0
M  V30 8 N 5.572913 -3.070308 -2.252940 0
M  V30 9 C 4.284045 -2.450758 -2.385859 0
M  V30 10 C 4.055728 -1.897166 -3.632795 0
M  V30 11 N 2.860347 -1.322610 -3.806597 0
M  V30 12 C 1.936233 -1.295452 -2.804046 0
M  V30 13 N 0.731316 -0.617552 -3.122416 0
M  V30 14 C -0.540663 -0.621518 -2.509332 0
M  V30 15 C -0.819582 -1.599570 -1.576717 0
M  V30 16 C -2.009997 -1.775427 -0.908809 0
M  V30 17 C -3.021463 -0.896844 -1.190219 0
M  V30 18 C -4.400060 -0.875079 -0.651737 0
M  V30 19 O -4.926084 -2.033484 -0.564141 0
M  V30 20 N -4.950882 0.382768 -0.300998 0
M  V30 21 C -6.312716 0.326016 0.219335 0
M  V30 22 C -7.041572 1.551911 -0.138371 0
M  V30 23 C -7.529610 2.387589 1.026134 0
M  V30 24 N -6.456440 2.379268 1.993057 0
M  V30 25 C -6.559505 3.424829 2.975671 0
M  V30 26 C -6.306745 1.084466 2.623767 0
M  V30 27 C -6.301890 -0.047956 1.689720 0
M  V30 28 C -2.790854 0.096690 -2.115257 0
M  V30 29 C -1.603581 0.251730 -2.767494 0
M  V30 30 O -1.306811 1.230655 -3.714907 0
M  V30 31 C -2.326592 2.176580 -4.058261 0
M  V30 32 N 2.218946 -1.846387 -1.622403 0
M  V30 33 C 3.370275 -2.435449 -1.350141 0
M  V30 34 N 3.665974 -3.037138 -0.058436 0
M  V30 35 C 2.747706 -2.870054 1.052618 0
M  V30 36 C 2.610649 -1.524439 1.592584 0
M  V30 37 C 1.673658 -0.574534 1.233097 0
M  V30 38 C 1.551084 0.696805 1.755553 0
M  V30 39 C 2.426962 1.116652 2.740908 0
M  V30 40 C 3.394584 0.200715 3.144924 0
M  V30 41 C 4.277065 0.754051 4.218973 0
M  V30 42 F 5.123527 -0.216520 4.678820 0
M  V30 43 F 3.457361 1.235526 5.232067 0
M  V30 44 F 5.012458 1.768665 3.645636 0
M  V30 45 C 3.444311 -1.039121 2.574516 0
M  V30 46 H 7.734250 -3.885161 1.173666 0
M  V30 47 H 7.002622 -4.751998 2.534192 0
M  V30 48 H 6.622878 -5.335672 0.918334 0
M  V30 49 H 5.936631 -2.404323 1.444147 0
M  V30 50 H 5.026342 -3.697876 2.321754 0
M  V30 51 H 4.589744 -4.871932 0.156430 0
M  V30 52 H 6.741706 -2.853731 -4.016476 0
M  V30 53 H 4.785886 -1.918554 -4.428255 0
M  V30 54 H 0.698808 0.027408 -3.961834 0
M  V30 55 H -0.072793 -2.345050 -1.287825 0
M  V30 56 H -2.257176 -2.527285 -0.176699 0
M  V30 57 H -4.351252 1.242383 -0.438052 0
M  V30 58 H -6.800843 -0.558116 -0.271716 0
M  V30 59 H -7.921694 1.392131 -0.808059 0
M  V30 60 H -6.379268 2.244148 -0.738332 0
M  V30 61 H -8.473737 1.932094 1.399283 0
M  V30 62 H -7.661299 3.432383 0.687223 0
M  V30 63 H -5.765199 4.176005 2.750919 0
M  V30 64 H -7.510950 3.984818 2.885372 0
M  V30 65 H -6.364055 3.069340 4.010339 0
M  V30 66 H -7.175311 1.022165 3.341637 0
M  V30 67 H -5.419705 1.145424 3.282380 0
M  V30 68 H -7.164501 -0.733450 1.919590 0
M  V30 69 H -5.396277 -0.673572 1.845239 0
M  V30 70 H -3.503057 0.867313 -2.439508 0
M  V30 71 H -2.588963 2.766220 -3.169259 0
M  V30 72 H -3.234440 1.577799 -4.343110 0
M  V30 73 H -2.032310 2.798607 -4.913885 0
M  V30 74 H 3.089496 -3.523891 1.879911 0
M  V30 75 H 1.733194 -3.219932 0.700441 0
M  V30 76 H 0.932771 -0.797643 0.490663 0
M  V30 77 H 0.786397 1.391760 1.421258 0
M  V30 78 H 2.312988 2.109349 3.130894 0
M  V30 79 H 4.251274 -1.581310 3.032718 0
M  V30 END ATOM
M  V30 BEGIN BOND
M  V30 1 1 1 2
M  V30 2 1 2 3
M  V30 3 1 3 4
M  V30 4 2 4 5
M  V30 5 1 5 6
M  V30 6 2 6 7
M  V30 7 1 7 8
M  V30 8 1 8 9
M  V30 9 2 9 10
M  V30 10 1 10 11
M  V30 11 2 11 12
M  V30 12 1 12 13
M  V30 13 1 13 14
M  V30 14 2 14 15
M  V30 15 1 15 16
M  V30 16 2 16 17
M  V30 17 1 17 18
M  V30 18 2 18 19
M  V30 19 1 18 20
M  V30 20 1 20 21
M  V30 21 1 21 22
M  V30 22 1 22 23
M  V30 23 1 23 24
M  V30 24 1 24 25
M  V30 25 1 24 26
M  V30 26 1 26 27
M  V30 27 1 17 28
M  V30 28 2 28 29
M  V30 29 1 29 30
M  V30 30 1 30 31
M  V30 31 1 12 32
M  V30 32 2 32 33
M  V30 33 1 33 34
M  V30 34 1 34 35
M  V30 35 1 35 36
M  V30 36 2 36 37
M  V30 37 1 37 38
M  V30 38 2 38 39
M  V30 39 1 39 40
M  V30 40 1 40 41
M  V30 41 1 41 42
M  V30 42 1 41 43
M  V30 43 1 41 44
M  V30 44 2 40 45
M  V30 45 1 34 3
M  V30 46 1 45 36
M  V30 47 1 8 4
M  V30 48 1 33 9
M  V30 49 1 29 14
M  V30 50 1 27 21
M  V30 51 1 1 46
M  V30 52 1 1 47
M  V30 53 1 1 48
M  V30 54 1 2 49
M  V30 55 1 2 50
M  V30 56 1 3 51 CFG=1
M  V30 57 1 7 52
M  V30 58 1 10 53
M  V30 59 1 13 54
M  V30 60 1 15 55
M  V30 61 1 16 56
M  V30 62 1 20 57
M  V30 63 1 21 58
M  V30 64 1 22 59
M  V30 65 1 22 60
M  V30 66 1 23 61
M  V30 67 1 23 62
M  V30 68 1 25 63
M  V30 69 1 25 64
M  V30 70 1 25 65
M  V30 71 1 26 66
M  V30 72 1 26 67
M  V30 73 1 27 68
M  V30 74 1 27 69
M  V30 75 1 28 70
M  V30 76 1 31 71
M  V30 77 1 31 72
M  V30 78 1 31 73
M  V30 79 1 35 74
M  V30 80 1 35 75
M  V30 81 1 37 76
M  V30 82 1 38 77
M  V30 83 1 39 78
M  V30 84 1 45 79
M  V30 END BOND
M  V30 END CTAB
M  END
>  <Dataset>  (10) 
ChEMBL_Kinases

>  <Ligand_Instance>  (10) 
nan

>  <PDB_ID>  (10) 
nan

>  <Standardized_SMILES>  (10) 
CC[C@@H]1c2nncn2-c2cnc(Nc3ccc(C(=O)NC4CCN(C)CC4)cc3OC)nc2N1Cc1cccc(C(F)(F)F)c1

>  <Name>  (10) 
nan

>  <Pocket>  (10) 
nan

>  <ATP_Site>  (10) 
nan

>  <Peripheral>  (10) 
nan

>  <Num_H_Atoms_ProtBoundConf>  (10) 
nan

>  <Num_Resolved_Atoms>  (10) 
nan

>  <Num_Not_Resolved_Atoms>  (10) 
nan

$$$$
CHEMBL4740978
     RDKit          3D

  0  0  0  0  0  0  0  0  0  0999 V3000
M  V30 BEGIN CTAB
M  V30 COUNTS 27 29 0 0 0
M  V30 BEGIN ATOM
M  V30 1 O -1.091338 -3.648286 0.905660 0
M  V30 2 C -0.800190 -2.424470 0.835499 0
M  V30 3 C 0.506275 -2.006472 0.705811 0
M  V30 4 O 1.451150 -2.984902 0.658759 0
M  V30 5 C 0.898645 -0.704697 0.623938 0
M  V30 6 C 2.238333 -0.173921 0.487216 0
M  V30 7 C 2.392141 1.196423 0.423737 0
M  V30 8 C 3.635832 1.796191 0.292902 0
M  V30 9 N 4.761174 1.063387 0.221059 0
M  V30 10 C 4.660425 -0.261022 0.278215 0
M  V30 11 C 3.425937 -0.852438 0.407940 0
M  V30 12 O -0.087036 0.164441 0.678559 0
M  V30 13 C -1.341844 -0.189833 0.801397 0
M  V30 14 C -2.279771 0.843729 0.845829 0
M  V30 15 C -3.634898 0.530647 0.975948 0
M  V30 16 C -4.064829 -0.777888 1.061355 0
M  V30 17 Cl -5.768248 -1.149816 1.224104 0
M  V30 18 C -3.141650 -1.802223 1.017876 0
M  V30 19 C -1.805712 -1.485571 0.889311 0
M  V30 20 H 1.373381 -3.665947 -0.112451 0
M  V30 21 H 1.557147 1.886328 0.471714 0
M  V30 22 H 3.731528 2.872611 0.245237 0
M  V30 23 H 5.554141 -0.861596 0.221836 0
M  V30 24 H 3.406938 -1.906323 0.448067 0
M  V30 25 H -1.972744 1.886752 0.780883 0
M  V30 26 H -4.331729 1.367256 1.006448 0
M  V30 27 H -3.427398 -2.856724 1.081385 0
M  V30 END ATOM
M  V30 BEGIN BOND
M  V30 1 2 1 2
M  V30 2 1 2 3
M  V30 3 1 3 4
M  V30 4 2 3 5
M  V30 5 1 5 6
M  V30 6 2 6 7
M  V30 7 1 7 8
M  V30 8 2 8 9
M  V30 9 1 9 10
M  V30 10 2 10 11
M  V30 11 1 5 12
M  V30 12 1 12 13
M  V30 13 2 13 14
M  V30 14 1 14 15
M  V30 15 2 15 16
M  V30 16 1 16 17
M  V30 17 1 16 18
M  V30 18 2 18 19
M  V30 19 1 19 2
M  V30 20 1 11 6
M  V30 21 1 19 13
M  V30 22 1 4 20
M  V30 23 1 7 21
M  V30 24 1 8 22
M  V30 25 1 10 23
M  V30 26 1 11 24
M  V30 27 1 14 25
M  V30 28 1 15 26
M  V30 29 1 18 27
M  V30 END BOND
M  V30 END CTAB
M  END
>  <Dataset>  (11) 
ChEMBL_Kinases

>  <Ligand_Instance>  (11) 
nan

>  <PDB_ID>  (11) 
nan

>  <Standardized_SMILES>  (11) 
O=c1c(O)c(-c2ccncc2)oc2ccc(Cl)cc12

>  <Name>  (11) 
nan

>  <Pocket>  (11) 
nan

>  <ATP_Site>  (11) 
nan

>  <Peripheral>  (11) 
nan

>  <Num_H_Atoms_ProtBoundConf>  (11) 
nan

>  <Num_Resolved_Atoms>  (11) 
nan

>  <Num_Not_Resolved_Atoms>  (11) 
nan

$$$$
CHEMBL4741003
     RDKit          3D

  0  0  0  0  0  0  0  0  0  0999 V3000
M  V30 BEGIN CTAB
M  V30 COUNTS 44 47 0 0 0
M  V30 BEGIN ATOM
M  V30 1 C 1.201530 -3.089170 3.768686 0
M  V30 2 C 1.721581 -2.152103 2.725783 0
M  V30 3 C 3.068090 -2.312789 2.459256 0
M  V30 4 C 3.679352 -1.495762 1.501056 0
M  V30 5 C 2.921722 -0.547672 0.844193 0
M  V30 6 C 3.617943 0.275249 -0.145946 0
M  V30 7 O 4.843989 0.067201 -0.331405 0
M  V30 8 N 2.990336 1.296186 -0.910815 0
M  V30 9 C 3.704587 2.090646 -1.879808 0
M  V30 10 C 3.436448 3.606202 -1.727841 0
M  V30 11 C 3.021456 2.815017 -2.956575 0
M  V30 12 C 1.577687 -0.389178 1.112023 0
M  V30 13 C 0.979347 -1.196072 2.056674 0
M  V30 14 N -0.399215 -1.119779 2.412465 0
M  V30 15 C -0.691171 -0.824108 3.700472 0
M  V30 16 C -1.992302 -0.728422 4.139597 0
M  V30 17 N -2.984961 -0.936094 3.257006 0
M  V30 18 C -2.704236 -1.235155 1.954279 0
M  V30 19 N -3.801425 -1.442972 1.079476 0
M  V30 20 C -3.834357 -1.763268 -0.330107 0
M  V30 21 C -3.200225 -0.752373 -1.240648 0
M  V30 22 C -4.695150 -0.969752 -1.252639 0
M  V30 23 C -1.397589 -1.327599 1.529353 0
M  V30 24 O -1.112315 -1.601837 0.335348 0
M  V30 25 H 0.110617 -3.154153 3.640123 0
M  V30 26 H 1.683104 -4.102546 3.656702 0
M  V30 27 H 1.516701 -2.735687 4.772674 0
M  V30 28 H 3.701880 -3.057782 2.963451 0
M  V30 29 H 4.747032 -1.654526 1.319125 0
M  V30 30 H 1.973658 1.481271 -0.768794 0
M  V30 31 H 4.792711 1.880232 -2.020053 0
M  V30 32 H 2.570291 3.917038 -1.106645 0
M  V30 33 H 4.284540 4.301790 -1.778549 0
M  V30 34 H 3.611806 3.079612 -3.850067 0
M  V30 35 H 1.945614 2.698286 -3.185346 0
M  V30 36 H 0.993497 0.340567 0.606787 0
M  V30 37 H 0.091223 -0.649301 4.444183 0
M  V30 38 H -2.262522 -0.492869 5.166600 0
M  V30 39 H -4.783481 -1.377959 1.402369 0
M  V30 40 H -3.634386 -2.842460 -0.592692 0
M  V30 41 H -2.611079 -1.110545 -2.126688 0
M  V30 42 H -2.840466 0.207740 -0.818888 0
M  V30 43 H -5.345386 -0.173039 -0.808807 0
M  V30 44 H -5.098588 -1.492886 -2.137783 0
M  V30 END ATOM
M  V30 BEGIN BOND
M  V30 1 1 1 2
M  V30 2 2 2 3
M  V30 3 1 3 4
M  V30 4 2 4 5
M  V30 5 1 5 6
M  V30 6 2 6 7
M  V30 7 1 6 8
M  V30 8 1 8 9
M  V30 9 1 9 10
M  V30 10 1 10 11
M  V30 11 1 5 12
M  V30 12 2 12 13
M  V30 13 1 13 14
M  V30 14 1 14 15
M  V30 15 2 15 16
M  V30 16 1 16 17
M  V30 17 2 17 18
M  V30 18 1 18 19
M  V30 19 1 19 20
M  V30 20 1 20 21
M  V30 21 1 21 22
M  V30 22 1 18 23
M  V30 23 2 23 24
M  V30 24 1 13 2
M  V30 25 1 23 14
M  V30 26 1 11 9
M  V30 27 1 22 20
M  V30 28 1 1 25
M  V30 29 1 1 26
M  V30 30 1 1 27
M  V30 31 1 3 28
M  V30 32 1 4 29
M  V30 33 1 8 30
M  V30 34 1 9 31
M  V30 35 1 10 32
M  V30 36 1 10 33
M  V30 37 1 11 34
M  V30 38 1 11 35
M  V30 39 1 12 36
M  V30 40 1 15 37
M  V30 41 1 16 38
M  V30 42 1 19 39
M  V30 43 1 20 40
M  V30 44 1 21 41
M  V30 45 1 21 42
M  V30 46 1 22 43
M  V30 47 1 22 44
M  V30 END BOND
M  V30 END CTAB
M  END
>  <Dataset>  (12) 
ChEMBL_Kinases

>  <Ligand_Instance>  (12) 
nan

>  <PDB_ID>  (12) 
nan

>  <Standardized_SMILES>  (12) 
Cc1ccc(C(=O)NC2CC2)cc1-n1ccnc(NC2CC2)c1=O

>  <Name>  (12) 
nan

>  <Pocket>  (12) 
nan

>  <ATP_Site>  (12) 
nan

>  <Peripheral>  (12) 
nan

>  <Num_H_Atoms_ProtBoundConf>  (12) 
nan

>  <Num_Resolved_Atoms>  (12) 
nan

>  <Num_Not_Resolved_Atoms>  (12) 
nan

$$$$
CHEMBL4461200
     RDKit          3D

  0  0  0  0  0  0  0  0  0  0999 V3000
M  V30 BEGIN CTAB
M  V30 COUNTS 51 54 0 0 0
M  V30 BEGIN ATOM
M  V30 1 C 5.164419 -1.644534 -1.536152 0
M  V30 2 N 5.777724 -0.473912 -0.975262 0
M  V30 3 N 7.060375 -0.277410 -1.071285 0
M  V30 4 C 7.413997 0.853523 -0.490451 0
M  V30 5 C 6.231468 1.369930 -0.008646 0
M  V30 6 C 6.192416 2.635867 0.687920 0
M  V30 7 O 5.454313 3.475007 1.237819 0
M  V30 8 O 7.286079 3.411029 0.976230 0
M  V30 9 C 5.183907 0.556919 -0.297947 0
M  V30 10 C 3.736661 0.627579 -0.012480 0
M  V30 11 C 2.922223 1.422989 0.614347 0
M  V30 12 C 1.602222 1.210080 0.711252 0
M  V30 13 C 1.093638 0.127531 0.136561 0
M  V30 14 C -0.199982 -0.621301 -0.098750 0
M  V30 15 O -0.184102 -1.674079 -0.745417 0
M  V30 16 N -1.276364 0.042418 0.492634 0
M  V30 17 C -2.641920 -0.503883 0.393806 0 CFG=2
M  V30 18 C -3.529648 0.325365 -0.450638 0
M  V30 19 N -4.565284 1.054085 0.235355 0
M  V30 20 C -5.334088 0.130962 1.068862 0
M  V30 21 C -4.421096 -0.286248 2.169339 0
M  V30 22 C -3.173518 -0.946919 1.710865 0 CFG=1
M  V30 23 C -3.236367 -2.439888 1.818670 0
M  V30 24 C -4.030425 -3.214449 1.018722 0
M  V30 25 C -4.115220 -4.589009 1.090514 0
M  V30 26 C -3.354687 -5.257311 2.028229 0
M  V30 27 C -2.530388 -4.543902 2.869586 0
M  V30 28 F -1.757250 -5.145897 3.813386 0
M  V30 29 C -2.489459 -3.172776 2.748823 0
M  V30 30 S 2.661852 -0.619019 -0.590004 0
M  V30 31 H 4.739102 -2.240370 -0.696551 0
M  V30 32 H 5.886538 -2.295691 -2.046590 0
M  V30 33 H 4.394870 -1.394162 -2.304693 0
M  V30 34 H 8.403739 1.256078 -0.422897 0
M  V30 35 H 7.596694 3.687502 1.914470 0
M  V30 36 H 3.197823 2.327017 1.123715 0
M  V30 37 H 0.761132 1.708464 1.160862 0
M  V30 38 H -1.229938 0.935415 1.030834 0
M  V30 39 H -2.463578 -1.446027 -0.212705 0
M  V30 40 H -2.878650 1.092068 -0.961188 0
M  V30 41 H -3.992936 -0.224137 -1.295318 0
M  V30 42 H -5.242894 1.378592 -0.513943 0
M  V30 43 H -5.719164 -0.657296 0.426329 0
M  V30 44 H -6.152338 0.741342 1.539989 0
M  V30 45 H -4.137406 0.662041 2.715083 0
M  V30 46 H -4.908325 -0.918279 2.938214 0
M  V30 47 H -2.378071 -0.667372 2.471586 0
M  V30 48 H -4.644465 -2.778796 0.271789 0
M  V30 49 H -4.751199 -5.183082 0.446667 0
M  V30 50 H -3.341563 -6.320324 2.172373 0
M  V30 51 H -1.833165 -2.622439 3.420744 0
M  V30 END ATOM
M  V30 BEGIN BOND
M  V30 1 1 1 2
M  V30 2 1 2 3
M  V30 3 2 3 4
M  V30 4 1 4 5
M  V30 5 1 5 6
M  V30 6 2 6 7
M  V30 7 1 6 8
M  V30 8 2 5 9
M  V30 9 1 9 10
M  V30 10 2 10 11
M  V30 11 1 11 12
M  V30 12 2 12 13
M  V30 13 1 13 14
M  V30 14 2 14 15
M  V30 15 1 14 16
M  V30 16 1 16 17
M  V30 17 1 17 18
M  V30 18 1 18 19
M  V30 19 1 19 20
M  V30 20 1 20 21
M  V30 21 1 21 22
M  V30 22 1 22 23
M  V30 23 2 23 24
M  V30 24 1 24 25
M  V30 25 2 25 26
M  V30 26 1 26 27
M  V30 27 1 27 28
M  V30 28 2 27 29
M  V30 29 1 13 30
M  V30 30 1 9 2
M  V30 31 1 30 10
M  V30 32 1 22 17
M  V30 33 1 29 23
M  V30 34 1 1 31
M  V30 35 1 1 32
M  V30 36 1 1 33
M  V30 37 1 4 34
M  V30 38 1 8 35
M  V30 39 1 11 36
M  V30 40 1 12 37
M  V30 41 1 16 38
M  V30 42 1 17 39 CFG=3
M  V30 43 1 18 40
M  V30 44 1 18 41
M  V30 45 1 19 42
M  V30 46 1 20 43
M  V30 47 1 20 44
M  V30 48 1 21 45
M  V30 49 1 21 46
M  V30 50 1 22 47 CFG=1
M  V30 51 1 24 48
M  V30 52 1 25 49
M  V30 53 1 26 50
M  V30 54 1 29 51
M  V30 END BOND
M  V30 END CTAB
M  END
>  <Dataset>  (13) 
ChEMBL_Kinases

>  <Ligand_Instance>  (13) 
nan

>  <PDB_ID>  (13) 
nan

>  <Standardized_SMILES>  (13) 
Cn1ncc(C(=O)O)c1-c1ccc(C(=O)N[C@@H]2CNCC[C@H]2c2cccc(F)c2)s1

>  <Name>  (13) 
nan

>  <Pocket>  (13) 
nan

>  <ATP_Site>  (13) 
nan

>  <Peripheral>  (13) 
nan

>  <Num_H_Atoms_ProtBoundConf>  (13) 
nan

>  <Num_Resolved_Atoms>  (13) 
nan

>  <Num_Not_Resolved_Atoms>  (13) 
nan

$$$$
CHEMBL4461250
     RDKit          3D

  0  0  0  0  0  0  0  0  0  0999 V3000
M  V30 BEGIN CTAB
M  V30 COUNTS 49 51 0 0 0
M  V30 BEGIN ATOM
M  V30 1 C 1.659143 -3.900421 3.007109 0
M  V30 2 C 0.701424 -2.767815 2.887397 0
M  V30 3 C 0.122638 -2.549124 4.301315 0
M  V30 4 O -0.343531 -3.170894 2.033588 0
M  V30 5 C 1.284762 -1.470254 2.486756 0
M  V30 6 C 1.968712 -1.339701 1.181419 0
M  V30 7 C 3.173680 -2.214650 0.994915 0
M  V30 8 C 2.485742 0.116565 1.140396 0
M  V30 9 N 1.067644 -1.550374 0.049198 0
M  V30 10 C -0.008740 -0.793465 -0.475914 0
M  V30 11 C -0.426386 0.420485 0.025281 0
M  V30 12 C -1.453207 1.205432 -0.449666 0
M  V30 13 C -1.851475 2.485121 0.123637 0
M  V30 14 C -1.286427 3.116029 1.210708 0
M  V30 15 C -1.744734 4.332913 1.671691 0
M  V30 16 N -2.771807 4.969854 1.081263 0
M  V30 17 C -3.348712 4.383979 0.016647 0
M  V30 18 C -2.902468 3.167490 -0.456776 0
M  V30 19 N -2.121446 0.712391 -1.538535 0
M  V30 20 C -1.758732 -0.467698 -2.072022 0
M  V30 21 C -2.452219 -0.929843 -3.163388 0
M  V30 22 N -2.185552 -2.092654 -3.784443 0
M  V30 23 C -1.168336 -2.865402 -3.309800 0
M  V30 24 C -0.469389 -2.406545 -2.215229 0
M  V30 25 C -0.728174 -1.221444 -1.568596 0
M  V30 26 H 1.362225 -4.565934 3.894457 0
M  V30 27 H 1.650874 -4.627244 2.169193 0
M  V30 28 H 2.671511 -3.513565 3.183949 0
M  V30 29 H 1.000433 -2.206176 4.902894 0
M  V30 30 H -0.617069 -1.737925 4.314823 0
M  V30 31 H -0.313333 -3.466925 4.700540 0
M  V30 32 H -0.006410 -3.811600 1.335020 0
M  V30 33 H 0.538022 -0.622568 2.575558 0
M  V30 34 H 2.055048 -1.159580 3.268721 0
M  V30 35 H 3.920023 -2.098709 1.812838 0
M  V30 36 H 3.755047 -1.798145 0.095779 0
M  V30 37 H 2.988933 -3.270650 0.839637 0
M  V30 38 H 2.136164 0.707398 1.995881 0
M  V30 39 H 3.583619 0.054053 1.255686 0
M  V30 40 H 2.322116 0.576863 0.146522 0
M  V30 41 H 1.291505 -2.442586 -0.434116 0
M  V30 42 H 0.053259 0.864029 0.861254 0
M  V30 43 H -0.463638 2.616918 1.692406 0
M  V30 44 H -1.267298 4.783978 2.526501 0
M  V30 45 H -4.182045 4.919844 -0.447589 0
M  V30 46 H -3.403871 2.729695 -1.326585 0
M  V30 47 H -3.260847 -0.340130 -3.559765 0
M  V30 48 H -0.966369 -3.797229 -3.819861 0
M  V30 49 H 0.302592 -3.071240 -1.915095 0
M  V30 END ATOM
M  V30 BEGIN BOND
M  V30 1 1 1 2
M  V30 2 1 2 3
M  V30 3 1 2 4
M  V30 4 1 2 5
M  V30 5 1 5 6
M  V30 6 1 6 7
M  V30 7 1 6 8
M  V30 8 1 6 9
M  V30 9 1 9 10
M  V30 10 2 10 11
M  V30 11 1 11 12
M  V30 12 1 12 13
M  V30 13 2 13 14
M  V30 14 1 14 15
M  V30 15 2 15 16
M  V30 16 1 16 17
M  V30 17 2 17 18
M  V30 18 2 12 19
M  V30 19 1 19 20
M  V30 20 2 20 21
M  V30 21 1 21 22
M  V30 22 2 22 23
M  V30 23 1 23 24
M  V30 24 2 24 25
M  V30 25 1 25 10
M  V30 26 1 18 13
M  V30 27 1 25 20
M  V30 28 1 1 26
M  V30 29 1 1 27
M  V30 30 1 1 28
M  V30 31 1 3 29
M  V30 32 1 3 30
M  V30 33 1 3 31
M  V30 34 1 4 32
M  V30 35 1 5 33
M  V30 36 1 5 34
M  V30 37 1 7 35
M  V30 38 1 7 36
M  V30 39 1 7 37
M  V30 40 1 8 38
M  V30 41 1 8 39
M  V30 42 1 8 40
M  V30 43 1 9 41
M  V30 44 1 11 42
M  V30 45 1 14 43
M  V30 46 1 15 44
M  V30 47 1 17 45
M  V30 48 1 18 46
M  V30 49 1 21 47
M  V30 50 1 23 48
M  V30 51 1 24 49
M  V30 END BOND
M  V30 END CTAB
M  END
>  <Dataset>  (14) 
ChEMBL_Kinases

>  <Ligand_Instance>  (14) 
nan

>  <PDB_ID>  (14) 
nan

>  <Standardized_SMILES>  (14) 
CC(C)(O)CC(C)(C)Nc1cc(-c2ccncc2)nc2cnccc12

>  <Name>  (14) 
nan

>  <Pocket>  (14) 
nan

>  <ATP_Site>  (14) 
nan

>  <Peripheral>  (14) 
nan

>  <Num_H_Atoms_ProtBoundConf>  (14) 
nan

>  <Num_Resolved_Atoms>  (14) 
nan

>  <Num_Not_Resolved_Atoms>  (14) 
nan

$$$$
CHEMBL4741023
     RDKit          3D

  0  0  0  0  0  0  0  0  0  0999 V3000
M  V30 BEGIN CTAB
M  V30 COUNTS 50 53 0 0 0
M  V30 BEGIN ATOM
M  V30 1 N 4.063528 -4.059554 5.247591 0
M  V30 2 C 3.890754 -3.844869 4.130169 0
M  V30 3 C 3.664714 -3.572628 2.723233 0
M  V30 4 C 3.272817 -4.563219 1.847494 0
M  V30 5 N 3.070296 -4.277692 0.543686 0
M  V30 6 C 3.244161 -3.029861 0.069349 0
M  V30 7 N 3.076401 -2.562501 -1.263760 0
M  V30 8 C 1.689545 -2.267219 -1.190898 0
M  V30 9 C 1.219024 -1.046859 -0.757590 0
M  V30 10 C -0.127422 -0.765211 -0.687203 0
M  V30 11 N -0.568450 0.496200 -0.207640 0
M  V30 12 C 0.416858 1.487557 0.170553 0
M  V30 13 C -0.170894 2.768335 0.698732 0 CFG=1
M  V30 14 C -0.981429 2.535840 1.959631 0
M  V30 15 N -0.178224 1.715125 2.840200 0
M  V30 16 C 1.078766 2.359969 3.085293 0
M  V30 17 C 1.298226 3.609306 2.303992 0
M  V30 18 O 0.868720 3.606461 1.007755 0
M  V30 19 C -1.009744 -1.749869 -1.068444 0
M  V30 20 C -2.441210 -1.579399 -1.066130 0
M  V30 21 C -3.192668 -0.557577 -1.595073 0
M  V30 22 C -4.571756 -0.555895 -1.493316 0
M  V30 23 C -5.240647 -1.570966 -0.862667 0
M  V30 24 C -4.540391 -2.630538 -0.308387 0
M  V30 25 F -5.185000 -3.623423 0.308092 0
M  V30 26 C -3.167805 -2.584231 -0.436989 0
M  V30 27 C -0.544276 -2.989229 -1.508578 0
M  V30 28 N 0.784552 -3.213183 -1.557527 0
M  V30 29 C 3.642195 -2.038513 0.973955 0
M  V30 30 N 3.845553 -2.326544 2.284055 0
M  V30 31 H 3.122473 -5.577940 2.189660 0
M  V30 32 H 3.810357 -2.487761 -2.019700 0
M  V30 33 H 1.908121 -0.294835 -0.469367 0
M  V30 34 H -1.552514 0.807060 -0.082546 0
M  V30 35 H 0.992383 1.756392 -0.750929 0
M  V30 36 H 1.164956 1.048994 0.857275 0
M  V30 37 H -0.845590 3.186409 -0.077293 0
M  V30 38 H -1.079550 3.533198 2.455339 0
M  V30 39 H -1.988313 2.158173 1.782052 0
M  V30 40 H -0.134124 0.721654 2.601182 0
M  V30 41 H 1.063708 2.650204 4.179857 0
M  V30 42 H 1.965158 1.686925 3.017405 0
M  V30 43 H 0.930471 4.488907 2.886017 0
M  V30 44 H 2.418261 3.759212 2.262158 0
M  V30 45 H -2.625149 0.230823 -2.098486 0
M  V30 46 H -5.070767 0.293471 -1.941679 0
M  V30 47 H -6.321368 -1.564792 -0.785084 0
M  V30 48 H -2.661012 -3.449034 0.020361 0
M  V30 49 H -1.236094 -3.784792 -1.814782 0
M  V30 50 H 3.833921 -0.973516 0.768245 0
M  V30 END ATOM
M  V30 BEGIN BOND
M  V30 1 3 1 2
M  V30 2 1 2 3
M  V30 3 2 3 4
M  V30 4 1 4 5
M  V30 5 2 5 6
M  V30 6 1 6 7
M  V30 7 1 7 8
M  V30 8 2 8 9
M  V30 9 1 9 10
M  V30 10 1 10 11
M  V30 11 1 11 12
M  V30 12 1 12 13
M  V30 13 1 13 14
M  V30 14 1 14 15
M  V30 15 1 15 16
M  V30 16 1 16 17
M  V30 17 1 17 18
M  V30 18 2 10 19
M  V30 19 1 19 20
M  V30 20 2 20 21
M  V30 21 1 21 22
M  V30 22 2 22 23
M  V30 23 1 23 24
M  V30 24 1 24 25
M  V30 25 2 24 26
M  V30 26 1 19 27
M  V30 27 2 27 28
M  V30 28 1 6 29
M  V30 29 2 29 30
M  V30 30 1 30 3
M  V30 31 1 28 8
M  V30 32 1 18 13
M  V30 33 1 26 20
M  V30 34 1 4 31
M  V30 35 1 7 32
M  V30 36 1 9 33
M  V30 37 1 11 34
M  V30 38 1 12 35
M  V30 39 1 12 36
M  V30 40 1 13 37 CFG=3
M  V30 41 1 14 38
M  V30 42 1 14 39
M  V30 43 1 15 40
M  V30 44 1 16 41
M  V30 45 1 16 42
M  V30 46 1 17 43
M  V30 47 1 17 44
M  V30 48 1 21 45
M  V30 49 1 22 46
M  V30 50 1 23 47
M  V30 51 1 26 48
M  V30 52 1 27 49
M  V30 53 1 29 50
M  V30 END BOND
M  V30 END CTAB
M  END
>  <Dataset>  (15) 
ChEMBL_Kinases

>  <Ligand_Instance>  (15) 
nan

>  <PDB_ID>  (15) 
nan

>  <Standardized_SMILES>  (15) 
N#Cc1cnc(Nc2cc(NC[C@H]3CNCCO3)c(-c3cccc(F)c3)cn2)cn1

>  <Name>  (15) 
nan

>  <Pocket>  (15) 
nan

>  <ATP_Site>  (15) 
nan

>  <Peripheral>  (15) 
nan

>  <Num_H_Atoms_ProtBoundConf>  (15) 
nan

>  <Num_Resolved_Atoms>  (15) 
nan

>  <Num_Not_Resolved_Atoms>  (15) 
nan

$$$$
CHEMBL4741061
     RDKit          3D

  0  0  0  0  0  0  0  0  0  0999 V3000
M  V30 BEGIN CTAB
M  V30 COUNTS 57 60 0 0 0
M  V30 BEGIN ATOM
M  V30 1 C 4.549532 -3.969315 1.899122 0
M  V30 2 C 4.964801 -2.601917 2.308962 0
M  V30 3 C 6.181488 -2.416898 2.908584 0
M  V30 4 C 6.551727 -1.135428 3.283388 0
M  V30 5 C 5.689284 -0.093747 3.042493 0
M  V30 6 C 4.463087 -0.208274 2.449457 0
M  V30 7 C 3.574030 0.914818 2.208865 0
M  V30 8 C 3.983433 2.167615 2.597183 0
M  V30 9 C 3.113430 3.204301 2.351859 0
M  V30 10 N 1.930502 3.037590 1.771230 0
M  V30 11 C 1.527862 1.831719 1.393420 0
M  V30 12 N 0.261618 1.663199 0.774403 0
M  V30 13 C -0.372632 0.486656 0.292767 0
M  V30 14 C 0.161344 -0.765396 0.332745 0
M  V30 15 C -0.438264 -1.917475 -0.126724 0
M  V30 16 C -1.690416 -1.810732 -0.678934 0
M  V30 17 C -2.270505 -0.561988 -0.740591 0
M  V30 18 C -1.625406 0.552323 -0.266523 0
M  V30 19 N -3.568487 -0.439539 -1.313782 0
M  V30 20 C -3.998683 0.764321 -1.946529 0
M  V30 21 C -5.210050 1.273736 -1.156830 0
M  V30 22 C -4.508565 0.548138 -3.355849 0
M  V30 23 C -4.448630 -1.607651 -1.224611 0 CFG=2
M  V30 24 C -4.832396 -1.926034 0.197689 0
M  V30 25 C -3.698073 -2.806104 -1.743278 0
M  V30 26 O -3.992940 -3.719245 -2.586299 0
M  V30 27 N -2.381410 -2.951777 -1.173154 0
M  V30 28 C -1.735055 -4.245119 -1.089578 0
M  V30 29 N 2.379919 0.828245 1.635456 0
M  V30 30 C 4.160888 -1.508282 2.103561 0
M  V30 31 H 4.396335 -3.956546 0.799405 0
M  V30 32 H 5.376878 -4.682815 2.072838 0
M  V30 33 H 3.597881 -4.278896 2.370896 0
M  V30 34 H 6.820265 -3.271127 3.074062 0
M  V30 35 H 7.514500 -1.029090 3.751696 0
M  V30 36 H 6.078875 0.854976 3.374073 0
M  V30 37 H 4.899073 2.441719 3.069438 0
M  V30 38 H 3.356866 4.238834 2.628348 0
M  V30 39 H -0.305502 2.558045 0.649412 0
M  V30 40 H 1.141194 -0.928830 0.751845 0
M  V30 41 H 0.030706 -2.893473 -0.071772 0
M  V30 42 H -2.139371 1.516031 -0.342237 0
M  V30 43 H -3.202468 1.523886 -2.036633 0
M  V30 44 H -6.079971 0.622820 -1.379714 0
M  V30 45 H -5.453511 2.319006 -1.414475 0
M  V30 46 H -5.013640 1.151444 -0.057339 0
M  V30 47 H -3.716567 0.272563 -4.065961 0
M  V30 48 H -4.873799 1.567573 -3.680475 0
M  V30 49 H -5.413389 -0.079068 -3.382851 0
M  V30 50 H -5.300028 -1.441615 -1.879287 0
M  V30 51 H -4.174901 -1.409973 0.926328 0
M  V30 52 H -4.751247 -3.014480 0.425830 0
M  V30 53 H -5.917833 -1.689209 0.395002 0
M  V30 54 H -0.883815 -4.309651 -1.774828 0
M  V30 55 H -1.369937 -4.376902 -0.054708 0
M  V30 56 H -2.486003 -5.072781 -1.228308 0
M  V30 57 H 3.209990 -1.733931 1.622003 0
M  V30 END ATOM
M  V30 BEGIN BOND
M  V30 1 1 1 2
M  V30 2 2 2 3
M  V30 3 1 3 4
M  V30 4 2 4 5
M  V30 5 1 5 6
M  V30 6 1 6 7
M  V30 7 2 7 8
M  V30 8 1 8 9
M  V30 9 2 9 10
M  V30 10 1 10 11
M  V30 11 1 11 12
M  V30 12 1 12 13
M  V30 13 2 13 14
M  V30 14 1 14 15
M  V30 15 2 15 16
M  V30 16 1 16 17
M  V30 17 2 17 18
M  V30 18 1 17 19
M  V30 19 1 19 20
M  V30 20 1 20 21
M  V30 21 1 20 22
M  V30 22 1 19 23
M  V30 23 1 23 24
M  V30 24 1 23 25
M  V30 25 2 25 26
M  V30 26 1 25 27
M  V30 27 1 27 28
M  V30 28 2 11 29
M  V30 29 2 6 30
M  V30 30 1 30 2
M  V30 31 1 29 7
M  V30 32 1 18 13
M  V30 33 1 27 16
M  V30 34 1 1 31
M  V30 35 1 1 32
M  V30 36 1 1 33
M  V30 37 1 3 34
M  V30 38 1 4 35
M  V30 39 1 5 36
M  V30 40 1 8 37
M  V30 41 1 9 38
M  V30 42 1 12 39
M  V30 43 1 14 40
M  V30 44 1 15 41
M  V30 45 1 18 42
M  V30 46 1 20 43
M  V30 47 1 21 44
M  V30 48 1 21 45
M  V30 49 1 21 46
M  V30 50 1 22 47
M  V30 51 1 22 48
M  V30 52 1 22 49
M  V30 53 1 23 50 CFG=3
M  V30 54 1 24 51
M  V30 55 1 24 52
M  V30 56 1 24 53
M  V30 57 1 28 54
M  V30 58 1 28 55
M  V30 59 1 28 56
M  V30 60 1 30 57
M  V30 END BOND
M  V30 END CTAB
M  END
>  <Dataset>  (16) 
ChEMBL_Kinases

>  <Ligand_Instance>  (16) 
nan

>  <PDB_ID>  (16) 
nan

>  <Standardized_SMILES>  (16) 
Cc1cccc(-c2ccnc(Nc3ccc4c(c3)N(C(C)C)[C@H](C)C(=O)N4C)n2)c1

>  <Name>  (16) 
nan

>  <Pocket>  (16) 
nan

>  <ATP_Site>  (16) 
nan

>  <Peripheral>  (16) 
nan

>  <Num_H_Atoms_ProtBoundConf>  (16) 
nan

>  <Num_Resolved_Atoms>  (16) 
nan

>  <Num_Not_Resolved_Atoms>  (16) 
nan

$$$$
CHEMBL4741063
     RDKit          3D

  0  0  0  0  0  0  0  0  0  0999 V3000
M  V30 BEGIN CTAB
M  V30 COUNTS 58 61 0 0 0
M  V30 BEGIN ATOM
M  V30 1 C 0.380697 -4.109225 5.674455 0
M  V30 2 C 1.157472 -3.609180 4.522017 0
M  V30 3 O 1.212776 -4.386695 3.511182 0
M  V30 4 N 1.848735 -2.369765 4.403886 0
M  V30 5 C 2.568053 -2.001122 3.228822 0 CFG=2
M  V30 6 C 4.033769 -1.754907 3.406965 0
M  V30 7 C 4.420335 -0.290079 3.306448 0
M  V30 8 C 4.035422 0.308826 1.984405 0
M  V30 9 C 2.855799 -0.433840 1.402301 0 CFG=2
M  V30 10 C 2.210674 0.240875 0.281819 0
M  V30 11 O 2.112612 -0.269163 -0.886856 0
M  V30 12 N 1.615423 1.534767 0.342042 0
M  V30 13 C 1.062622 1.933487 -0.910543 0
M  V30 14 C -0.274831 1.580684 -1.121795 0
M  V30 15 C -0.895666 1.932693 -2.323628 0
M  V30 16 C -2.279542 1.534300 -2.470772 0
M  V30 17 C -3.307066 2.314413 -2.948430 0
M  V30 18 N -4.397713 1.518649 -2.899436 0
M  V30 19 N -4.111176 0.329208 -2.433452 0
M  V30 20 C -2.794111 0.275291 -2.145120 0
M  V30 21 C -2.387664 -1.044061 -1.610080 0
M  V30 22 C -3.636515 -1.861192 -1.735216 0
M  V30 23 C -4.027809 -2.531851 -0.430754 0
M  V30 24 C -3.423720 -2.952994 -2.756950 0
M  V30 25 C -4.756893 -0.927977 -2.135291 0
M  V30 26 C -0.141908 2.622625 -3.255541 0
M  V30 27 C 1.178575 2.963815 -3.031698 0
M  V30 28 N 1.762166 2.608161 -1.848964 0
M  V30 29 C 1.939851 -0.799394 2.528570 0
M  V30 30 H 0.537910 -3.542405 6.604311 0
M  V30 31 H -0.708873 -4.115638 5.489274 0
M  V30 32 H 0.689120 -5.156110 5.913178 0
M  V30 33 H 1.785214 -1.755529 5.246460 0
M  V30 34 H 2.479267 -2.828619 2.480083 0
M  V30 35 H 4.662653 -2.285393 2.643227 0
M  V30 36 H 4.438276 -2.102518 4.394213 0
M  V30 37 H 5.534428 -0.278289 3.371445 0
M  V30 38 H 4.049125 0.324505 4.125002 0
M  V30 39 H 3.790645 1.383142 2.146190 0
M  V30 40 H 4.898092 0.294134 1.275702 0
M  V30 41 H 3.280906 -1.391954 0.997991 0
M  V30 42 H 1.635266 2.052756 1.254531 0
M  V30 43 H -0.826520 1.038534 -0.360154 0
M  V30 44 H -3.284466 3.339105 -3.294655 0
M  V30 45 H -2.082470 -1.018405 -0.547528 0
M  V30 46 H -1.541070 -1.496385 -2.181152 0
M  V30 47 H -4.916774 -3.164991 -0.657451 0
M  V30 48 H -4.345060 -1.836497 0.348885 0
M  V30 49 H -3.222083 -3.220534 -0.118344 0
M  V30 50 H -3.134355 -3.892122 -2.223915 0
M  V30 51 H -2.592113 -2.704412 -3.444450 0
M  V30 52 H -4.349572 -3.190070 -3.317551 0
M  V30 53 H -5.451117 -0.760347 -1.266870 0
M  V30 54 H -5.368199 -1.317877 -2.982307 0
M  V30 55 H -0.651152 2.883740 -4.182250 0
M  V30 56 H 1.738607 3.503893 -3.782879 0
M  V30 57 H 0.978879 -1.189015 2.085028 0
M  V30 58 H 1.759679 0.033098 3.222861 0
M  V30 END ATOM
M  V30 BEGIN BOND
M  V30 1 1 1 2
M  V30 2 2 2 3
M  V30 3 1 2 4
M  V30 4 1 4 5
M  V30 5 1 5 6
M  V30 6 1 6 7
M  V30 7 1 7 8
M  V30 8 1 8 9
M  V30 9 1 9 10
M  V30 10 2 10 11
M  V30 11 1 10 12
M  V30 12 1 12 13
M  V30 13 2 13 14
M  V30 14 1 14 15
M  V30 15 1 15 16
M  V30 16 1 16 17
M  V30 17 2 17 18
M  V30 18 1 18 19
M  V30 19 1 19 20
M  V30 20 1 20 21
M  V30 21 1 21 22
M  V30 22 1 22 23
M  V30 23 1 22 24
M  V30 24 1 22 25
M  V30 25 2 15 26
M  V30 26 1 26 27
M  V30 27 2 27 28
M  V30 28 1 9 29
M  V30 29 1 29 5
M  V30 30 1 28 13
M  V30 31 2 20 16
M  V30 32 1 25 19
M  V30 33 1 1 30
M  V30 34 1 1 31
M  V30 35 1 1 32
M  V30 36 1 4 33
M  V30 37 1 5 34 CFG=3
M  V30 38 1 6 35
M  V30 39 1 6 36
M  V30 40 1 7 37
M  V30 41 1 7 38
M  V30 42 1 8 39
M  V30 43 1 8 40
M  V30 44 1 9 41 CFG=3
M  V30 45 1 12 42
M  V30 46 1 14 43
M  V30 47 1 17 44
M  V30 48 1 21 45
M  V30 49 1 21 46
M  V30 50 1 23 47
M  V30 51 1 23 48
M  V30 52 1 23 49
M  V30 53 1 24 50
M  V30 54 1 24 51
M  V30 55 1 24 52
M  V30 56 1 25 53
M  V30 57 1 25 54
M  V30 58 1 26 55
M  V30 59 1 27 56
M  V30 60 1 29 57
M  V30 61 1 29 58
M  V30 END BOND
M  V30 END CTAB
M  END
>  <Dataset>  (17) 
ChEMBL_Kinases

>  <Ligand_Instance>  (17) 
nan

>  <PDB_ID>  (17) 
nan

>  <Standardized_SMILES>  (17) 
CC(=O)N[C@@H]1CCC[C@H](C(=O)Nc2cc(-c3cnn4c3CC(C)(C)C4)ccn2)C1

>  <Name>  (17) 
nan

>  <Pocket>  (17) 
nan

>  <ATP_Site>  (17) 
nan

>  <Peripheral>  (17) 
nan

>  <Num_H_Atoms_ProtBoundConf>  (17) 
nan

>  <Num_Resolved_Atoms>  (17) 
nan

>  <Num_Not_Resolved_Atoms>  (17) 
nan

$$$$
CHEMBL474111
     RDKit          3D

  0  0  0  0  0  0  0  0  0  0999 V3000
M  V30 BEGIN CTAB
M  V30 COUNTS 62 67 0 0 0
M  V30 BEGIN ATOM
M  V30 1 O 4.309682 1.556744 4.634483 0
M  V30 2 C 3.578322 0.608826 4.250223 0
M  V30 3 N 3.594334 -0.792111 4.595025 0
M  V30 4 C 2.562597 -1.458310 3.894178 0
M  V30 5 O 2.516811 -2.670481 4.142929 0
M  V30 6 C 1.846055 -0.513576 3.074424 0
M  V30 7 C 2.461996 0.694940 3.300976 0
M  V30 8 C 2.002601 1.843593 2.646963 0
M  V30 9 C 2.617977 3.151228 2.849539 0
M  V30 10 C 3.648936 3.428105 1.972239 0
M  V30 11 C 4.318045 4.631554 2.053575 0
M  V30 12 C 3.903288 5.507353 3.034001 0
M  V30 13 C 2.874302 5.246985 3.919780 0
M  V30 14 C 2.207975 4.032223 3.828413 0
M  V30 15 Cl 0.883108 3.571015 4.888847 0
M  V30 16 C 0.932082 1.707119 1.788515 0
M  V30 17 C 0.353532 0.463645 1.601348 0
M  V30 18 C 0.799754 -0.660528 2.238618 0
M  V30 19 C 0.065384 -1.735076 1.881794 0
M  V30 20 C -0.029459 -3.065073 2.117497 0
M  V30 21 C -0.995284 -3.851007 1.499322 0
M  V30 22 O -0.948424 -5.197247 1.856864 0
M  V30 23 C -1.934822 -3.332762 0.594447 0
M  V30 24 O -2.760361 -4.307713 0.134188 0
M  V30 25 C -3.780605 -4.154946 -0.787184 0
M  V30 26 C -3.376207 -3.714486 -2.166695 0
M  V30 27 C -2.414281 -4.712849 -2.795071 0
M  V30 28 N -2.016019 -4.301454 -4.123706 0
M  V30 29 C -0.917834 -3.515130 -4.317091 0
M  V30 30 C -0.757463 -3.267908 -5.664406 0
M  V30 31 C -1.786965 -3.920579 -6.324709 0
M  V30 32 C -2.520603 -4.531144 -5.345996 0
M  V30 33 C -1.810696 -1.986444 0.380116 0
M  V30 34 C -0.853261 -1.211652 0.993551 0
M  V30 35 N -0.683323 0.113820 0.821361 0
M  V30 36 C -1.435559 1.020496 -0.018819 0
M  V30 37 C -2.578774 1.554451 0.830561 0
M  V30 38 O -3.378076 2.447472 0.115328 0
M  V30 39 H 4.346304 -1.082825 5.289517 0
M  V30 40 H 3.985441 2.749976 1.197398 0
M  V30 41 H 5.133526 4.901054 1.391740 0
M  V30 42 H 4.382838 6.489066 3.168050 0
M  V30 43 H 2.559918 5.945629 4.685035 0
M  V30 44 H 0.583042 2.609450 1.284567 0
M  V30 45 H 0.654002 -3.501351 2.789783 0
M  V30 46 H -1.376236 -5.864116 1.220446 0
M  V30 47 H -4.325838 -5.139946 -0.926686 0
M  V30 48 H -4.568169 -3.486366 -0.357932 0
M  V30 49 H -4.303508 -3.784722 -2.819348 0
M  V30 50 H -3.005056 -2.686616 -2.236441 0
M  V30 51 H -1.527309 -4.874848 -2.148831 0
M  V30 52 H -2.922665 -5.694456 -2.888081 0
M  V30 53 H -0.246204 -3.123690 -3.544404 0
M  V30 54 H 0.026396 -2.673743 -6.130297 0
M  V30 55 H -1.937446 -3.918166 -7.395691 0
M  V30 56 H -3.421834 -5.146138 -5.489015 0
M  V30 57 H -2.524184 -1.589227 -0.289118 0
M  V30 58 H -0.777373 1.868124 -0.284956 0
M  V30 59 H -1.872296 0.531152 -0.912094 0
M  V30 60 H -3.203875 0.740330 1.232665 0
M  V30 61 H -2.178282 2.102427 1.711298 0
M  V30 62 H -3.781138 3.127668 0.740676 0
M  V30 END ATOM
M  V30 BEGIN BOND
M  V30 1 2 1 2
M  V30 2 1 2 3
M  V30 3 1 3 4
M  V30 4 2 4 5
M  V30 5 1 4 6
M  V30 6 2 6 7
M  V30 7 1 7 8
M  V30 8 1 8 9
M  V30 9 2 9 10
M  V30 10 1 10 11
M  V30 11 2 11 12
M  V30 12 1 12 13
M  V30 13 2 13 14
M  V30 14 1 14 15
M  V30 15 2 8 16
M  V30 16 1 16 17
M  V30 17 2 17 18
M  V30 18 1 18 19
M  V30 19 2 19 20
M  V30 20 1 20 21
M  V30 21 1 21 22
M  V30 22 2 21 23
M  V30 23 1 23 24
M  V30 24 1 24 25
M  V30 25 1 25 26
M  V30 26 1 26 27
M  V30 27 1 27 28
M  V30 28 1 28 29
M  V30 29 2 29 30
M  V30 30 1 30 31
M  V30 31 2 31 32
M  V30 32 1 23 33
M  V30 33 2 33 34
M  V30 34 1 34 35
M  V30 35 1 35 36
M  V30 36 1 36 37
M  V30 37 1 37 38
M  V30 38 1 7 2
M  V30 39 1 14 9
M  V30 40 1 35 17
M  V30 41 1 18 6
M  V30 42 1 34 19
M  V30 43 1 32 28
M  V30 44 1 3 39
M  V30 45 1 10 40
M  V30 46 1 11 41
M  V30 47 1 12 42
M  V30 48 1 13 43
M  V30 49 1 16 44
M  V30 50 1 20 45
M  V30 51 1 22 46
M  V30 52 1 25 47
M  V30 53 1 25 48
M  V30 54 1 26 49
M  V30 55 1 26 50
M  V30 56 1 27 51
M  V30 57 1 27 52
M  V30 58 1 29 53
M  V30 59 1 30 54
M  V30 60 1 31 55
M  V30 61 1 32 56
M  V30 62 1 33 57
M  V30 63 1 36 58
M  V30 64 1 36 59
M  V30 65 1 37 60
M  V30 66 1 37 61
M  V30 67 1 38 62
M  V30 END BOND
M  V30 END CTAB
M  END
>  <Dataset>  (18) 
ChEMBL_Kinases

>  <Ligand_Instance>  (18) 
nan

>  <PDB_ID>  (18) 
nan

>  <Standardized_SMILES>  (18) 
O=C1NC(=O)c2c1c(-c1ccccc1Cl)cc1c2c2cc(O)c(OCCCn3cccc3)cc2n1CCO

>  <Name>  (18) 
nan

>  <Pocket>  (18) 
nan

>  <ATP_Site>  (18) 
nan

>  <Peripheral>  (18) 
nan

>  <Num_H_Atoms_ProtBoundConf>  (18) 
nan

>  <Num_Resolved_Atoms>  (18) 
nan

>  <Num_Not_Resolved_Atoms>  (18) 
nan

$$$$
CHEMBL4741134
     RDKit          3D

  0  0  0  0  0  0  0  0  0  0999 V3000
M  V30 BEGIN CTAB
M  V30 COUNTS 56 60 0 0 0
M  V30 BEGIN ATOM
M  V30 1 C 1.458137 -3.506324 4.644798 0
M  V30 2 C 2.684803 -4.082295 4.018163 0
M  V30 3 O 2.985072 -3.669687 2.738104 0
M  V30 4 C 3.262139 -2.451104 2.221471 0
M  V30 5 C 3.363801 -1.187407 2.732923 0
M  V30 6 C 3.671073 -0.070010 1.946290 0
M  V30 7 C 3.885871 -0.246440 0.570787 0
M  V30 8 N 4.177122 1.014152 -0.020134 0
M  V30 9 N 5.294067 1.605644 -0.401402 0
M  V30 10 N 5.060109 2.795280 -0.906124 0
M  V30 11 C 3.726591 3.057785 -0.883151 0
M  V30 12 C 2.885265 4.075179 -1.249077 0
M  V30 13 N 1.535308 3.980222 -1.066373 0
M  V30 14 C 1.040785 2.844182 -0.509690 0
M  V30 15 N -0.366947 2.937964 -0.414911 0
M  V30 16 C -1.068024 1.764718 -0.861579 0
M  V30 17 C -0.468185 0.613437 -1.324846 0
M  V30 18 N -1.438060 -0.285572 -1.678624 0
M  V30 19 N -2.620249 0.261538 -1.451414 0
M  V30 20 C -3.931270 -0.354200 -1.707153 0
M  V30 21 C -4.715254 -0.331344 -0.452043 0
M  V30 22 C -4.159683 -1.282323 0.563002 0
M  V30 23 N -3.591115 -2.433837 -0.049487 0
M  V30 24 C -3.537996 -3.581264 0.838173 0
M  V30 25 C -4.266997 -2.739232 -1.294199 0
M  V30 26 C -3.757204 -1.718794 -2.289434 0
M  V30 27 C -2.421008 1.487123 -0.962108 0
M  V30 28 N 1.860129 1.846476 -0.150254 0
M  V30 29 C 3.201004 1.914668 -0.319507 0
M  V30 30 C 3.791596 -1.503790 0.021284 0
M  V30 31 C 3.484567 -2.579653 0.841956 0
M  V30 32 H 0.513637 -3.932734 4.207954 0
M  V30 33 H 1.450222 -3.857713 5.720407 0
M  V30 34 H 1.388535 -2.423024 4.666676 0
M  V30 35 H 2.508713 -5.196839 3.967660 0
M  V30 36 H 3.518785 -3.936270 4.744846 0
M  V30 37 H 3.187998 -1.171077 3.793724 0
M  V30 38 H 3.710336 0.846507 2.516238 0
M  V30 39 H 3.380240 4.916722 -1.673756 0
M  V30 40 H -0.896202 3.767628 -0.055263 0
M  V30 41 H 0.566715 0.352328 -1.442679 0
M  V30 42 H -4.408480 0.313996 -2.497749 0
M  V30 43 H -4.604987 0.707199 -0.011860 0
M  V30 44 H -5.811169 -0.448237 -0.599446 0
M  V30 45 H -3.319409 -0.754745 1.098571 0
M  V30 46 H -4.903041 -1.529859 1.361154 0
M  V30 47 H -3.208463 -3.251054 1.832595 0
M  V30 48 H -4.488057 -4.132472 0.855280 0
M  V30 49 H -2.756831 -4.268561 0.451086 0
M  V30 50 H -4.115487 -3.785425 -1.625770 0
M  V30 51 H -5.364846 -2.628044 -1.125832 0
M  V30 52 H -2.683770 -1.958767 -2.490596 0
M  V30 53 H -4.301329 -1.828422 -3.261518 0
M  V30 54 H -3.196207 2.199306 -0.663695 0
M  V30 55 H 3.976700 -1.490908 -1.019794 0
M  V30 56 H 3.454458 -3.490491 0.229171 0
M  V30 END ATOM
M  V30 BEGIN BOND
M  V30 1 1 1 2
M  V30 2 1 2 3
M  V30 3 1 3 4
M  V30 4 2 4 5
M  V30 5 1 5 6
M  V30 6 2 6 7
M  V30 7 1 7 8
M  V30 8 1 8 9
M  V30 9 2 9 10
M  V30 10 1 10 11
M  V30 11 2 11 12
M  V30 12 1 12 13
M  V30 13 2 13 14
M  V30 14 1 14 15
M  V30 15 1 15 16
M  V30 16 1 16 17
M  V30 17 2 17 18
M  V30 18 1 18 19
M  V30 19 1 19 20
M  V30 20 1 20 21
M  V30 21 1 21 22
M  V30 22 1 22 23
M  V30 23 1 23 24
M  V30 24 1 23 25
M  V30 25 1 25 26
M  V30 26 1 19 27
M  V30 27 1 14 28
M  V30 28 2 28 29
M  V30 29 1 7 30
M  V30 30 2 30 31
M  V30 31 1 31 4
M  V30 32 1 29 8
M  V30 33 1 29 11
M  V30 34 2 27 16
M  V30 35 1 26 20
M  V30 36 1 1 32
M  V30 37 1 1 33
M  V30 38 1 1 34
M  V30 39 1 2 35
M  V30 40 1 2 36
M  V30 41 1 5 37
M  V30 42 1 6 38
M  V30 43 1 12 39
M  V30 44 1 15 40
M  V30 45 1 17 41
M  V30 46 1 20 42
M  V30 47 1 21 43
M  V30 48 1 21 44
M  V30 49 1 22 45
M  V30 50 1 22 46
M  V30 51 1 24 47
M  V30 52 1 24 48
M  V30 53 1 24 49
M  V30 54 1 25 50
M  V30 55 1 25 51
M  V30 56 1 26 52
M  V30 57 1 26 53
M  V30 58 1 27 54
M  V30 59 1 30 55
M  V30 60 1 31 56
M  V30 END BOND
M  V30 END CTAB
M  END
>  <Dataset>  (19) 
ChEMBL_Kinases

>  <Ligand_Instance>  (19) 
nan

>  <PDB_ID>  (19) 
nan

>  <Standardized_SMILES>  (19) 
CCOc1ccc(-n2nnc3cnc(Nc4cnn(C5CCN(C)CC5)c4)nc32)cc1

>  <Name>  (19) 
nan

>  <Pocket>  (19) 
nan

>  <ATP_Site>  (19) 
nan

>  <Peripheral>  (19) 
nan

>  <Num_H_Atoms_ProtBoundConf>  (19) 
nan

>  <Num_Resolved_Atoms>  (19) 
nan

>  <Num_Not_Resolved_Atoms>  (19) 
nan

$$$$
CHEMBL4741143
     RDKit          3D

  0  0  0  0  0  0  0  0  0  0999 V3000
M  V30 BEGIN CTAB
M  V30 COUNTS 47 50 0 0 0
M  V30 BEGIN ATOM
M  V30 1 N 0.968837 -3.382644 5.775818 0
M  V30 2 C 0.978076 -3.684602 4.644291 0
M  V30 3 C 0.977727 -4.050672 3.223098 0
M  V30 4 C 1.123354 -2.852475 2.391993 0
M  V30 5 C 2.044177 -2.528106 1.417212 0
M  V30 6 C 1.984227 -1.319846 0.755043 0
M  V30 7 C 1.000495 -0.398275 1.047969 0
M  V30 8 C 1.034646 0.846299 0.284009 0
M  V30 9 C 2.265480 1.321473 -0.116910 0
M  V30 10 N 2.380020 2.476080 -0.833260 0
M  V30 11 C 1.292485 3.187243 -1.170608 0
M  V30 12 N 1.268981 4.390879 -1.904829 0
M  V30 13 C 0.049520 2.728412 -0.778529 0
M  V30 14 C -1.262015 3.365104 -1.049545 0
M  V30 15 C -1.442106 4.725522 -0.876736 0
M  V30 16 C -2.672368 5.293445 -1.135527 0
M  V30 17 C -3.743280 4.521497 -1.569728 0
M  V30 18 Cl -5.285406 5.335736 -1.877167 0
M  V30 19 C -3.555016 3.165785 -1.739444 0
M  V30 20 C -2.327178 2.577542 -1.484655 0
M  V30 21 C -0.101495 1.559594 -0.050268 0
M  V30 22 C 0.065716 -0.696947 2.019416 0
M  V30 23 C 0.120054 -1.921365 2.695898 0
M  V30 24 C 1.999563 -5.122006 2.995194 0
M  V30 25 C 1.374907 -6.074211 1.972462 0
M  V30 26 C -0.047717 -6.116150 2.420292 0
M  V30 27 C -0.354593 -4.758630 2.945578 0
M  V30 28 H 2.760861 -3.294571 1.259499 0
M  V30 29 H 2.738591 -1.137493 0.005464 0
M  V30 30 H 3.211338 0.871586 0.073465 0
M  V30 31 H 1.662072 5.264481 -1.479091 0
M  V30 32 H 0.850266 4.368052 -2.870694 0
M  V30 33 H -0.587390 5.294371 -0.537947 0
M  V30 34 H -2.720315 6.368751 -0.971792 0
M  V30 35 H -4.409772 2.567158 -2.083103 0
M  V30 36 H -2.179817 1.516205 -1.617540 0
M  V30 37 H -1.026043 1.129268 0.295619 0
M  V30 38 H -0.687580 0.051074 2.218699 0
M  V30 39 H -0.673659 -2.021072 3.430085 0
M  V30 40 H 2.958154 -4.806538 2.597546 0
M  V30 41 H 2.124309 -5.726849 3.928495 0
M  V30 42 H 1.428117 -5.584862 0.975886 0
M  V30 43 H 1.849860 -7.067393 2.007283 0
M  V30 44 H -0.727611 -6.405261 1.586080 0
M  V30 45 H -0.192113 -6.874749 3.239986 0
M  V30 46 H -0.957491 -4.187693 2.192717 0
M  V30 47 H -0.968781 -4.857420 3.869872 0
M  V30 END ATOM
M  V30 BEGIN BOND
M  V30 1 3 1 2
M  V30 2 1 2 3
M  V30 3 1 3 4
M  V30 4 2 4 5
M  V30 5 1 5 6
M  V30 6 2 6 7
M  V30 7 1 7 8
M  V30 8 2 8 9
M  V30 9 1 9 10
M  V30 10 2 10 11
M  V30 11 1 11 12
M  V30 12 1 11 13
M  V30 13 1 13 14
M  V30 14 2 14 15
M  V30 15 1 15 16
M  V30 16 2 16 17
M  V30 17 1 17 18
M  V30 18 1 17 19
M  V30 19 2 19 20
M  V30 20 2 13 21
M  V30 21 1 7 22
M  V30 22 2 22 23
M  V30 23 1 3 24
M  V30 24 1 24 25
M  V30 25 1 25 26
M  V30 26 1 26 27
M  V30 27 1 27 3
M  V30 28 1 23 4
M  V30 29 1 21 8
M  V30 30 1 20 14
M  V30 31 1 5 28
M  V30 32 1 6 29
M  V30 33 1 9 30
M  V30 34 1 12 31
M  V30 35 1 12 32
M  V30 36 1 15 33
M  V30 37 1 16 34
M  V30 38 1 19 35
M  V30 39 1 20 36
M  V30 40 1 21 37
M  V30 41 1 22 38
M  V30 42 1 23 39
M  V30 43 1 24 40
M  V30 44 1 24 41
M  V30 45 1 25 42
M  V30 46 1 25 43
M  V30 47 1 26 44
M  V30 48 1 26 45
M  V30 49 1 27 46
M  V30 50 1 27 47
M  V30 END BOND
M  V30 END CTAB
M  END
>  <Dataset>  (20) 
ChEMBL_Kinases

>  <Ligand_Instance>  (20) 
nan

>  <PDB_ID>  (20) 
nan

>  <Standardized_SMILES>  (20) 
N#CC1(c2ccc(-c3cnc(N)c(-c4ccc(Cl)cc4)c3)cc2)CCCC1

>  <Name>  (20) 
nan

>  <Pocket>  (20) 
nan

>  <ATP_Site>  (20) 
nan

>  <Peripheral>  (20) 
nan

>  <Num_H_Atoms_ProtBoundConf>  (20) 
nan

>  <Num_Resolved_Atoms>  (20) 
nan

>  <Num_Not_Resolved_Atoms>  (20) 
nan

$$$$
CHEMBL4741147
     RDKit          3D

  0  0  0  0  0  0  0  0  0  0999 V3000
M  V30 BEGIN CTAB
M  V30 COUNTS 51 54 0 0 0
M  V30 BEGIN ATOM
M  V30 1 C -3.851735 -2.943874 -0.855448 0
M  V30 2 C -2.457986 -3.588008 -0.912656 0 CFG=1
M  V30 3 O -1.559321 -2.609235 -0.568959 0
M  V30 4 C -0.541996 -2.010765 -1.230347 0
M  V30 5 C 0.084419 -1.051312 -0.419620 0
M  V30 6 C 1.168488 -0.296805 -0.883647 0
M  V30 7 C 1.827213 0.704357 -0.047404 0
M  V30 8 C 2.895376 1.450257 -0.499641 0
M  V30 9 N 3.211176 2.249655 0.558821 0
M  V30 10 N 2.391247 2.002627 1.576407 0
M  V30 11 C 2.427157 2.662091 2.867397 0
M  V30 12 C 3.540643 3.672091 2.900722 0
M  V30 13 C 3.245728 4.853493 2.028860 0
M  V30 14 N 1.968058 5.443315 2.272219 0
M  V30 15 C 1.224083 4.813809 3.345003 0
M  V30 16 C 1.082663 3.322035 3.077406 0
M  V30 17 C 1.496656 1.036348 1.251685 0
M  V30 18 N 1.616602 -0.499710 -2.136444 0
M  V30 19 N 1.029157 -1.407433 -2.913151 0
M  V30 20 C -0.013232 -2.147185 -2.496337 0
M  V30 21 N -0.682208 -3.126766 -3.269514 0
M  V30 22 C -2.512446 -4.725914 0.043181 0
M  V30 23 C -2.910955 -5.989893 -0.392483 0
M  V30 24 Cl -3.350973 -6.249682 -2.068335 0
M  V30 25 C -2.990984 -7.101906 0.422700 0
M  V30 26 C -2.649647 -6.928461 1.752164 0
M  V30 27 C -2.250633 -5.693494 2.220563 0
M  V30 28 F -1.915186 -5.508913 3.512240 0
M  V30 29 C -2.173489 -4.576993 1.387914 0
M  V30 30 Cl -1.666128 -3.016677 1.993879 0
M  V30 31 H -4.040934 -2.344695 -1.779270 0
M  V30 32 H -4.648222 -3.692498 -0.683121 0
M  V30 33 H -3.922825 -2.204990 -0.024607 0
M  V30 34 H -2.390771 -4.016146 -1.922495 0
M  V30 35 H -0.191068 -0.798415 0.614721 0
M  V30 36 H 3.392494 1.433111 -1.460373 0
M  V30 37 H 2.551895 1.919800 3.681030 0
M  V30 38 H 3.839150 3.953092 3.926516 0
M  V30 39 H 4.443458 3.177022 2.456221 0
M  V30 40 H 4.011878 5.634159 2.302851 0
M  V30 41 H 3.435774 4.586282 0.955732 0
M  V30 42 H 1.407336 5.433554 1.393815 0
M  V30 43 H 1.638671 5.045966 4.333575 0
M  V30 44 H 0.195743 5.235780 3.325311 0
M  V30 45 H 0.452446 3.242005 2.178058 0
M  V30 46 H 0.513302 2.862923 3.904087 0
M  V30 47 H 0.705881 0.620574 1.867436 0
M  V30 48 H -0.463682 -4.054426 -3.694472 0
M  V30 49 H -0.366344 -4.057675 -3.661136 0
M  V30 50 H -3.299371 -8.063632 0.068283 0
M  V30 51 H -2.698853 -7.775554 2.425324 0
M  V30 END ATOM
M  V30 BEGIN BOND
M  V30 1 1 1 2
M  V30 2 1 2 3
M  V30 3 1 3 4
M  V30 4 2 4 5
M  V30 5 1 5 6
M  V30 6 1 6 7
M  V30 7 1 7 8
M  V30 8 2 8 9
M  V30 9 1 9 10
M  V30 10 1 10 11
M  V30 11 1 11 12
M  V30 12 1 12 13
M  V30 13 1 13 14
M  V30 14 1 14 15
M  V30 15 1 15 16
M  V30 16 1 10 17
M  V30 17 2 6 18
M  V30 18 1 18 19
M  V30 19 2 19 20
M  V30 20 1 20 21
M  V30 21 1 2 22
M  V30 22 2 22 23
M  V30 23 1 23 24
M  V30 24 1 23 25
M  V30 25 2 25 26
M  V30 26 1 26 27
M  V30 27 1 27 28
M  V30 28 2 27 29
M  V30 29 1 29 30
M  V30 30 1 20 4
M  V30 31 1 29 22
M  V30 32 2 17 7
M  V30 33 1 16 11
M  V30 34 1 1 31
M  V30 35 1 1 32
M  V30 36 1 1 33
M  V30 37 1 2 34 CFG=3
M  V30 38 1 5 35
M  V30 39 1 8 36
M  V30 40 1 11 37
M  V30 41 1 12 38
M  V30 42 1 12 39
M  V30 43 1 13 40
M  V30 44 1 13 41
M  V30 45 1 14 42
M  V30 46 1 15 43
M  V30 47 1 15 44
M  V30 48 1 16 45
M  V30 49 1 16 46
M  V30 50 1 17 47
M  V30 51 1 21 48
M  V30 52 1 21 49
M  V30 53 1 25 50
M  V30 54 1 26 51
M  V30 END BOND
M  V30 END CTAB
M  END
>  <Dataset>  (21) 
ChEMBL_Kinases

>  <Ligand_Instance>  (21) 
nan

>  <PDB_ID>  (21) 
nan

>  <Standardized_SMILES>  (21) 
C[C@@H](Oc1cc(-c2cnn(C3CCNCC3)c2)nnc1N)c1c(Cl)ccc(F)c1Cl

>  <Name>  (21) 
nan

>  <Pocket>  (21) 
nan

>  <ATP_Site>  (21) 
nan

>  <Peripheral>  (21) 
nan

>  <Num_H_Atoms_ProtBoundConf>  (21) 
nan

>  <Num_Resolved_Atoms>  (21) 
nan

>  <Num_Not_Resolved_Atoms>  (21) 
nan

$$$$
CHEMBL4741213
     RDKit          3D

  0  0  0  0  0  0  0  0  0  0999 V3000
M  V30 BEGIN CTAB
M  V30 COUNTS 50 53 0 0 0
M  V30 BEGIN ATOM
M  V30 1 C 0.521111 -2.161625 -0.942493 0
M  V30 2 C 1.148471 -1.127726 -0.047258 0
M  V30 3 C 2.003476 -0.195633 -0.554517 0
M  V30 4 C 2.671961 0.698388 0.306833 0
M  V30 5 C 2.415829 0.577288 1.639865 0
M  V30 6 C 3.120111 1.338883 2.727110 0
M  V30 7 O 2.919449 1.355702 3.944092 0
M  V30 8 N 4.142873 2.091377 2.161600 0
M  V30 9 C 5.154246 2.984831 2.793948 0
M  V30 10 C 6.574000 2.450827 2.561214 0
M  V30 11 C 6.108202 3.757625 2.005960 0
M  V30 12 C 1.562037 -0.336107 2.221371 0
M  V30 13 C 0.929684 -1.188463 1.354453 0
M  V30 14 N -0.071884 -2.205159 1.717031 0
M  V30 15 C 0.036096 -3.493553 2.134356 0
M  V30 16 C -1.237415 -3.995255 2.253313 0
M  V30 17 N -2.355509 -3.333389 2.002302 0
M  V30 18 C -2.475801 -1.986455 1.564692 0
M  V30 19 N -3.961475 -2.300257 1.615652 0
M  V30 20 C -4.289148 -1.159458 0.746773 0
M  V30 21 C -4.200088 -1.394451 -0.682948 0
M  V30 22 C -5.235395 -1.024057 -1.460597 0
M  V30 23 C -5.552203 -1.013120 -2.859126 0
M  V30 24 C -4.383157 -1.568076 -3.471191 0
M  V30 25 C -3.182095 -2.029517 -2.822910 0
M  V30 26 C -3.244075 -1.883485 -1.493440 0
M  V30 27 C -1.267705 -1.733480 1.524583 0
M  V30 28 O -1.572021 -0.546838 1.122024 0
M  V30 29 H 0.193187 -3.025439 -0.287013 0
M  V30 30 H 1.322846 -2.640668 -1.583747 0
M  V30 31 H -0.230127 -1.734086 -1.588222 0
M  V30 32 H 2.227760 -0.083980 -1.616721 0
M  V30 33 H 3.312481 1.431798 -0.120384 0
M  V30 34 H 4.417391 2.241187 1.171854 0
M  V30 35 H 4.956475 3.162878 3.856545 0
M  V30 36 H 6.655246 1.582225 1.849907 0
M  V30 37 H 7.230255 2.364863 3.422644 0
M  V30 38 H 6.023473 3.803274 0.889077 0
M  V30 39 H 6.520269 4.676301 2.466043 0
M  V30 40 H 1.256744 -0.552624 3.196908 0
M  V30 41 H 1.064956 -3.728332 2.242238 0
M  V30 42 H -0.985894 -5.051436 2.591509 0
M  V30 43 H -4.745666 -2.849521 1.952537 0
M  V30 44 H -3.676574 -0.282701 1.018965 0
M  V30 45 H -5.359530 -0.891539 1.043010 0
M  V30 46 H -6.155836 -0.586391 -0.979572 0
M  V30 47 H -6.339412 -0.727115 -3.480949 0
M  V30 48 H -4.310776 -1.656997 -4.542690 0
M  V30 49 H -2.392432 -2.414776 -3.426178 0
M  V30 50 H -2.362889 -2.257173 -0.969189 0
M  V30 END ATOM
M  V30 BEGIN BOND
M  V30 1 1 1 2
M  V30 2 2 2 3
M  V30 3 1 3 4
M  V30 4 2 4 5
M  V30 5 1 5 6
M  V30 6 2 6 7
M  V30 7 1 6 8
M  V30 8 1 8 9
M  V30 9 1 9 10
M  V30 10 1 10 11
M  V30 11 1 5 12
M  V30 12 2 12 13
M  V30 13 1 13 14
M  V30 14 1 14 15
M  V30 15 2 15 16
M  V30 16 1 16 17
M  V30 17 2 17 18
M  V30 18 1 18 19
M  V30 19 1 19 20
M  V30 20 1 20 21
M  V30 21 2 21 22
M  V30 22 1 22 23
M  V30 23 2 23 24
M  V30 24 1 24 25
M  V30 25 2 25 26
M  V30 26 1 18 27
M  V30 27 2 27 28
M  V30 28 1 13 2
M  V30 29 1 27 14
M  V30 30 1 11 9
M  V30 31 1 26 21
M  V30 32 1 1 29
M  V30 33 1 1 30
M  V30 34 1 1 31
M  V30 35 1 3 32
M  V30 36 1 4 33
M  V30 37 1 8 34
M  V30 38 1 9 35
M  V30 39 1 10 36
M  V30 40 1 10 37
M  V30 41 1 11 38
M  V30 42 1 11 39
M  V30 43 1 12 40
M  V30 44 1 15 41
M  V30 45 1 16 42
M  V30 46 1 19 43
M  V30 47 1 20 44
M  V30 48 1 20 45
M  V30 49 1 22 46
M  V30 50 1 23 47
M  V30 51 1 24 48
M  V30 52 1 25 49
M  V30 53 1 26 50
M  V30 END BOND
M  V30 END CTAB
M  END
>  <Dataset>  (22) 
ChEMBL_Kinases

>  <Ligand_Instance>  (22) 
nan

>  <PDB_ID>  (22) 
nan

>  <Standardized_SMILES>  (22) 
Cc1ccc(C(=O)NC2CC2)cc1-n1ccnc(NCc2ccccc2)c1=O

>  <Name>  (22) 
nan

>  <Pocket>  (22) 
nan

>  <ATP_Site>  (22) 
nan

>  <Peripheral>  (22) 
nan

>  <Num_H_Atoms_ProtBoundConf>  (22) 
nan

>  <Num_Resolved_Atoms>  (22) 
nan

>  <Num_Not_Resolved_Atoms>  (22) 
nan

$$$$
CHEMBL4741217
     RDKit          3D

  0  0  0  0  0  0  0  0  0  0999 V3000
M  V30 BEGIN CTAB
M  V30 COUNTS 52 55 0 0 0
M  V30 BEGIN ATOM
M  V30 1 C 4.046266 -2.245734 1.927709 0
M  V30 2 C 5.027206 -1.273320 1.427774 0
M  V30 3 N 6.157630 -1.637402 0.798194 0
M  V30 4 O 6.815482 -0.539249 0.507490 0
M  V30 5 C 6.099249 0.491317 0.952210 0
M  V30 6 C 6.682527 1.844732 0.716202 0
M  V30 7 C 4.915855 0.088147 1.565386 0
M  V30 8 C 3.937553 1.022321 2.115572 0
M  V30 9 C 2.780811 1.374682 1.255011 0
M  V30 10 C 1.896045 0.294105 0.835743 0
M  V30 11 O 1.453504 -0.895655 0.744081 0
M  V30 12 N 0.863579 0.891113 0.008729 0
M  V30 13 C -0.185563 0.028023 -0.566102 0
M  V30 14 C -1.173221 0.780361 -1.392924 0
M  V30 15 C -2.255079 -0.069582 -1.998595 0
M  V30 16 N -3.033624 -0.761371 -1.017261 0
M  V30 17 C -4.146831 -0.269320 -0.434034 0
M  V30 18 O -4.532915 0.875223 -0.767228 0
M  V30 19 C -4.837131 -1.015268 0.505431 0
M  V30 20 C -5.975196 -0.481368 1.085875 0
M  V30 21 C -6.640715 -1.246165 2.017529 0
M  V30 22 F -7.767040 -0.715028 2.591397 0
M  V30 23 C -6.237976 -2.527455 2.412589 0
M  V30 24 C -5.088327 -3.022611 1.802105 0
M  V30 25 C -4.426486 -2.273103 0.881780 0
M  V30 26 N -3.329164 -2.750381 0.302577 0
M  V30 27 C -2.685727 -3.903275 0.440603 0
M  V30 28 S -2.934917 -5.218244 1.352434 0
M  V30 29 N -1.620093 -3.902803 -0.378058 0
M  V30 30 N -1.626582 -2.736499 -1.012846 0
M  V30 31 C -2.679987 -2.003577 -0.605664 0
M  V30 32 H 3.558375 -2.767915 1.097377 0
M  V30 33 H 3.284242 -1.791705 2.593702 0
M  V30 34 H 4.573170 -3.012020 2.551324 0
M  V30 35 H 6.217846 2.594270 1.388203 0
M  V30 36 H 6.523777 2.078807 -0.364761 0
M  V30 37 H 7.770126 1.871003 0.892426 0
M  V30 38 H 4.463341 1.992118 2.349945 0
M  V30 39 H 3.575958 0.651393 3.114953 0
M  V30 40 H 3.175119 1.890503 0.339979 0
M  V30 41 H 2.195721 2.167082 1.800051 0
M  V30 42 H 0.726633 1.919920 -0.272285 0
M  V30 43 H -0.655762 -0.473059 0.306723 0
M  V30 44 H 0.338634 -0.750312 -1.154725 0
M  V30 45 H -0.608333 1.279281 -2.229549 0
M  V30 46 H -1.632989 1.569490 -0.749110 0
M  V30 47 H -1.797928 -0.780875 -2.722640 0
M  V30 48 H -2.948004 0.574950 -2.579517 0
M  V30 49 H -6.358528 0.505787 0.837089 0
M  V30 50 H -6.841517 -3.042563 3.159034 0
M  V30 51 H -4.848651 -4.004518 2.157928 0
M  V30 52 H -0.846023 -4.570791 -0.606165 0
M  V30 END ATOM
M  V30 BEGIN BOND
M  V30 1 1 1 2
M  V30 2 2 2 3
M  V30 3 1 3 4
M  V30 4 1 4 5
M  V30 5 1 5 6
M  V30 6 2 5 7
M  V30 7 1 7 8
M  V30 8 1 8 9
M  V30 9 1 9 10
M  V30 10 2 10 11
M  V30 11 1 10 12
M  V30 12 1 12 13
M  V30 13 1 13 14
M  V30 14 1 14 15
M  V30 15 1 15 16
M  V30 16 1 16 17
M  V30 17 2 17 18
M  V30 18 1 17 19
M  V30 19 2 19 20
M  V30 20 1 20 21
M  V30 21 1 21 22
M  V30 22 2 21 23
M  V30 23 1 23 24
M  V30 24 2 24 25
M  V30 25 1 25 26
M  V30 26 1 26 27
M  V30 27 2 27 28
M  V30 28 1 27 29
M  V30 29 1 29 30
M  V30 30 2 30 31
M  V30 31 1 7 2
M  V30 32 1 31 16
M  V30 33 1 25 19
M  V30 34 1 31 26
M  V30 35 1 1 32
M  V30 36 1 1 33
M  V30 37 1 1 34
M  V30 38 1 6 35
M  V30 39 1 6 36
M  V30 40 1 6 37
M  V30 41 1 8 38
M  V30 42 1 8 39
M  V30 43 1 9 40
M  V30 44 1 9 41
M  V30 45 1 12 42
M  V30 46 1 13 43
M  V30 47 1 13 44
M  V30 48 1 14 45
M  V30 49 1 14 46
M  V30 50 1 15 47
M  V30 51 1 15 48
M  V30 52 1 20 49
M  V30 53 1 23 50
M  V30 54 1 24 51
M  V30 55 1 29 52
M  V30 END BOND
M  V30 END CTAB
M  END
>  <Dataset>  (23) 
ChEMBL_Kinases

>  <Ligand_Instance>  (23) 
nan

>  <PDB_ID>  (23) 
nan

>  <Standardized_SMILES>  (23) 
Cc1noc(C)c1CCC(=O)NCCCn1c(=O)c2cc(F)ccc2n2c(=S)[nH]nc12

>  <Name>  (23) 
nan

>  <Pocket>  (23) 
nan

>  <ATP_Site>  (23) 
nan

>  <Peripheral>  (23) 
nan

>  <Num_H_Atoms_ProtBoundConf>  (23) 
nan

>  <Num_Resolved_Atoms>  (23) 
nan

>  <Num_Not_Resolved_Atoms>  (23) 
nan

$$$$
CHEMBL4741219
     RDKit          3D

  0  0  0  0  0  0  0  0  0  0999 V3000
M  V30 BEGIN CTAB
M  V30 COUNTS 81 87 0 0 0
M  V30 BEGIN ATOM
M  V30 1 C -3.922619 -8.241005 2.289247 0
M  V30 2 N -4.294721 -6.963576 1.688206 0
M  V30 3 C -3.792284 -5.776696 2.312525 0
M  V30 4 O -3.075325 -5.970592 3.325229 0
M  V30 5 C -4.212405 -4.530774 1.646252 0
M  V30 6 S -5.245157 -4.274817 0.189240 0
M  V30 7 C -5.083092 -2.432462 0.295070 0
M  V30 8 C -5.790565 -1.604148 -0.749784 0
M  V30 9 C -6.524978 -2.178430 -1.734257 0
M  V30 10 C -7.126133 -1.303523 -2.641264 0
M  V30 11 N -6.936939 0.017593 -2.475993 0
M  V30 12 C -6.200853 0.557591 -1.486148 0
M  V30 13 N -6.094733 1.974303 -1.447796 0
M  V30 14 C -6.847920 3.010648 -0.833592 0
M  V30 15 O -7.856488 2.706292 -0.146535 0
M  V30 16 C -6.274715 4.346620 -1.130372 0
M  V30 17 C -4.806766 4.537198 -1.193831 0
M  V30 18 C -5.673006 4.619876 -2.464485 0
M  V30 19 C -5.584282 -0.276381 -0.560687 0
M  V30 20 N -4.399058 -2.271834 1.238892 0
M  V30 21 C -3.899296 -3.221639 1.997724 0
M  V30 22 O -3.094724 -2.989892 3.103552 0
M  V30 23 C -2.700267 -1.734422 3.574190 0
M  V30 24 C -1.920354 -0.966529 2.533029 0
M  V30 25 C -0.700872 -1.665312 2.115363 0
M  V30 26 C 0.130224 -1.082480 1.152278 0
M  V30 27 N 1.153222 -1.966383 0.989178 0
M  V30 28 C 2.244196 -1.708650 0.046941 0
M  V30 29 C 3.371328 -0.958506 0.740661 0
M  V30 30 N 4.398249 -0.742867 -0.256921 0
M  V30 31 C 5.658249 -0.114573 -0.182749 0
M  V30 32 C 5.672883 1.255471 -0.452693 0
M  V30 33 C 6.822260 2.051447 -0.432596 0
M  V30 34 N 7.989767 1.417822 -0.125377 0
M  V30 35 C 8.016070 0.100391 0.140475 0
M  V30 36 C 9.201213 -0.527229 0.447811 0
M  V30 37 C 9.244144 -1.879301 0.722137 0
M  V30 38 Cl 10.781234 -2.633788 1.108932 0
M  V30 39 C 8.063292 -2.628135 0.687733 0
M  V30 40 C 6.847782 -2.034208 0.382286 0
M  V30 41 C 6.880167 -0.683340 0.120043 0
M  V30 42 C 6.674376 3.487628 -0.741048 0
M  V30 43 C 5.809722 3.743023 -1.954811 0
M  V30 44 C 4.594379 2.853669 -2.024080 0
M  V30 45 C 4.437946 1.999953 -0.791262 0
M  V30 46 N 0.938925 -2.988830 1.794737 0
M  V30 47 N -0.158588 -2.839019 2.479474 0
M  V30 48 H -4.117079 -9.032710 1.515922 0
M  V30 49 H -4.440085 -8.441012 3.237003 0
M  V30 50 H -2.810236 -8.248760 2.408153 0
M  V30 51 H -4.912953 -6.936570 0.823284 0
M  V30 52 H -6.630676 -3.252622 -1.801386 0
M  V30 53 H -7.717753 -1.729788 -3.436392 0
M  V30 54 H -5.227690 2.077237 -2.052343 0
M  V30 55 H -6.820552 5.210811 -0.677181 0
M  V30 56 H -4.354367 5.472618 -0.814557 0
M  V30 57 H -4.106126 3.692392 -1.204859 0
M  V30 58 H -5.576265 3.814094 -3.210883 0
M  V30 59 H -5.733599 5.639807 -2.897503 0
M  V30 60 H -5.008608 0.172979 0.210265 0
M  V30 61 H -3.599848 -1.129514 3.848556 0
M  V30 62 H -2.038111 -1.837926 4.448812 0
M  V30 63 H -1.679242 0.038000 2.959388 0
M  V30 64 H -2.612909 -0.757431 1.692165 0
M  V30 65 H 0.019428 -0.133505 0.625791 0
M  V30 66 H 1.898796 -1.077962 -0.787186 0
M  V30 67 H 2.597300 -2.675962 -0.355332 0
M  V30 68 H 3.030285 0.047228 1.047816 0
M  V30 69 H 3.771785 -1.489431 1.616042 0
M  V30 70 H 4.470696 -0.996419 -1.281041 0
M  V30 71 H 10.119062 0.057789 0.473480 0
M  V30 72 H 8.084365 -3.690657 0.901207 0
M  V30 73 H 5.925551 -2.608425 0.353493 0
M  V30 74 H 6.319093 4.056053 0.161922 0
M  V30 75 H 7.682114 3.888039 -0.972499 0
M  V30 76 H 5.502623 4.817315 -1.909109 0
M  V30 77 H 6.432115 3.612041 -2.854200 0
M  V30 78 H 3.671264 3.470940 -2.085144 0
M  V30 79 H 4.594808 2.193381 -2.909295 0
M  V30 80 H 4.068910 2.610582 0.054442 0
M  V30 81 H 3.644896 1.250266 -0.992580 0
M  V30 END ATOM
M  V30 BEGIN BOND
M  V30 1 1 1 2
M  V30 2 1 2 3
M  V30 3 2 3 4
M  V30 4 1 3 5
M  V30 5 1 5 6
M  V30 6 1 6 7
M  V30 7 1 7 8
M  V30 8 2 8 9
M  V30 9 1 9 10
M  V30 10 2 10 11
M  V30 11 1 11 12
M  V30 12 1 12 13
M  V30 13 1 13 14
M  V30 14 2 14 15
M  V30 15 1 14 16
M  V30 16 1 16 17
M  V30 17 1 17 18
M  V30 18 2 12 19
M  V30 19 2 7 20
M  V30 20 1 20 21
M  V30 21 1 21 22
M  V30 22 1 22 23
M  V30 23 1 23 24
M  V30 24 1 24 25
M  V30 25 2 25 26
M  V30 26 1 26 27
M  V30 27 1 27 28
M  V30 28 1 28 29
M  V30 29 1 29 30
M  V30 30 1 30 31
M  V30 31 2 31 32
M  V30 32 1 32 33
M  V30 33 2 33 34
M  V30 34 1 34 35
M  V30 35 2 35 36
M  V30 36 1 36 37
M  V30 37 1 37 38
M  V30 38 2 37 39
M  V30 39 1 39 40
M  V30 40 2 40 41
M  V30 41 1 33 42
M  V30 42 1 42 43
M  V30 43 1 43 44
M  V30 44 1 44 45
M  V30 45 1 27 46
M  V30 46 2 46 47
M  V30 47 2 21 5
M  V30 48 1 47 25
M  V30 49 1 19 8
M  V30 50 1 41 31
M  V30 51 1 18 16
M  V30 52 1 45 32
M  V30 53 1 41 35
M  V30 54 1 1 48
M  V30 55 1 1 49
M  V30 56 1 1 50
M  V30 57 1 2 51
M  V30 58 1 9 52
M  V30 59 1 10 53
M  V30 60 1 13 54
M  V30 61 1 16 55
M  V30 62 1 17 56
M  V30 63 1 17 57
M  V30 64 1 18 58
M  V30 65 1 18 59
M  V30 66 1 19 60
M  V30 67 1 23 61
M  V30 68 1 23 62
M  V30 69 1 24 63
M  V30 70 1 24 64
M  V30 71 1 26 65
M  V30 72 1 28 66
M  V30 73 1 28 67
M  V30 74 1 29 68
M  V30 75 1 29 69
M  V30 76 1 30 70
M  V30 77 1 36 71
M  V30 78 1 39 72
M  V30 79 1 40 73
M  V30 80 1 42 74
M  V30 81 1 42 75
M  V30 82 1 43 76
M  V30 83 1 43 77
M  V30 84 1 44 78
M  V30 85 1 44 79
M  V30 86 1 45 80
M  V30 87 1 45 81
M  V30 END BOND
M  V30 END CTAB
M  END
>  <Dataset>  (24) 
ChEMBL_Kinases

>  <Ligand_Instance>  (24) 
nan

>  <PDB_ID>  (24) 
nan

>  <Standardized_SMILES>  (24) 
CNC(=O)c1sc(-c2ccnc(NC(=O)C3CC3)c2)nc1OCCc1cn(CCNc2c3c(nc4cc(Cl)ccc24)CCCC3)nn1

>  <Name>  (24) 
nan

>  <Pocket>  (24) 
nan

>  <ATP_Site>  (24) 
nan

>  <Peripheral>  (24) 
nan

>  <Num_H_Atoms_ProtBoundConf>  (24) 
nan

>  <Num_Resolved_Atoms>  (24) 
nan

>  <Num_Not_Resolved_Atoms>  (24) 
nan

$$$$
CHEMBL4461247
     RDKit          3D

  0  0  0  0  0  0  0  0  0  0999 V3000
M  V30 BEGIN CTAB
M  V30 COUNTS 39 42 0 0 0
M  V30 BEGIN ATOM
M  V30 1 C -1.871229 -2.000172 5.846479 0
M  V30 2 C -0.948039 -1.649919 4.870971 0
M  V30 3 C -1.281609 -1.432189 3.550409 0
M  V30 4 C -0.218088 -1.069201 2.623375 0
M  V30 5 C -0.432714 -0.828010 1.282169 0
M  V30 6 C 0.586276 -0.478562 0.385131 0
M  V30 7 N 0.241526 -0.262336 -0.993182 0
M  V30 8 C 0.670885 -1.003114 -2.157337 0
M  V30 9 C 1.069069 -0.057926 -3.239778 0
M  V30 10 N 0.564076 1.263667 -3.069465 0
M  V30 11 C -0.755567 1.322385 -2.445722 0
M  V30 12 C -0.649114 0.869081 -0.981907 0
M  V30 13 C 1.839693 -0.392040 0.952334 0
M  V30 14 C 2.865760 -0.054520 0.130461 0
M  V30 15 C 4.147662 0.054275 0.620181 0
M  V30 16 N 4.378448 -0.174075 1.910581 0
M  V30 17 C 3.351401 -0.509235 2.721237 0
M  V30 18 C 2.046801 -0.633823 2.290373 0
M  V30 19 N 1.030263 -0.967502 3.111535 0
M  V30 20 C -2.607578 -1.575060 3.201198 0
M  V30 21 C -3.506659 -1.923475 4.186750 0
M  V30 22 N -3.177695 -2.135035 5.473684 0
M  V30 23 H -1.578134 -2.165594 6.880935 0
M  V30 24 H 0.078820 -1.560222 5.243180 0
M  V30 25 H -1.427852 -0.905226 0.874712 0
M  V30 26 H -0.144167 -1.686138 -2.504018 0
M  V30 27 H 1.512741 -1.671396 -1.888078 0
M  V30 28 H 2.198170 0.005759 -3.237958 0
M  V30 29 H 0.776774 -0.504033 -4.227894 0
M  V30 30 H 0.445523 1.675276 -4.019019 0
M  V30 31 H -1.473054 0.686790 -2.983189 0
M  V30 32 H -1.096646 2.367264 -2.513953 0
M  V30 33 H -1.664967 0.666477 -0.640537 0
M  V30 34 H -0.260094 1.755708 -0.444779 0
M  V30 35 H 2.721818 0.136879 -0.900088 0
M  V30 36 H 5.029183 0.316686 0.047301 0
M  V30 37 H 3.557879 -0.691016 3.766714 0
M  V30 38 H -2.895272 -1.413488 2.189646 0
M  V30 39 H -4.537324 -2.017743 3.833660 0
M  V30 END ATOM
M  V30 BEGIN BOND
M  V30 1 2 1 2
M  V30 2 1 2 3
M  V30 3 1 3 4
M  V30 4 2 4 5
M  V30 5 1 5 6
M  V30 6 1 6 7
M  V30 7 1 7 8
M  V30 8 1 8 9
M  V30 9 1 9 10
M  V30 10 1 10 11
M  V30 11 1 11 12
M  V30 12 2 6 13
M  V30 13 1 13 14
M  V30 14 2 14 15
M  V30 15 1 15 16
M  V30 16 2 16 17
M  V30 17 1 17 18
M  V30 18 2 18 19
M  V30 19 2 3 20
M  V30 20 1 20 21
M  V30 21 2 21 22
M  V30 22 1 22 1
M  V30 23 1 19 4
M  V30 24 1 12 7
M  V30 25 1 18 13
M  V30 26 1 1 23
M  V30 27 1 2 24
M  V30 28 1 5 25
M  V30 29 1 8 26
M  V30 30 1 8 27
M  V30 31 1 9 28
M  V30 32 1 9 29
M  V30 33 1 10 30
M  V30 34 1 11 31
M  V30 35 1 11 32
M  V30 36 1 12 33
M  V30 37 1 12 34
M  V30 38 1 14 35
M  V30 39 1 15 36
M  V30 40 1 17 37
M  V30 41 1 20 38
M  V30 42 1 21 39
M  V30 END BOND
M  V30 END CTAB
M  END
>  <Dataset>  (25) 
ChEMBL_Kinases

>  <Ligand_Instance>  (25) 
nan

>  <PDB_ID>  (25) 
nan

>  <Standardized_SMILES>  (25) 
c1cc(-c2cc(N3CCNCC3)c3ccncc3n2)ccn1

>  <Name>  (25) 
nan

>  <Pocket>  (25) 
nan

>  <ATP_Site>  (25) 
nan

>  <Peripheral>  (25) 
nan

>  <Num_H_Atoms_ProtBoundConf>  (25) 
nan

>  <Num_Resolved_Atoms>  (25) 
nan

>  <Num_Not_Resolved_Atoms>  (25) 
nan

$$$$
CHEMBL4741011
     RDKit          3D

  0  0  0  0  0  0  0  0  0  0999 V3000
M  V30 BEGIN CTAB
M  V30 COUNTS 53 56 0 0 0
M  V30 BEGIN ATOM
M  V30 1 N 2.167759 -4.216654 3.783470 0
M  V30 2 C 1.786851 -2.962082 3.200783 0
M  V30 3 N 2.370652 -1.958864 3.898211 0
M  V30 4 C 2.188013 -0.649857 3.572282 0
M  V30 5 C 1.371601 -0.385402 2.486331 0
M  V30 6 C 1.142034 1.000356 2.093363 0
M  V30 7 C 1.080691 2.163490 2.840708 0
M  V30 8 N 0.841055 3.217932 2.006811 0
M  V30 9 N 0.750971 2.741581 0.755035 0
M  V30 10 C 0.501355 3.629372 -0.341677 0
M  V30 11 C -0.898304 4.155019 -0.426081 0
M  V30 12 C -0.853216 5.293142 -1.452469 0
M  V30 13 N -0.393851 4.839992 -2.731837 0
M  V30 14 C 0.816360 4.077754 -2.704912 0
M  V30 15 C 0.785608 2.956433 -1.686226 0
M  V30 16 C 0.926250 1.425519 0.778867 0
M  V30 17 C 0.768835 -1.390556 1.764347 0
M  V30 18 C 0.957446 -2.719513 2.099128 0
M  V30 19 O 0.466122 -3.856971 1.531057 0
M  V30 20 C -0.379645 -3.981595 0.430972 0
M  V30 21 C 0.275239 -4.658985 -0.753903 0
M  V30 22 O 1.385008 -3.915277 -1.155495 0
M  V30 23 C -1.696730 -4.580588 0.748657 0
M  V30 24 C -2.940410 -4.212571 0.279329 0
M  V30 25 Cl -2.938358 -2.858777 -0.832520 0
M  V30 26 C -4.082084 -4.857636 0.656109 0
M  V30 27 C -4.023807 -5.926425 1.542237 0
M  V30 28 C -2.800830 -6.327009 2.035572 0
M  V30 29 F -2.726741 -7.381341 2.911914 0
M  V30 30 C -1.639890 -5.655764 1.639803 0
M  V30 31 Cl -0.134198 -6.246125 2.325368 0
M  V30 32 H 3.076746 -4.609716 3.459479 0
M  V30 33 H 1.401291 -4.499336 4.461753 0
M  V30 34 H 2.648616 0.166227 4.120608 0
M  V30 35 H 1.213216 2.147959 3.912821 0
M  V30 36 H 1.219047 4.494954 -0.306293 0
M  V30 37 H -1.544605 3.367567 -0.852832 0
M  V30 38 H -1.265771 4.594055 0.519008 0
M  V30 39 H -0.202576 6.086765 -1.000049 0
M  V30 40 H -1.867731 5.684210 -1.547260 0
M  V30 41 H -0.207141 5.693435 -3.305094 0
M  V30 42 H 0.969731 3.670607 -3.728036 0
M  V30 43 H 1.734088 4.662074 -2.479787 0
M  V30 44 H -0.093153 2.312182 -1.913023 0
M  V30 45 H 1.751846 2.451336 -1.706362 0
M  V30 46 H 0.895531 0.829659 -0.112696 0
M  V30 47 H 0.133116 -1.249103 0.923395 0
M  V30 48 H -0.601813 -2.943382 0.070291 0
M  V30 49 H 0.607611 -5.676901 -0.549656 0
M  V30 50 H -0.476789 -4.717318 -1.573849 0
M  V30 51 H 1.044484 -3.205995 -1.778095 0
M  V30 52 H -5.036311 -4.549810 0.274962 0
M  V30 53 H -4.887154 -6.482048 1.883085 0
M  V30 END ATOM
M  V30 BEGIN BOND
M  V30 1 1 1 2
M  V30 2 2 2 3
M  V30 3 1 3 4
M  V30 4 2 4 5
M  V30 5 1 5 6
M  V30 6 1 6 7
M  V30 7 2 7 8
M  V30 8 1 8 9
M  V30 9 1 9 10
M  V30 10 1 10 11
M  V30 11 1 11 12
M  V30 12 1 12 13
M  V30 13 1 13 14
M  V30 14 1 14 15
M  V30 15 1 9 16
M  V30 16 1 5 17
M  V30 17 2 17 18
M  V30 18 1 18 19
M  V30 19 1 19 20
M  V30 20 1 20 21
M  V30 21 1 21 22
M  V30 22 1 20 23
M  V30 23 2 23 24
M  V30 24 1 24 25
M  V30 25 1 24 26
M  V30 26 2 26 27
M  V30 27 1 27 28
M  V30 28 1 28 29
M  V30 29 2 28 30
M  V30 30 1 30 31
M  V30 31 1 18 2
M  V30 32 1 30 23
M  V30 33 2 16 6
M  V30 34 1 15 10
M  V30 35 1 1 32
M  V30 36 1 1 33
M  V30 37 1 4 34
M  V30 38 1 7 35
M  V30 39 1 10 36
M  V30 40 1 11 37
M  V30 41 1 11 38
M  V30 42 1 12 39
M  V30 43 1 12 40
M  V30 44 1 13 41
M  V30 45 1 14 42
M  V30 46 1 14 43
M  V30 47 1 15 44
M  V30 48 1 15 45
M  V30 49 1 16 46
M  V30 50 1 17 47
M  V30 51 1 20 48
M  V30 52 1 21 49
M  V30 53 1 21 50
M  V30 54 1 22 51
M  V30 55 1 26 52
M  V30 56 1 27 53
M  V30 END BOND
M  V30 END CTAB
M  END
>  <Dataset>  (26) 
ChEMBL_Kinases

>  <Ligand_Instance>  (26) 
nan

>  <PDB_ID>  (26) 
nan

>  <Standardized_SMILES>  (26) 
Nc1ncc(-c2cnn(C3CCNCC3)c2)cc1OC(CO)c1c(Cl)ccc(F)c1Cl

>  <Name>  (26) 
nan

>  <Pocket>  (26) 
nan

>  <ATP_Site>  (26) 
nan

>  <Peripheral>  (26) 
nan

>  <Num_H_Atoms_ProtBoundConf>  (26) 
nan

>  <Num_Resolved_Atoms>  (26) 
nan

>  <Num_Not_Resolved_Atoms>  (26) 
nan

$$$$
CHEMBL4743208
     RDKit          3D

  0  0  0  0  0  0  0  0  0  0999 V3000
M  V30 BEGIN CTAB
M  V30 COUNTS 57 61 0 0 0
M  V30 BEGIN ATOM
M  V30 1 O 5.865446 -5.625461 1.049756 0
M  V30 2 S 5.426134 -4.278846 0.524258 0
M  V30 3 O 6.058292 -4.168947 -0.851322 0
M  V30 4 N 3.721987 -4.236471 0.425638 0
M  V30 5 C 3.036565 -3.102329 -0.092037 0
M  V30 6 C 1.918852 -2.634652 0.598759 0
M  V30 7 C 1.230978 -1.527522 0.111149 0
M  V30 8 C 1.675901 -0.914776 -1.054307 0
M  V30 9 C 0.972934 0.262562 -1.608511 0
M  V30 10 N -0.130442 0.840669 -1.059944 0
M  V30 11 C -0.495020 1.894834 -1.842890 0
M  V30 12 C -1.665995 2.669816 -1.442835 0
M  V30 13 C -1.636661 4.047934 -1.501800 0
M  V30 14 C -2.783321 4.690271 -1.106403 0
M  V30 15 N -3.887093 4.061935 -0.681767 0
M  V30 16 C -3.963799 2.726806 -0.606652 0
M  V30 17 N -5.159739 2.116576 -0.167370 0
M  V30 18 C -5.537064 0.789214 0.142306 0
M  V30 19 C -6.818493 0.315927 -0.070634 0
M  V30 20 C -7.255648 -0.934084 0.216930 0
M  V30 21 C -6.353788 -1.815556 0.768590 0
M  V30 22 O -6.785722 -3.096475 1.067636 0
M  V30 23 C -7.335712 -3.370097 2.363575 0
M  V30 24 F -7.708466 -4.675662 2.483851 0
M  V30 25 F -6.332297 -3.091926 3.275384 0
M  V30 26 F -8.427160 -2.526482 2.576131 0
M  V30 27 C -5.049537 -1.447510 1.023187 0
M  V30 28 C -4.705504 -0.155675 0.695393 0
M  V30 29 C -2.825223 2.068957 -0.999165 0
M  V30 30 N 0.400810 1.924359 -2.845259 0
M  V30 31 O 1.258426 0.953059 -2.688660 0
M  V30 32 C 2.779109 -1.362423 -1.751547 0
M  V30 33 C 3.449916 -2.468093 -1.246771 0
M  V30 34 C 6.115244 -3.061695 1.544250 0
M  V30 35 C 6.380667 -3.164282 2.906447 0
M  V30 36 C 6.935662 -2.115493 3.610209 0
M  V30 37 C 7.252273 -0.922281 3.003022 0
M  V30 38 Br 8.020652 0.525957 3.981834 0
M  V30 39 C 7.003422 -0.782087 1.651474 0
M  V30 40 C 6.447156 -1.837224 0.952279 0
M  V30 41 H 3.147886 -5.047964 0.745772 0
M  V30 42 H 1.564963 -3.109234 1.511231 0
M  V30 43 H 0.358189 -1.101959 0.583606 0
M  V30 44 H -0.761481 4.567151 -1.839278 0
M  V30 45 H -2.837806 5.784208 -1.125000 0
M  V30 46 H -5.986747 2.772411 -0.023436 0
M  V30 47 H -7.559328 0.991657 -0.507275 0
M  V30 48 H -8.273475 -1.240197 0.025148 0
M  V30 49 H -4.369556 -2.158917 1.455063 0
M  V30 50 H -3.678191 0.077054 0.931355 0
M  V30 51 H -2.788245 1.002498 -0.988976 0
M  V30 52 H 3.096581 -0.859162 -2.656268 0
M  V30 53 H 4.323532 -2.837046 -1.782559 0
M  V30 54 H 6.111889 -4.132101 3.346554 0
M  V30 55 H 7.123624 -2.253320 4.683750 0
M  V30 56 H 7.231002 0.142655 1.099798 0
M  V30 57 H 6.265434 -1.684309 -0.122579 0
M  V30 END ATOM
M  V30 BEGIN BOND
M  V30 1 2 1 2
M  V30 2 2 2 3
M  V30 3 1 2 4
M  V30 4 1 4 5
M  V30 5 2 5 6
M  V30 6 1 6 7
M  V30 7 2 7 8
M  V30 8 1 8 9
M  V30 9 2 9 10
M  V30 10 1 10 11
M  V30 11 1 11 12
M  V30 12 2 12 13
M  V30 13 1 13 14
M  V30 14 2 14 15
M  V30 15 1 15 16
M  V30 16 1 16 17
M  V30 17 1 17 18
M  V30 18 2 18 19
M  V30 19 1 19 20
M  V30 20 2 20 21
M  V30 21 1 21 22
M  V30 22 1 22 23
M  V30 23 1 23 24
M  V30 24 1 23 25
M  V30 25 1 23 26
M  V30 26 1 21 27
M  V30 27 2 27 28
M  V30 28 2 16 29
M  V30 29 2 11 30
M  V30 30 1 30 31
M  V30 31 1 8 32
M  V30 32 2 32 33
M  V30 33 1 2 34
M  V30 34 2 34 35
M  V30 35 1 35 36
M  V30 36 2 36 37
M  V30 37 1 37 38
M  V30 38 1 37 39
M  V30 39 2 39 40
M  V30 40 1 33 5
M  V30 41 1 40 34
M  V30 42 1 31 9
M  V30 43 1 29 12
M  V30 44 1 28 18
M  V30 45 1 4 41
M  V30 46 1 6 42
M  V30 47 1 7 43
M  V30 48 1 13 44
M  V30 49 1 14 45
M  V30 50 1 17 46
M  V30 51 1 19 47
M  V30 52 1 20 48
M  V30 53 1 27 49
M  V30 54 1 28 50
M  V30 55 1 29 51
M  V30 56 1 32 52
M  V30 57 1 33 53
M  V30 58 1 35 54
M  V30 59 1 36 55
M  V30 60 1 39 56
M  V30 61 1 40 57
M  V30 END BOND
M  V30 END CTAB
M  END
>  <Dataset>  (27) 
ChEMBL_Kinases

>  <Ligand_Instance>  (27) 
nan

>  <PDB_ID>  (27) 
nan

>  <Standardized_SMILES>  (27) 
O=S(=O)(Nc1ccc(-c2nc(-c3ccnc(Nc4ccc(OC(F)(F)F)cc4)c3)no2)cc1)c1ccc(Br)cc1

>  <Name>  (27) 
nan

>  <Pocket>  (27) 
nan

>  <ATP_Site>  (27) 
nan

>  <Peripheral>  (27) 
nan

>  <Num_H_Atoms_ProtBoundConf>  (27) 
nan

>  <Num_Resolved_Atoms>  (27) 
nan

>  <Num_Not_Resolved_Atoms>  (27) 
nan

$$$$
CHEMBL4743339
     RDKit          3D

  0  0  0  0  0  0  0  0  0  0999 V3000
M  V30 BEGIN CTAB
M  V30 COUNTS 63 67 0 0 0
M  V30 BEGIN ATOM
M  V30 1 C 6.910606 -0.047536 2.129798 0
M  V30 2 O 5.787212 0.743201 1.895802 0
M  V30 3 C 5.759511 2.081799 1.618869 0
M  V30 4 C 6.825340 2.948445 1.508774 0
M  V30 5 C 6.625882 4.272495 1.223572 0
M  V30 6 C 5.355609 4.777987 1.038632 0
M  V30 7 C 4.274149 3.911927 1.147573 0
M  V30 8 N 3.071758 4.472574 0.954432 0
M  V30 9 C 1.939767 3.751702 1.029956 0
M  V30 10 N 0.689619 4.376784 0.838012 0
M  V30 11 C -0.639218 3.900496 0.723536 0
M  V30 12 C -1.715118 4.655942 1.200632 0
M  V30 13 C -3.008672 4.235462 1.091284 0
M  V30 14 C -3.299347 3.031799 0.497038 0
M  V30 15 C -2.300659 2.225479 -0.000332 0
M  V30 16 N -2.533513 0.962575 -0.628730 0
M  V30 17 C -2.513831 -0.093412 0.324274 0
M  V30 18 O -2.307876 0.258275 1.512347 0
M  V30 19 C -2.709236 -1.503264 0.020223 0
M  V30 20 C -2.650049 -2.373173 1.088370 0
M  V30 21 C -2.823453 -3.720589 0.794506 0
M  V30 22 C -3.044710 -4.193253 -0.489818 0
M  V30 23 N -3.181533 -5.601920 -0.634469 0
M  V30 24 C -2.365274 -6.662448 -1.255924 0
M  V30 25 C -2.214961 -7.723927 -0.177134 0
M  V30 26 O -2.619224 -7.287468 1.063748 0
M  V30 27 C -3.978771 -6.995861 1.122591 0
M  V30 28 C -4.420801 -6.131967 -0.037012 0
M  V30 29 C -3.097153 -3.291677 -1.525163 0
M  V30 30 C -3.338296 -3.721792 -2.915471 0
M  V30 31 F -3.361030 -2.639980 -3.786658 0
M  V30 32 F -4.622807 -4.249246 -2.968735 0
M  V30 33 F -2.506056 -4.710366 -3.365096 0
M  V30 34 C -2.928483 -1.936618 -1.271179 0
M  V30 35 C -1.014644 2.709892 0.142170 0
M  V30 36 C 2.130123 2.419155 1.317162 0
M  V30 37 C 3.350514 1.826902 1.516961 0
M  V30 38 C 4.489634 2.587526 1.433664 0
M  V30 39 H 6.562514 -1.084808 2.374457 0
M  V30 40 H 7.526554 0.333170 2.972507 0
M  V30 41 H 7.567556 -0.126728 1.250591 0
M  V30 42 H 7.780355 2.437802 1.674325 0
M  V30 43 H 7.536202 4.860192 1.160736 0
M  V30 44 H 5.315814 5.831488 0.820679 0
M  V30 45 H 0.718148 5.432943 0.754938 0
M  V30 46 H -1.474741 5.601547 1.666212 0
M  V30 47 H -3.810057 4.848972 1.472838 0
M  V30 48 H -4.312695 2.716148 0.417559 0
M  V30 49 H -2.707009 0.709539 -1.628265 0
M  V30 50 H -2.480733 -2.048862 2.107284 0
M  V30 51 H -2.776848 -4.401794 1.631243 0
M  V30 52 H -2.892023 -7.074341 -2.138315 0
M  V30 53 H -1.373007 -6.291156 -1.574123 0
M  V30 54 H -2.620458 -8.711052 -0.475984 0
M  V30 55 H -1.102796 -7.897046 -0.080853 0
M  V30 56 H -4.508757 -7.980932 1.127827 0
M  V30 57 H -4.154509 -6.509150 2.105924 0
M  V30 58 H -5.144487 -5.371865 0.228548 0
M  V30 59 H -4.857425 -6.813931 -0.803358 0
M  V30 60 H -2.973761 -1.249465 -2.111918 0
M  V30 61 H -0.247011 2.069830 -0.267186 0
M  V30 62 H 1.301858 1.754787 1.414409 0
M  V30 63 H 3.456839 0.766223 1.742016 0
M  V30 END ATOM
M  V30 BEGIN BOND
M  V30 1 1 1 2
M  V30 2 1 2 3
M  V30 3 2 3 4
M  V30 4 1 4 5
M  V30 5 2 5 6
M  V30 6 1 6 7
M  V30 7 2 7 8
M  V30 8 1 8 9
M  V30 9 1 9 10
M  V30 10 1 10 11
M  V30 11 2 11 12
M  V30 12 1 12 13
M  V30 13 2 13 14
M  V30 14 1 14 15
M  V30 15 1 15 16
M  V30 16 1 16 17
M  V30 17 2 17 18
M  V30 18 1 17 19
M  V30 19 2 19 20
M  V30 20 1 20 21
M  V30 21 2 21 22
M  V30 22 1 22 23
M  V30 23 1 23 24
M  V30 24 1 24 25
M  V30 25 1 25 26
M  V30 26 1 26 27
M  V30 27 1 27 28
M  V30 28 1 22 29
M  V30 29 1 29 30
M  V30 30 1 30 31
M  V30 31 1 30 32
M  V30 32 1 30 33
M  V30 33 2 29 34
M  V30 34 2 15 35
M  V30 35 2 9 36
M  V30 36 1 36 37
M  V30 37 2 37 38
M  V30 38 1 38 3
M  V30 39 1 38 7
M  V30 40 1 35 11
M  V30 41 1 34 19
M  V30 42 1 28 23
M  V30 43 1 1 39
M  V30 44 1 1 40
M  V30 45 1 1 41
M  V30 46 1 4 42
M  V30 47 1 5 43
M  V30 48 1 6 44
M  V30 49 1 10 45
M  V30 50 1 12 46
M  V30 51 1 13 47
M  V30 52 1 14 48
M  V30 53 1 16 49
M  V30 54 1 20 50
M  V30 55 1 21 51
M  V30 56 1 24 52
M  V30 57 1 24 53
M  V30 58 1 25 54
M  V30 59 1 25 55
M  V30 60 1 27 56
M  V30 61 1 27 57
M  V30 62 1 28 58
M  V30 63 1 28 59
M  V30 64 1 34 60
M  V30 65 1 35 61
M  V30 66 1 36 62
M  V30 67 1 37 63
M  V30 END BOND
M  V30 END CTAB
M  END
>  <Dataset>  (28) 
ChEMBL_Kinases

>  <Ligand_Instance>  (28) 
nan

>  <PDB_ID>  (28) 
nan

>  <Standardized_SMILES>  (28) 
COc1cccc2nc(Nc3cccc(NC(=O)c4ccc(N5CCOCC5)c(C(F)(F)F)c4)c3)ccc12

>  <Name>  (28) 
nan

>  <Pocket>  (28) 
nan

>  <ATP_Site>  (28) 
nan

>  <Peripheral>  (28) 
nan

>  <Num_H_Atoms_ProtBoundConf>  (28) 
nan

>  <Num_Resolved_Atoms>  (28) 
nan

>  <Num_Not_Resolved_Atoms>  (28) 
nan

$$$$
CHEMBL4743364
     RDKit          3D

  0  0  0  0  0  0  0  0  0  0999 V3000
M  V30 BEGIN CTAB
M  V30 COUNTS 35 36 0 0 0
M  V30 BEGIN ATOM
M  V30 1 O 0.546042 -1.169799 0.921481 0
M  V30 2 C 1.317811 -0.263183 1.322203 0
M  V30 3 C 2.684803 -0.620726 1.766712 0
M  V30 4 C 2.915241 -2.113106 1.647793 0
M  V30 5 S 1.756283 -3.057635 2.651002 0
M  V30 6 C 1.333245 -4.579194 1.762724 0
M  V30 7 C 2.468266 -4.907545 0.795877 0
M  V30 8 N 2.497783 -3.859088 -0.231807 0
M  V30 9 C 2.771002 -2.545980 0.233557 0
M  V30 10 O 2.905603 -1.648786 -0.660332 0
M  V30 11 N 0.925205 1.103503 1.365249 0
M  V30 12 C -0.367857 1.503556 0.953078 0
M  V30 13 C -0.544263 1.839616 -0.373575 0
M  V30 14 C -1.755028 2.242725 -0.888048 0
M  V30 15 C -2.860928 2.325420 -0.069431 0
M  V30 16 O -4.176784 2.688429 -0.289703 0
M  V30 17 C -4.640751 3.080767 -1.558863 0
M  V30 18 F -5.640117 2.185039 -1.961225 0
M  V30 19 F -5.195112 4.366421 -1.509508 0
M  V30 20 C -2.698358 1.987265 1.281336 0
M  V30 21 C -1.469534 1.582749 1.782730 0
M  V30 22 H 3.468889 -0.152661 1.114528 0
M  V30 23 H 2.872345 -0.309444 2.793106 0
M  V30 24 H 3.950224 -2.345948 1.970862 0
M  V30 25 H 1.195223 -5.426581 2.461183 0
M  V30 26 H 0.408203 -4.446799 1.147845 0
M  V30 27 H 3.423996 -5.013475 1.323196 0
M  V30 28 H 2.217390 -5.860620 0.295942 0
M  V30 29 H 2.333326 -4.031565 -1.247709 0
M  V30 30 H 1.559831 1.875077 1.698278 0
M  V30 31 H 0.276042 1.804271 -1.097940 0
M  V30 32 H -1.990762 2.521859 -1.893869 0
M  V30 33 H -3.875513 3.073237 -2.348529 0
M  V30 34 H -3.444996 1.992029 2.063871 0
M  V30 35 H -1.272586 1.308717 2.807275 0
M  V30 END ATOM
M  V30 BEGIN BOND
M  V30 1 2 1 2
M  V30 2 1 2 3
M  V30 3 1 3 4
M  V30 4 1 4 5
M  V30 5 1 5 6
M  V30 6 1 6 7
M  V30 7 1 7 8
M  V30 8 1 8 9
M  V30 9 2 9 10
M  V30 10 1 2 11
M  V30 11 1 11 12
M  V30 12 2 12 13
M  V30 13 1 13 14
M  V30 14 2 14 15
M  V30 15 1 15 16
M  V30 16 1 16 17
M  V30 17 1 17 18
M  V30 18 1 17 19
M  V30 19 1 15 20
M  V30 20 2 20 21
M  V30 21 1 9 4
M  V30 22 1 21 12
M  V30 23 1 3 22
M  V30 24 1 3 23
M  V30 25 1 4 24
M  V30 26 1 6 25
M  V30 27 1 6 26
M  V30 28 1 7 27
M  V30 29 1 7 28
M  V30 30 1 8 29
M  V30 31 1 11 30
M  V30 32 1 13 31
M  V30 33 1 14 32
M  V30 34 1 17 33
M  V30 35 1 20 34
M  V30 36 1 21 35
M  V30 END BOND
M  V30 END CTAB
M  END
>  <Dataset>  (29) 
ChEMBL_Kinases

>  <Ligand_Instance>  (29) 
nan

>  <PDB_ID>  (29) 
nan

>  <Standardized_SMILES>  (29) 
O=C(CC1SCCNC1=O)Nc1ccc(OC(F)F)cc1

>  <Name>  (29) 
nan

>  <Pocket>  (29) 
nan

>  <ATP_Site>  (29) 
nan

>  <Peripheral>  (29) 
nan

>  <Num_H_Atoms_ProtBoundConf>  (29) 
nan

>  <Num_Resolved_Atoms>  (29) 
nan

>  <Num_Not_Resolved_Atoms>  (29) 
nan

$$$$
CHEMBL4743396
     RDKit          3D

  0  0  0  0  0  0  0  0  0  0999 V3000
M  V30 BEGIN CTAB
M  V30 COUNTS 51 54 0 0 0
M  V30 BEGIN ATOM
M  V30 1 N -0.936313 -4.867379 1.950777 0
M  V30 2 C -0.149152 -3.707554 1.712139 0
M  V30 3 N 1.002976 -3.937510 1.075867 0
M  V30 4 C 1.886876 -2.945088 0.798111 0
M  V30 5 C 1.470876 -1.701789 1.237781 0
M  V30 6 C 2.430883 -0.617379 0.921111 0
M  V30 7 C 3.802452 -0.613233 0.825639 0
M  V30 8 N 4.127661 0.651886 0.491475 0
M  V30 9 N 3.033021 1.385974 0.386452 0
M  V30 10 C 2.896342 2.809641 0.034407 0
M  V30 11 C 2.098133 2.931092 -1.246524 0
M  V30 12 C 0.970150 3.923630 -1.077516 0
M  V30 13 N 1.416949 5.175511 -0.530290 0
M  V30 14 C 2.056284 5.021514 0.749346 0
M  V30 15 C 2.149151 3.563713 1.110440 0
M  V30 16 C 1.905484 0.655832 0.645293 0
M  V30 17 C 0.284453 -1.447881 1.897460 0
M  V30 18 C -0.588222 -2.504079 2.155605 0
M  V30 19 C -1.874424 -2.237570 2.826786 0
M  V30 20 C -2.952626 -2.068452 1.795534 0
M  V30 21 C -3.185596 -3.190418 0.900885 0
M  V30 22 C -4.057394 -4.255405 1.164687 0
M  V30 23 C -4.210257 -5.252126 0.212355 0
M  V30 24 C -3.511481 -5.177469 -0.959665 0
M  V30 25 C -2.648946 -4.169910 -1.277659 0
M  V30 26 C -2.492556 -3.161767 -0.317840 0
M  V30 27 H -1.531983 -5.616524 1.546237 0
M  V30 28 H -0.998731 -5.172878 2.961046 0
M  V30 29 H 2.802154 -3.134902 0.293011 0
M  V30 30 H 4.407477 -1.487506 0.997761 0
M  V30 31 H 3.880410 3.268731 -0.112888 0
M  V30 32 H 2.750620 3.229875 -2.091226 0
M  V30 33 H 1.588881 1.961841 -1.510783 0
M  V30 34 H 0.149172 3.518549 -0.452142 0
M  V30 35 H 0.526448 4.134195 -2.072970 0
M  V30 36 H 1.984890 5.713061 -1.218723 0
M  V30 37 H 3.074290 5.426376 0.684143 0
M  V30 38 H 1.519473 5.594446 1.532596 0
M  V30 39 H 2.677252 3.426653 2.098113 0
M  V30 40 H 1.166694 3.067638 1.243368 0
M  V30 41 H 0.878026 0.989417 0.635485 0
M  V30 42 H 0.049073 -0.435402 2.202408 0
M  V30 43 H -1.780056 -1.232704 3.331342 0
M  V30 44 H -2.132039 -3.020542 3.576764 0
M  V30 45 H -2.752187 -1.129871 1.186787 0
M  V30 46 H -3.940821 -1.798360 2.291483 0
M  V30 47 H -4.578443 -4.237532 2.130107 0
M  V30 48 H -4.893385 -6.072909 0.433144 0
M  V30 49 H -3.645517 -5.972792 -1.699459 0
M  V30 50 H -2.078798 -4.072193 -2.189373 0
M  V30 51 H -1.799919 -2.337158 -0.554228 0
M  V30 END ATOM
M  V30 BEGIN BOND
M  V30 1 1 1 2
M  V30 2 2 2 3
M  V30 3 1 3 4
M  V30 4 2 4 5
M  V30 5 1 5 6
M  V30 6 1 6 7
M  V30 7 2 7 8
M  V30 8 1 8 9
M  V30 9 1 9 10
M  V30 10 1 10 11
M  V30 11 1 11 12
M  V30 12 1 12 13
M  V30 13 1 13 14
M  V30 14 1 14 15
M  V30 15 1 9 16
M  V30 16 1 5 17
M  V30 17 2 17 18
M  V30 18 1 18 19
M  V30 19 1 19 20
M  V30 20 1 20 21
M  V30 21 2 21 22
M  V30 22 1 22 23
M  V30 23 2 23 24
M  V30 24 1 24 25
M  V30 25 2 25 26
M  V30 26 1 18 2
M  V30 27 1 26 21
M  V30 28 2 16 6
M  V30 29 1 15 10
M  V30 30 1 1 27
M  V30 31 1 1 28
M  V30 32 1 4 29
M  V30 33 1 7 30
M  V30 34 1 10 31
M  V30 35 1 11 32
M  V30 36 1 11 33
M  V30 37 1 12 34
M  V30 38 1 12 35
M  V30 39 1 13 36
M  V30 40 1 14 37
M  V30 41 1 14 38
M  V30 42 1 15 39
M  V30 43 1 15 40
M  V30 44 1 16 41
M  V30 45 1 17 42
M  V30 46 1 19 43
M  V30 47 1 19 44
M  V30 48 1 20 45
M  V30 49 1 20 46
M  V30 50 1 22 47
M  V30 51 1 23 48
M  V30 52 1 24 49
M  V30 53 1 25 50
M  V30 54 1 26 51
M  V30 END BOND
M  V30 END CTAB
M  END
>  <Dataset>  (30) 
ChEMBL_Kinases

>  <Ligand_Instance>  (30) 
nan

>  <PDB_ID>  (30) 
nan

>  <Standardized_SMILES>  (30) 
Nc1ncc(-c2cnn(C3CCNCC3)c2)cc1CCc1ccccc1

>  <Name>  (30) 
nan

>  <Pocket>  (30) 
nan

>  <ATP_Site>  (30) 
nan

>  <Peripheral>  (30) 
nan

>  <Num_H_Atoms_ProtBoundConf>  (30) 
nan

>  <Num_Resolved_Atoms>  (30) 
nan

>  <Num_Not_Resolved_Atoms>  (30) 
nan

$$$$
CHEMBL4460479
     RDKit          3D

  0  0  0  0  0  0  0  0  0  0999 V3000
M  V30 BEGIN CTAB
M  V30 COUNTS 49 52 0 0 0
M  V30 BEGIN ATOM
M  V30 1 C 2.360084 -5.048702 0.270988 0
M  V30 2 C 2.698827 -3.595794 0.317079 0
M  V30 3 C 2.361889 -2.783505 -0.744736 0
M  V30 4 C 2.669024 -1.422064 -0.722727 0
M  V30 5 C 3.315625 -0.915050 0.385284 0
M  V30 6 C 3.734123 0.463289 0.629835 0
M  V30 7 C 4.979044 0.743366 1.130998 0
M  V30 8 C 5.270042 2.087315 1.323863 0
M  V30 9 N 4.378430 3.056111 1.034188 0
M  V30 10 C 3.145036 2.770318 0.537173 0
M  V30 11 N 2.291393 3.892007 0.271328 0
M  V30 12 C 2.804795 1.428479 0.325265 0
M  V30 13 N 1.506735 1.249422 -0.190595 0
M  V30 14 C 0.614916 0.523994 0.396844 0
M  V30 15 C -0.696370 0.414861 -0.236451 0
M  V30 16 C -0.927833 1.082077 -1.421527 0
M  V30 17 C -2.183684 0.946743 -1.979821 0
M  V30 18 N -3.174338 0.209946 -1.435166 0
M  V30 19 C -2.956671 -0.454412 -0.263018 0
M  V30 20 N -3.903935 -1.262045 0.419025 0
M  V30 21 C -4.828585 -0.850123 1.406288 0
M  V30 22 O -4.947416 0.326877 1.834248 0
M  V30 23 C -5.761307 -1.811513 2.033362 0
M  V30 24 C -5.862421 -1.685094 3.545174 0
M  V30 25 C -7.029307 -1.361072 2.645320 0
M  V30 26 C -1.713807 -0.337120 0.315523 0
M  V30 27 C 3.653249 -1.743961 1.455995 0
M  V30 28 C 3.351951 -3.106560 1.446571 0
M  V30 29 H 1.346118 -5.193843 -0.159635 0
M  V30 30 H 2.387699 -5.491440 1.295930 0
M  V30 31 H 3.055280 -5.603889 -0.417982 0
M  V30 32 H 1.855705 -3.138434 -1.631021 0
M  V30 33 H 2.458474 -0.696233 -1.484455 0
M  V30 34 H 5.685894 -0.036837 1.359927 0
M  V30 35 H 6.249615 2.376573 1.722285 0
M  V30 36 H 1.709140 4.493035 0.924616 0
M  V30 37 H 2.171909 4.233942 -0.706726 0
M  V30 38 H 0.835424 0.018538 1.322313 0
M  V30 39 H -0.153168 1.681042 -1.883090 0
M  V30 40 H -2.365525 1.469732 -2.908977 0
M  V30 41 H -3.839350 -2.253713 0.092153 0
M  V30 42 H -5.679054 -2.851954 1.676638 0
M  V30 43 H -5.431931 -0.788562 4.048724 0
M  V30 44 H -5.861437 -2.592032 4.157862 0
M  V30 45 H -7.838668 -2.139536 2.699641 0
M  V30 46 H -7.414269 -0.344832 2.571871 0
M  V30 47 H -1.467798 -0.834300 1.243667 0
M  V30 48 H 4.158091 -1.441125 2.362942 0
M  V30 49 H 3.581261 -3.791374 2.228605 0
M  V30 END ATOM
M  V30 BEGIN BOND
M  V30 1 1 1 2
M  V30 2 2 2 3
M  V30 3 1 3 4
M  V30 4 2 4 5
M  V30 5 1 5 6
M  V30 6 2 6 7
M  V30 7 1 7 8
M  V30 8 2 8 9
M  V30 9 1 9 10
M  V30 10 1 10 11
M  V30 11 2 10 12
M  V30 12 1 12 13
M  V30 13 2 13 14
M  V30 14 1 14 15
M  V30 15 2 15 16
M  V30 16 1 16 17
M  V30 17 2 17 18
M  V30 18 1 18 19
M  V30 19 1 19 20
M  V30 20 1 20 21
M  V30 21 2 21 22
M  V30 22 1 21 23
M  V30 23 1 23 24
M  V30 24 1 24 25
M  V30 25 2 19 26
M  V30 26 1 5 27
M  V30 27 2 27 28
M  V30 28 1 28 2
M  V30 29 1 12 6
M  V30 30 1 26 15
M  V30 31 1 25 23
M  V30 32 1 1 29
M  V30 33 1 1 30
M  V30 34 1 1 31
M  V30 35 1 3 32
M  V30 36 1 4 33
M  V30 37 1 7 34
M  V30 38 1 8 35
M  V30 39 1 11 36
M  V30 40 1 11 37
M  V30 41 1 14 38
M  V30 42 1 16 39
M  V30 43 1 17 40
M  V30 44 1 20 41
M  V30 45 1 23 42
M  V30 46 1 24 43
M  V30 47 1 24 44
M  V30 48 1 25 45
M  V30 49 1 25 46
M  V30 50 1 26 47
M  V30 51 1 27 48
M  V30 52 1 28 49
M  V30 END BOND
M  V30 END CTAB
M  END
>  <Dataset>  (31) 
ChEMBL_Kinases

>  <Ligand_Instance>  (31) 
nan

>  <PDB_ID>  (31) 
nan

>  <Standardized_SMILES>  (31) 
Cc1ccc(-c2ccnc(N)c2/N=C/c2ccnc(NC(=O)C3CC3)c2)cc1

>  <Name>  (31) 
nan

>  <Pocket>  (31) 
nan

>  <ATP_Site>  (31) 
nan

>  <Peripheral>  (31) 
nan

>  <Num_H_Atoms_ProtBoundConf>  (31) 
nan

>  <Num_Resolved_Atoms>  (31) 
nan

>  <Num_Not_Resolved_Atoms>  (31) 
nan

$$$$
CHEMBL4460458
     RDKit          3D

  0  0  0  0  0  0  0  0  0  0999 V3000
M  V30 BEGIN CTAB
M  V30 COUNTS 61 66 0 0 0
M  V30 BEGIN ATOM
M  V30 1 O -0.918420 -2.089688 2.221407 0
M  V30 2 C -0.564849 -3.327989 2.413222 0
M  V30 3 N 0.637742 -3.386180 1.701032 0
M  V30 4 C 0.873649 -2.118715 1.141715 0
M  V30 5 C 1.513828 -1.220268 1.983436 0
M  V30 6 C 1.770598 0.033593 1.437810 0
M  V30 7 C 2.387079 0.979257 2.228772 0
M  V30 8 C 2.595673 2.214469 1.632359 0
M  V30 9 C 2.222614 2.532657 0.314433 0
M  V30 10 N 2.466646 3.858917 -0.163941 0
M  V30 11 C 3.238028 4.185717 -1.362783 0
M  V30 12 C 3.172689 5.693130 -1.464477 0
M  V30 13 O 1.792022 6.003375 -1.416125 0
M  V30 14 C 1.454939 6.105882 -0.082479 0
M  V30 15 C 1.808279 4.859143 0.695268 0
M  V30 16 N 1.628658 1.521168 -0.353515 0
M  V30 17 C 1.389330 0.311922 0.132013 0
M  V30 18 C 0.754653 -0.609506 -0.671696 0
M  V30 19 C 0.480365 -1.882212 -0.153290 0
M  V30 20 N -0.223450 -2.880680 -0.924526 0
M  V30 21 C -1.680185 -3.101930 -0.943289 0
M  V30 22 C -2.106081 -2.679662 -2.342553 0
M  V30 23 C -1.405817 -3.428632 -3.424695 0
M  V30 24 C 0.075411 -3.627480 -3.210509 0
M  V30 25 C 0.470777 -3.851582 -1.786797 0
M  V30 26 C -1.543866 -3.997943 3.229989 0
M  V30 27 C -1.213913 -4.748736 4.331759 0
M  V30 28 N -2.374899 -5.196090 4.819594 0
M  V30 29 N -3.346117 -4.741321 4.055062 0
M  V30 30 C -4.671819 -4.944750 4.182496 0
M  V30 31 C -5.515162 -4.358528 3.253121 0
M  V30 32 C -5.050444 -3.588504 2.221953 0
M  V30 33 N -3.728525 -3.398011 2.113793 0
M  V30 34 C -2.900739 -3.962265 3.010233 0
M  V30 35 H 0.941790 -4.411584 1.846127 0
M  V30 36 H 1.790236 -1.477429 2.995889 0
M  V30 37 H 2.693822 0.778929 3.250824 0
M  V30 38 H 3.093438 2.981867 2.254608 0
M  V30 39 H 4.284943 3.834543 -1.189277 0
M  V30 40 H 2.759066 3.656013 -2.204106 0
M  V30 41 H 3.671603 6.112201 -2.359102 0
M  V30 42 H 3.639157 6.089652 -0.540698 0
M  V30 43 H 2.115050 6.923406 0.330332 0
M  V30 44 H 0.386204 6.356807 0.081823 0
M  V30 45 H 2.516149 5.058080 1.516757 0
M  V30 46 H 0.868540 4.451292 1.136959 0
M  V30 47 H 0.456610 -0.405174 -1.686501 0
M  V30 48 H -2.214573 -2.461229 -0.232716 0
M  V30 49 H -1.863706 -4.174939 -0.845995 0
M  V30 50 H -3.189295 -2.880801 -2.428945 0
M  V30 51 H -2.008609 -1.568887 -2.414306 0
M  V30 52 H -1.902301 -4.431767 -3.544047 0
M  V30 53 H -1.530523 -2.873586 -4.379701 0
M  V30 54 H 0.313900 -4.595557 -3.748656 0
M  V30 55 H 0.705499 -2.865669 -3.717262 0
M  V30 56 H 0.099689 -4.883016 -1.502233 0
M  V30 57 H 1.563318 -3.801330 -1.689325 0
M  V30 58 H -0.278499 -5.002610 4.804359 0
M  V30 59 H -5.072755 -5.541828 4.982023 0
M  V30 60 H -6.575716 -4.517842 3.355028 0
M  V30 61 H -5.779547 -3.168714 1.544776 0
M  V30 END ATOM
M  V30 BEGIN BOND
M  V30 1 2 1 2
M  V30 2 1 2 3
M  V30 3 1 3 4
M  V30 4 2 4 5
M  V30 5 1 5 6
M  V30 6 2 6 7
M  V30 7 1 7 8
M  V30 8 2 8 9
M  V30 9 1 9 10
M  V30 10 1 10 11
M  V30 11 1 11 12
M  V30 12 1 12 13
M  V30 13 1 13 14
M  V30 14 1 14 15
M  V30 15 1 9 16
M  V30 16 2 16 17
M  V30 17 1 17 18
M  V30 18 2 18 19
M  V30 19 1 19 20
M  V30 20 1 20 21
M  V30 21 1 21 22
M  V30 22 1 22 23
M  V30 23 1 23 24
M  V30 24 1 24 25
M  V30 25 1 2 26
M  V30 26 1 26 27
M  V30 27 2 27 28
M  V30 28 1 28 29
M  V30 29 1 29 30
M  V30 30 2 30 31
M  V30 31 1 31 32
M  V30 32 2 32 33
M  V30 33 1 33 34
M  V30 34 1 19 4
M  V30 35 1 25 20
M  V30 36 2 34 26
M  V30 37 1 17 6
M  V30 38 1 34 29
M  V30 39 1 15 10
M  V30 40 1 3 35
M  V30 41 1 5 36
M  V30 42 1 7 37
M  V30 43 1 8 38
M  V30 44 1 11 39
M  V30 45 1 11 40
M  V30 46 1 12 41
M  V30 47 1 12 42
M  V30 48 1 14 43
M  V30 49 1 14 44
M  V30 50 1 15 45
M  V30 51 1 15 46
M  V30 52 1 18 47
M  V30 53 1 21 48
M  V30 54 1 21 49
M  V30 55 1 22 50
M  V30 56 1 22 51
M  V30 57 1 23 52
M  V30 58 1 23 53
M  V30 59 1 24 54
M  V30 60 1 24 55
M  V30 61 1 25 56
M  V30 62 1 25 57
M  V30 63 1 27 58
M  V30 64 1 30 59
M  V30 65 1 31 60
M  V30 66 1 32 61
M  V30 END BOND
M  V30 END CTAB
M  END
>  <Dataset>  (32) 
ChEMBL_Kinases

>  <Ligand_Instance>  (32) 
nan

>  <PDB_ID>  (32) 
nan

>  <Standardized_SMILES>  (32) 
O=C(Nc1cc2ccc(N3CCOCC3)nc2cc1N1CCCCC1)c1cnn2cccnc12

>  <Name>  (32) 
nan

>  <Pocket>  (32) 
nan

>  <ATP_Site>  (32) 
nan

>  <Peripheral>  (32) 
nan

>  <Num_H_Atoms_ProtBoundConf>  (32) 
nan

>  <Num_Resolved_Atoms>  (32) 
nan

>  <Num_Not_Resolved_Atoms>  (32) 
nan

$$$$
CHEMBL4460455
     RDKit          3D

  0  0  0  0  0  0  0  0  0  0999 V3000
M  V30 BEGIN CTAB
M  V30 COUNTS 44 47 0 0 0
M  V30 BEGIN ATOM
M  V30 1 N -2.799646 -6.523779 1.223121 0
M  V30 2 C -2.046891 -5.796420 0.708518 0
M  V30 3 C -1.105630 -4.882889 0.085849 0
M  V30 4 C 0.263242 -5.139154 0.173541 0
M  V30 5 N 1.133443 -4.291046 -0.404324 0
M  V30 6 C 0.737472 -3.188951 -1.073923 0
M  V30 7 N 1.683071 -2.311902 -1.673934 0
M  V30 8 C 1.286973 -1.112667 -2.404410 0
M  V30 9 C 0.504517 -0.142828 -1.512014 0
M  V30 10 C 1.825072 0.426463 -1.124545 0
M  V30 11 C 2.392794 -0.046298 -2.403974 0
M  V30 12 C 1.922299 1.835140 -0.711138 0
M  V30 13 C 1.976974 1.320279 0.732818 0
M  V30 14 O 0.709107 1.207096 1.354187 0
M  V30 15 C 0.488086 1.681810 2.641791 0
M  V30 16 N 1.475923 2.274790 3.361757 0
M  V30 17 C 1.255183 2.739653 4.625652 0
M  V30 18 C -0.018341 2.592877 5.170732 0
M  V30 19 C -1.043342 1.992855 4.460087 0
M  V30 20 C -0.768898 1.540440 3.188135 0
M  V30 21 C -1.814903 0.906813 2.412132 0
M  V30 22 N -3.127595 0.746240 2.951532 0
M  V30 23 O -1.592156 0.483918 1.247206 0
M  V30 24 C 2.433717 -0.006387 0.152119 0
M  V30 25 N -0.583560 -2.946399 -1.155565 0
M  V30 26 C -1.523787 -3.757511 -0.597158 0
M  V30 27 H 0.655034 -6.001708 0.693239 0
M  V30 28 H 2.698702 -2.538855 -1.585802 0
M  V30 29 H 0.845683 -1.275126 -3.399488 0
M  V30 30 H -0.069340 -0.659429 -0.744087 0
M  V30 31 H -0.070164 0.551710 -2.171494 0
M  V30 32 H 3.371678 -0.581733 -2.284570 0
M  V30 33 H 2.338424 0.638635 -3.271732 0
M  V30 34 H 1.026417 2.447454 -0.886822 0
M  V30 35 H 2.857128 2.368998 -0.997186 0
M  V30 36 H 2.745433 1.810531 1.361482 0
M  V30 37 H 2.068427 3.214318 5.186142 0
M  V30 38 H -0.220953 2.956685 6.180900 0
M  V30 39 H -2.037629 1.856812 4.834464 0
M  V30 40 H -3.820043 -0.032917 2.973372 0
M  V30 41 H -3.684484 1.475444 3.481962 0
M  V30 42 H 3.557691 -0.014692 0.080634 0
M  V30 43 H 2.052321 -0.912427 0.652651 0
M  V30 44 H -2.579562 -3.576662 -0.654271 0
M  V30 END ATOM
M  V30 BEGIN BOND
M  V30 1 3 1 2
M  V30 2 1 2 3
M  V30 3 2 3 4
M  V30 4 1 4 5
M  V30 5 2 5 6
M  V30 6 1 6 7
M  V30 7 1 7 8
M  V30 8 1 8 9
M  V30 9 1 9 10
M  V30 10 1 10 11
M  V30 11 1 10 12
M  V30 12 1 12 13
M  V30 13 1 13 14
M  V30 14 1 14 15
M  V30 15 2 15 16
M  V30 16 1 16 17
M  V30 17 2 17 18
M  V30 18 1 18 19
M  V30 19 2 19 20
M  V30 20 1 20 21
M  V30 21 1 21 22
M  V30 22 2 21 23
M  V30 23 1 13 24
M  V30 24 1 6 25
M  V30 25 2 25 26
M  V30 26 1 26 3
M  V30 27 1 11 8
M  V30 28 1 20 15
M  V30 29 1 24 10
M  V30 30 1 4 27
M  V30 31 1 7 28
M  V30 32 1 8 29
M  V30 33 1 9 30
M  V30 34 1 9 31
M  V30 35 1 11 32
M  V30 36 1 11 33
M  V30 37 1 12 34
M  V30 38 1 12 35
M  V30 39 1 13 36
M  V30 40 1 17 37
M  V30 41 1 18 38
M  V30 42 1 19 39
M  V30 43 1 22 40
M  V30 44 1 22 41
M  V30 45 1 24 42
M  V30 46 1 24 43
M  V30 47 1 26 44
M  V30 END BOND
M  V30 END CTAB
M  END
>  <Dataset>  (33) 
ChEMBL_Kinases

>  <Ligand_Instance>  (33) 
nan

>  <PDB_ID>  (33) 
nan

>  <Standardized_SMILES>  (33) 
N#Cc1cnc(NC2CC3(C2)CC(Oc2ncccc2C(N)=O)C3)nc1

>  <Name>  (33) 
nan

>  <Pocket>  (33) 
nan

>  <ATP_Site>  (33) 
nan

>  <Peripheral>  (33) 
nan

>  <Num_H_Atoms_ProtBoundConf>  (33) 
nan

>  <Num_Resolved_Atoms>  (33) 
nan

>  <Num_Not_Resolved_Atoms>  (33) 
nan

$$$$
CHEMBL4460451
     RDKit          3D

  0  0  0  0  0  0  0  0  0  0999 V3000
M  V30 BEGIN CTAB
M  V30 COUNTS 38 41 0 0 0
M  V30 BEGIN ATOM
M  V30 1 N -0.964882 -4.467774 1.359399 0
M  V30 2 C 0.330127 -4.307382 0.784966 0
M  V30 3 N 1.274432 -5.275334 0.838173 0
M  V30 4 C 2.458015 -5.024014 0.267596 0
M  V30 5 C 2.719535 -3.823702 -0.356605 0
M  V30 6 N 3.805638 -3.330049 -0.994649 0
M  V30 7 C 3.548791 -2.077231 -1.439706 0
M  V30 8 C 2.245867 -1.757970 -1.070896 0
M  V30 9 C 1.535031 -0.510265 -1.336820 0
M  V30 10 C 1.593389 0.068669 -2.588835 0
M  V30 11 C 0.941337 1.246665 -2.895351 0
M  V30 12 C 0.213823 1.819564 -1.851209 0
M  V30 13 C 0.142131 1.252600 -0.582797 0
M  V30 14 C -0.650638 1.970947 0.379163 0
M  V30 15 C -1.324077 2.586969 1.172132 0
M  V30 16 C -2.135236 3.360389 2.147605 0
M  V30 17 O -1.323261 4.437219 2.525383 0
M  V30 18 C -2.369025 2.518295 3.381175 0
M  V30 19 N -1.738943 2.091102 4.265509 0
M  V30 20 C -2.169153 1.352499 5.269189 0
M  V30 21 C -3.564690 1.052829 5.254310 0
M  V30 22 S -4.113621 1.944110 3.673929 0
M  V30 23 C 0.796988 0.093016 -0.318865 0
M  V30 24 C 1.737860 -2.851727 -0.397000 0
M  V30 25 N 0.549236 -3.119457 0.182681 0
M  V30 26 H -1.464453 -4.169223 2.244169 0
M  V30 27 H -1.455960 -5.040987 0.634435 0
M  V30 28 H 3.275354 -5.736455 0.259096 0
M  V30 29 H 4.730984 -3.807816 -1.147347 0
M  V30 30 H 4.235682 -1.440573 -1.984410 0
M  V30 31 H 2.159056 -0.372898 -3.407960 0
M  V30 32 H 0.970052 1.722685 -3.868783 0
M  V30 33 H -0.299951 2.751756 -2.100227 0
M  V30 34 H -3.056379 3.707996 1.684521 0
M  V30 35 H -0.671711 4.199715 3.205324 0
M  V30 36 H -1.381749 1.073254 5.977075 0
M  V30 37 H -3.825849 0.363834 6.239028 0
M  V30 38 H 0.720970 -0.322390 0.678783 0
M  V30 END ATOM
M  V30 BEGIN BOND
M  V30 1 1 1 2
M  V30 2 2 2 3
M  V30 3 1 3 4
M  V30 4 2 4 5
M  V30 5 1 5 6
M  V30 6 1 6 7
M  V30 7 2 7 8
M  V30 8 1 8 9
M  V30 9 2 9 10
M  V30 10 1 10 11
M  V30 11 2 11 12
M  V30 12 1 12 13
M  V30 13 1 13 14
M  V30 14 3 14 15
M  V30 15 1 15 16
M  V30 16 1 16 17
M  V30 17 1 16 18
M  V30 18 2 18 19
M  V30 19 1 19 20
M  V30 20 2 20 21
M  V30 21 1 21 22
M  V30 22 2 13 23
M  V30 23 1 8 24
M  V30 24 2 24 25
M  V30 25 1 25 2
M  V30 26 1 24 5
M  V30 27 1 23 9
M  V30 28 1 22 18
M  V30 29 1 1 26
M  V30 30 1 1 27
M  V30 31 1 4 28
M  V30 32 1 6 29
M  V30 33 1 7 30
M  V30 34 1 10 31
M  V30 35 1 11 32
M  V30 36 1 12 33
M  V30 37 1 16 34
M  V30 38 1 17 35
M  V30 39 1 20 36
M  V30 40 1 21 37
M  V30 41 1 23 38
M  V30 END BOND
M  V30 END CTAB
M  END
>  <Dataset>  (34) 
ChEMBL_Kinases

>  <Ligand_Instance>  (34) 
nan

>  <PDB_ID>  (34) 
nan

>  <Standardized_SMILES>  (34) 
Nc1ncc2[nH]cc(-c3cccc(C#CC(O)c4nccs4)c3)c2n1

>  <Name>  (34) 
nan

>  <Pocket>  (34) 
nan

>  <ATP_Site>  (34) 
nan

>  <Peripheral>  (34) 
nan

>  <Num_H_Atoms_ProtBoundConf>  (34) 
nan

>  <Num_Resolved_Atoms>  (34) 
nan

>  <Num_Not_Resolved_Atoms>  (34) 
nan

$$$$
CHEMBL4460415
     RDKit          3D

  0  0  0  0  0  0  0  0  0  0999 V3000
M  V30 BEGIN CTAB
M  V30 COUNTS 51 55 0 0 0
M  V30 BEGIN ATOM
M  V30 1 C -0.432638 -4.785287 0.541982 0
M  V30 2 C 0.312325 -4.124702 -0.418381 0
M  V30 3 C 0.522470 -2.755772 -0.564379 0
M  V30 4 C 1.389351 -2.392669 -1.663474 0
M  V30 5 N 1.886392 -3.231626 -2.620582 0
M  V30 6 N 2.643599 -2.570199 -3.445872 0
M  V30 7 C 2.726323 -1.266996 -3.131464 0
M  V30 8 C 3.416790 -0.221894 -3.709109 0
M  V30 9 C 3.238510 0.970212 -3.036671 0
M  V30 10 N 2.468049 1.101614 -1.927405 0
M  V30 11 C 1.817734 0.028319 -1.416504 0
M  V30 12 O 1.060283 0.306589 -0.261343 0
M  V30 13 C 1.122079 1.648531 0.257960 0
M  V30 14 C -0.273161 2.177091 0.324657 0
M  V30 15 C -0.610842 2.412434 1.785073 0
M  V30 16 O 0.244070 3.451881 2.188437 0
M  V30 17 C 1.535274 2.948609 2.383188 0
M  V30 18 C 1.779646 1.699565 1.591019 0
M  V30 19 C 1.931517 -1.181260 -2.009215 0
M  V30 20 N -0.092437 -2.007769 0.362404 0
M  V30 21 C -0.845596 -2.591739 1.338513 0
M  V30 22 N -1.580860 -1.873314 2.310719 0
M  V30 23 C -1.742963 -2.319975 3.680061 0
M  V30 24 C -3.196914 -2.150758 4.041301 0
M  V30 25 O -4.060408 -2.032666 2.980753 0
M  V30 26 C -3.817540 -0.911085 2.194867 0
M  V30 27 C -2.327078 -0.618101 2.108474 0
M  V30 28 C -1.046065 -3.945368 1.474494 0
M  V30 29 H -0.545717 -5.851149 0.585850 0
M  V30 30 H 0.765131 -4.851945 -1.116794 0
M  V30 31 H 3.096017 -3.074949 -4.237317 0
M  V30 32 H 4.025584 -0.348574 -4.591548 0
M  V30 33 H 3.748884 1.862121 -3.416563 0
M  V30 34 H 1.761144 2.268571 -0.425698 0
M  V30 35 H -1.014854 1.544585 -0.204873 0
M  V30 36 H -0.251919 3.211807 -0.131509 0
M  V30 37 H -1.632076 2.759525 1.859595 0
M  V30 38 H -0.407420 1.490659 2.350998 0
M  V30 39 H 2.237275 3.728079 2.028916 0
M  V30 40 H 1.778891 2.726185 3.427288 0
M  V30 41 H 1.466268 0.806175 2.177594 0
M  V30 42 H 2.884093 1.616115 1.426481 0
M  V30 43 H -1.403390 -3.328694 3.893755 0
M  V30 44 H -1.167795 -1.566969 4.293540 0
M  V30 45 H -3.328147 -1.213366 4.657715 0
M  V30 46 H -3.558626 -2.996761 4.672303 0
M  V30 47 H -4.348120 -0.016041 2.539379 0
M  V30 48 H -4.154451 -1.141646 1.168768 0
M  V30 49 H -2.029838 -0.092962 1.192522 0
M  V30 50 H -2.107147 0.022551 2.980534 0
M  V30 51 H -1.633996 -4.443692 2.234221 0
M  V30 END ATOM
M  V30 BEGIN BOND
M  V30 1 2 1 2
M  V30 2 1 2 3
M  V30 3 1 3 4
M  V30 4 2 4 5
M  V30 5 1 5 6
M  V30 6 1 6 7
M  V30 7 2 7 8
M  V30 8 1 8 9
M  V30 9 2 9 10
M  V30 10 1 10 11
M  V30 11 1 11 12
M  V30 12 1 12 13
M  V30 13 1 13 14
M  V30 14 1 14 15
M  V30 15 1 15 16
M  V30 16 1 16 17
M  V30 17 1 17 18
M  V30 18 2 11 19
M  V30 19 2 3 20
M  V30 20 1 20 21
M  V30 21 1 21 22
M  V30 22 1 22 23
M  V30 23 1 23 24
M  V30 24 1 24 25
M  V30 25 1 25 26
M  V30 26 1 26 27
M  V30 27 2 21 28
M  V30 28 1 28 1
M  V30 29 1 19 4
M  V30 30 1 27 22
M  V30 31 1 19 7
M  V30 32 1 18 13
M  V30 33 1 1 29
M  V30 34 1 2 30
M  V30 35 1 6 31
M  V30 36 1 8 32
M  V30 37 1 9 33
M  V30 38 1 13 34
M  V30 39 1 14 35
M  V30 40 1 14 36
M  V30 41 1 15 37
M  V30 42 1 15 38
M  V30 43 1 17 39
M  V30 44 1 17 40
M  V30 45 1 18 41
M  V30 46 1 18 42
M  V30 47 1 23 43
M  V30 48 1 23 44
M  V30 49 1 24 45
M  V30 50 1 24 46
M  V30 51 1 26 47
M  V30 52 1 26 48
M  V30 53 1 27 49
M  V30 54 1 27 50
M  V30 55 1 28 51
M  V30 END BOND
M  V30 END CTAB
M  END
>  <Dataset>  (35) 
ChEMBL_Kinases

>  <Ligand_Instance>  (35) 
nan

>  <PDB_ID>  (35) 
nan

>  <Standardized_SMILES>  (35) 
c1cc(-c2n[nH]c3ccnc(OC4CCOCC4)c23)nc(N2CCOCC2)c1

>  <Name>  (35) 
nan

>  <Pocket>  (35) 
nan

>  <ATP_Site>  (35) 
nan

>  <Peripheral>  (35) 
nan

>  <Num_H_Atoms_ProtBoundConf>  (35) 
nan

>  <Num_Resolved_Atoms>  (35) 
nan

>  <Num_Not_Resolved_Atoms>  (35) 
nan

$$$$
CHEMBL4460283
     RDKit          3D

  0  0  0  0  0  0  0  0  0  0999 V3000
M  V30 BEGIN CTAB
M  V30 COUNTS 48 51 0 0 0
M  V30 BEGIN ATOM
M  V30 1 C 0.825370 -6.471214 0.642710 0
M  V30 2 C 0.875431 -5.043409 0.256648 0
M  V30 3 C 0.759315 -4.042556 1.193464 0
M  V30 4 C 0.808026 -2.706982 0.817199 0
M  V30 5 C 0.974511 -2.322103 -0.508623 0
M  V30 6 C 1.017290 -0.903953 -0.836783 0
M  V30 7 C 1.181075 -0.488311 -2.140518 0
M  V30 8 C 1.210982 0.872104 -2.366280 0
M  V30 9 N 1.365025 1.407012 -3.591068 0
M  V30 10 C 1.397259 2.732612 -3.835765 0
M  V30 11 C 1.262159 3.572158 -2.749082 0
M  V30 12 N 1.107087 3.055206 -1.515901 0
M  V30 13 C 1.077702 1.728391 -1.293968 0
M  V30 14 C 0.911845 1.294567 0.026126 0
M  V30 15 N 0.779698 2.191710 1.101240 0
M  V30 16 C 0.606107 1.773240 2.476480 0
M  V30 17 C -0.662317 0.966638 2.589060 0 CFG=1
M  V30 18 C -0.881151 0.504126 4.036462 0
M  V30 19 C -1.960011 -0.563838 3.924615 0
M  V30 20 C -2.945602 -0.259413 2.836972 0
M  V30 21 N -3.085055 1.111134 2.495580 0
M  V30 22 C -1.874194 1.827770 2.296515 0
M  V30 23 N 0.890286 -0.040569 0.185525 0
M  V30 24 C 1.084921 -3.357157 -1.400204 0
M  V30 25 C 1.040967 -4.681130 -1.061820 0
M  V30 26 H -0.216000 -6.818827 0.783976 0
M  V30 27 H 1.290254 -7.098598 -0.155573 0
M  V30 28 H 1.395721 -6.602811 1.601474 0
M  V30 29 H 0.630355 -4.336306 2.220514 0
M  V30 30 H 0.705449 -1.994817 1.643139 0
M  V30 31 H 1.283410 -1.154912 -2.964045 0
M  V30 32 H 1.528112 2.988147 -4.878120 0
M  V30 33 H 1.292815 4.634200 -2.983727 0
M  V30 34 H 0.812128 3.225438 0.866897 0
M  V30 35 H 1.485654 1.250340 2.859321 0
M  V30 36 H 0.437609 2.679612 3.110907 0
M  V30 37 H -0.706330 0.088523 1.934886 0
M  V30 38 H 0.027495 0.142432 4.515724 0
M  V30 39 H -1.341984 1.329060 4.623609 0
M  V30 40 H -1.425869 -1.501198 3.623217 0
M  V30 41 H -2.437598 -0.779511 4.899098 0
M  V30 42 H -3.945284 -0.611360 3.221315 0
M  V30 43 H -2.753013 -0.841375 1.906955 0
M  V30 44 H -3.834198 1.635396 2.986944 0
M  V30 45 H -1.816716 2.658623 3.056067 0
M  V30 46 H -1.787031 2.346406 1.318787 0
M  V30 47 H 1.214950 -3.116875 -2.436294 0
M  V30 48 H 1.137371 -5.444834 -1.838926 0
M  V30 END ATOM
M  V30 BEGIN BOND
M  V30 1 1 1 2
M  V30 2 2 2 3
M  V30 3 1 3 4
M  V30 4 2 4 5
M  V30 5 1 5 6
M  V30 6 2 6 7
M  V30 7 1 7 8
M  V30 8 2 8 9
M  V30 9 1 9 10
M  V30 10 2 10 11
M  V30 11 1 11 12
M  V30 12 2 12 13
M  V30 13 1 13 14
M  V30 14 1 14 15
M  V30 15 1 15 16
M  V30 16 1 16 17
M  V30 17 1 17 18
M  V30 18 1 18 19
M  V30 19 1 19 20
M  V30 20 1 20 21
M  V30 21 1 21 22
M  V30 22 2 14 23
M  V30 23 1 5 24
M  V30 24 2 24 25
M  V30 25 1 25 2
M  V30 26 1 23 6
M  V30 27 1 13 8
M  V30 28 1 22 17
M  V30 29 1 1 26
M  V30 30 1 1 27
M  V30 31 1 1 28
M  V30 32 1 3 29
M  V30 33 1 4 30
M  V30 34 1 7 31
M  V30 35 1 10 32
M  V30 36 1 11 33
M  V30 37 1 15 34
M  V30 38 1 16 35
M  V30 39 1 16 36
M  V30 40 1 17 37 CFG=3
M  V30 41 1 18 38
M  V30 42 1 18 39
M  V30 43 1 19 40
M  V30 44 1 19 41
M  V30 45 1 20 42
M  V30 46 1 20 43
M  V30 47 1 21 44
M  V30 48 1 22 45
M  V30 49 1 22 46
M  V30 50 1 24 47
M  V30 51 1 25 48
M  V30 END BOND
M  V30 END CTAB
M  END
>  <Dataset>  (36) 
ChEMBL_Kinases

>  <Ligand_Instance>  (36) 
nan

>  <PDB_ID>  (36) 
nan

>  <Standardized_SMILES>  (36) 
Cc1ccc(-c2cc3nccnc3c(NC[C@H]3CCCNC3)n2)cc1

>  <Name>  (36) 
nan

>  <Pocket>  (36) 
nan

>  <ATP_Site>  (36) 
nan

>  <Peripheral>  (36) 
nan

>  <Num_H_Atoms_ProtBoundConf>  (36) 
nan

>  <Num_Resolved_Atoms>  (36) 
nan

>  <Num_Not_Resolved_Atoms>  (36) 
nan

$$$$
CHEMBL4460272
     RDKit          3D

  0  0  0  0  0  0  0  0  0  0999 V3000
M  V30 BEGIN CTAB
M  V30 COUNTS 51 55 0 0 0
M  V30 BEGIN ATOM
M  V30 1 C 1.050977 -0.917194 2.868267 0
M  V30 2 C 1.603397 -0.909348 1.609963 0
M  V30 3 C 1.135166 -1.709473 0.599179 0
M  V30 4 C 1.610239 -1.800742 -0.764356 0
M  V30 5 N 1.897559 -3.030735 -1.260392 0
M  V30 6 N 2.317758 -2.925157 -2.503782 0
M  V30 7 C 2.309832 -1.603123 -2.844395 0
M  V30 8 C 2.612542 -0.830587 -3.943652 0
M  V30 9 C 2.457588 0.533639 -3.887582 0
M  V30 10 N 2.008901 1.171891 -2.772720 0
M  V30 11 C 1.697820 0.441123 -1.660191 0
M  V30 12 O 1.295417 1.257522 -0.746933 0
M  V30 13 C 0.894989 2.064473 0.163307 0
M  V30 14 C -0.269917 2.957899 -0.366935 0
M  V30 15 C -0.985938 3.451054 0.850796 0
M  V30 16 O -0.065156 3.826589 1.802531 0
M  V30 17 C 1.149274 4.272482 1.287193 0
M  V30 18 C 1.910797 3.129440 0.648783 0
M  V30 19 C 1.864991 -0.895927 -1.753970 0
M  V30 20 C 0.061315 -2.515566 0.974854 0
M  V30 21 C -0.491587 -2.523713 2.232549 0
M  V30 22 N -1.597710 -3.339785 2.628900 0
M  V30 23 C -2.093768 -3.321280 4.001730 0
M  V30 24 C -3.161957 -4.345650 4.153807 0
M  V30 25 O -4.234563 -4.178253 3.284810 0
M  V30 26 C -3.820747 -3.908268 1.985627 0
M  V30 27 C -2.350020 -4.245729 1.791183 0
M  V30 28 N 0.025034 -1.715979 3.151652 0
M  V30 29 H 1.523469 -0.231071 3.570217 0
M  V30 30 H 2.439282 -0.271396 1.348135 0
M  V30 31 H 2.623581 -3.671889 -3.183009 0
M  V30 32 H 2.967880 -1.375892 -4.813829 0
M  V30 33 H 2.742134 1.000554 -4.843644 0
M  V30 34 H 0.541778 1.605952 1.123357 0
M  V30 35 H -0.890950 2.382560 -1.054074 0
M  V30 36 H 0.215164 3.768758 -0.928238 0
M  V30 37 H -1.584460 2.575162 1.227933 0
M  V30 38 H -1.695728 4.261362 0.602010 0
M  V30 39 H 1.751016 4.635666 2.142275 0
M  V30 40 H 0.997118 5.116086 0.569352 0
M  V30 41 H 2.542037 2.674180 1.437915 0
M  V30 42 H 2.451587 3.483717 -0.227882 0
M  V30 43 H -0.360921 -3.177503 0.223724 0
M  V30 44 H -1.275738 -3.583419 4.695481 0
M  V30 45 H -2.488473 -2.331965 4.264206 0
M  V30 46 H -2.771675 -5.360786 4.037621 0
M  V30 47 H -3.584225 -4.231140 5.184772 0
M  V30 48 H -4.389102 -4.593972 1.323645 0
M  V30 49 H -4.017194 -2.872303 1.690373 0
M  V30 50 H -2.190456 -5.301204 2.065368 0
M  V30 51 H -2.130653 -4.017765 0.738728 0
M  V30 END ATOM
M  V30 BEGIN BOND
M  V30 1 2 1 2
M  V30 2 1 2 3
M  V30 3 1 3 4
M  V30 4 2 4 5
M  V30 5 1 5 6
M  V30 6 1 6 7
M  V30 7 2 7 8
M  V30 8 1 8 9
M  V30 9 2 9 10
M  V30 10 1 10 11
M  V30 11 1 11 12
M  V30 12 1 12 13
M  V30 13 1 13 14
M  V30 14 1 14 15
M  V30 15 1 15 16
M  V30 16 1 16 17
M  V30 17 1 17 18
M  V30 18 2 11 19
M  V30 19 2 3 20
M  V30 20 1 20 21
M  V30 21 1 21 22
M  V30 22 1 22 23
M  V30 23 1 23 24
M  V30 24 1 24 25
M  V30 25 1 25 26
M  V30 26 1 26 27
M  V30 27 2 21 28
M  V30 28 1 28 1
M  V30 29 1 19 4
M  V30 30 1 27 22
M  V30 31 1 19 7
M  V30 32 1 18 13
M  V30 33 1 1 29
M  V30 34 1 2 30
M  V30 35 1 6 31
M  V30 36 1 8 32
M  V30 37 1 9 33
M  V30 38 1 13 34
M  V30 39 1 14 35
M  V30 40 1 14 36
M  V30 41 1 15 37
M  V30 42 1 15 38
M  V30 43 1 17 39
M  V30 44 1 17 40
M  V30 45 1 18 41
M  V30 46 1 18 42
M  V30 47 1 20 43
M  V30 48 1 23 44
M  V30 49 1 23 45
M  V30 50 1 24 46
M  V30 51 1 24 47
M  V30 52 1 26 48
M  V30 53 1 26 49
M  V30 54 1 27 50
M  V30 55 1 27 51
M  V30 END BOND
M  V30 END CTAB
M  END
>  <Dataset>  (37) 
ChEMBL_Kinases

>  <Ligand_Instance>  (37) 
nan

>  <PDB_ID>  (37) 
nan

>  <Standardized_SMILES>  (37) 
c1cc(-c2n[nH]c3ccnc(OC4CCOCC4)c23)cc(N2CCOCC2)n1

>  <Name>  (37) 
nan

>  <Pocket>  (37) 
nan

>  <ATP_Site>  (37) 
nan

>  <Peripheral>  (37) 
nan

>  <Num_H_Atoms_ProtBoundConf>  (37) 
nan

>  <Num_Resolved_Atoms>  (37) 
nan

>  <Num_Not_Resolved_Atoms>  (37) 
nan

$$$$
CHEMBL4460480
     RDKit          3D

  0  0  0  0  0  0  0  0  0  0999 V3000
M  V30 BEGIN CTAB
M  V30 COUNTS 37 40 0 0 0
M  V30 BEGIN ATOM
M  V30 1 C 0.147132 -3.675365 2.381644 0
M  V30 2 N 1.220477 -3.793273 1.421166 0
M  V30 3 C 0.817073 -3.364931 0.097377 0
M  V30 4 C 0.476932 -1.916306 0.030973 0
M  V30 5 C 1.642887 -1.091366 0.506752 0
M  V30 6 C 2.457052 -1.780598 1.341055 0
M  V30 7 S 3.749431 -0.652924 1.784639 0
M  V30 8 C 3.068437 0.739396 0.763185 0
M  V30 9 N 3.510714 2.010036 0.569299 0
M  V30 10 C 2.841459 2.860298 -0.224119 0
M  V30 11 N 1.752704 2.344356 -0.770376 0
M  V30 12 C 1.280618 1.121186 -0.615585 0
M  V30 13 N 0.079879 0.749588 -1.287057 0
M  V30 14 C -1.127016 0.899726 -0.520679 0
M  V30 15 C -2.368469 0.559806 -1.047545 0
M  V30 16 C -3.501939 0.716430 -0.278746 0
M  V30 17 C -3.447009 1.203949 1.008642 0
M  V30 18 Br -4.985809 1.448106 2.132642 0
M  V30 19 C -2.220508 1.558850 1.579704 0
M  V30 20 C -1.129054 1.385387 0.778705 0
M  V30 21 C 1.926003 0.207549 0.186574 0
M  V30 22 C 2.427977 -3.137645 1.854964 0
M  V30 23 H -0.817301 -3.377254 1.885596 0
M  V30 24 H 0.445723 -2.951357 3.158077 0
M  V30 25 H 0.042177 -4.654289 2.890808 0
M  V30 26 H 1.614638 -3.644786 -0.619712 0
M  V30 27 H -0.108110 -3.921610 -0.150869 0
M  V30 28 H 0.203530 -1.693163 -1.022911 0
M  V30 29 H -0.381837 -1.667150 0.662545 0
M  V30 30 H 3.325183 3.806827 -0.262510 0
M  V30 31 H -0.014039 0.392113 -2.243644 0
M  V30 32 H -2.438025 0.172050 -2.063147 0
M  V30 33 H -4.495929 0.468721 -0.635704 0
M  V30 34 H -2.094704 1.952927 2.594034 0
M  V30 35 H -0.166917 1.654536 1.199760 0
M  V30 36 H 2.573448 -3.172678 2.948171 0
M  V30 37 H 3.290839 -3.713568 1.409264 0
M  V30 END ATOM
M  V30 BEGIN BOND
M  V30 1 1 1 2
M  V30 2 1 2 3
M  V30 3 1 3 4
M  V30 4 1 4 5
M  V30 5 2 5 6
M  V30 6 1 6 7
M  V30 7 1 7 8
M  V30 8 2 8 9
M  V30 9 1 9 10
M  V30 10 2 10 11
M  V30 11 1 11 12
M  V30 12 1 12 13
M  V30 13 1 13 14
M  V30 14 2 14 15
M  V30 15 1 15 16
M  V30 16 2 16 17
M  V30 17 1 17 18
M  V30 18 1 17 19
M  V30 19 2 19 20
M  V30 20 2 12 21
M  V30 21 1 6 22
M  V30 22 1 22 2
M  V30 23 1 21 5
M  V30 24 1 21 8
M  V30 25 1 20 14
M  V30 26 1 1 23
M  V30 27 1 1 24
M  V30 28 1 1 25
M  V30 29 1 3 26
M  V30 30 1 3 27
M  V30 31 1 4 28
M  V30 32 1 4 29
M  V30 33 1 10 30
M  V30 34 1 13 31
M  V30 35 1 15 32
M  V30 36 1 16 33
M  V30 37 1 19 34
M  V30 38 1 20 35
M  V30 39 1 22 36
M  V30 40 1 22 37
M  V30 END BOND
M  V30 END CTAB
M  END
>  <Dataset>  (38) 
ChEMBL_Kinases

>  <Ligand_Instance>  (38) 
nan

>  <PDB_ID>  (38) 
nan

>  <Standardized_SMILES>  (38) 
CN1CCc2c(sc3ncnc(Nc4ccc(Br)cc4)c23)C1

>  <Name>  (38) 
nan

>  <Pocket>  (38) 
nan

>  <ATP_Site>  (38) 
nan

>  <Peripheral>  (38) 
nan

>  <Num_H_Atoms_ProtBoundConf>  (38) 
nan

>  <Num_Resolved_Atoms>  (38) 
nan

>  <Num_Not_Resolved_Atoms>  (38) 
nan

$$$$
CHEMBL446024
     RDKit          3D

  0  0  0  0  0  0  0  0  0  0999 V3000
M  V30 BEGIN CTAB
M  V30 COUNTS 30 32 0 0 0
M  V30 BEGIN ATOM
M  V30 1 F 1.476996 -3.380777 3.707788 0
M  V30 2 C 1.806474 -3.394290 2.340358 0
M  V30 3 F 0.666801 -3.145335 1.595419 0
M  V30 4 F 2.307502 -4.636595 1.960116 0
M  V30 5 C 2.869090 -2.375023 2.085794 0
M  V30 6 N 3.309686 -2.280130 0.704613 0
M  V30 7 C 2.136016 -2.019723 -0.091576 0
M  V30 8 N 1.590955 -2.892346 -0.966396 0
M  V30 9 C 0.462804 -2.570618 -1.641551 0
M  V30 10 C -0.159367 -1.361755 -1.462744 0
M  V30 11 C 0.391658 -0.467546 -0.572381 0
M  V30 12 C -0.080956 0.878851 -0.222175 0
M  V30 13 C 0.403357 2.114124 -0.611595 0
M  V30 14 N -0.350764 3.052338 0.017076 0
M  V30 15 N -1.252088 2.438406 0.754197 0
M  V30 16 N -2.182126 2.984780 1.540370 0
M  V30 17 C -3.002669 2.134316 2.229352 0
M  V30 18 C -2.953737 0.738243 2.183288 0
M  V30 19 C -1.981355 0.226488 1.359616 0
M  V30 20 C -1.144791 1.100808 0.655949 0
M  V30 21 N 1.528106 -0.840034 0.079088 0
M  V30 22 H 2.419050 -1.390487 2.425494 0
M  V30 23 H 3.721784 -2.515068 2.808795 0
M  V30 24 H 4.301873 -2.393740 0.394565 0
M  V30 25 H 0.017656 -3.241704 -2.345358 0
M  V30 26 H -1.059385 -0.998601 -1.950276 0
M  V30 27 H 1.243403 2.189451 -1.311439 0
M  V30 28 H -3.715061 2.665895 2.840763 0
M  V30 29 H -3.665423 0.195592 2.779070 0
M  V30 30 H -1.902615 -0.832662 1.296687 0
M  V30 END ATOM
M  V30 BEGIN BOND
M  V30 1 1 1 2
M  V30 2 1 2 3
M  V30 3 1 2 4
M  V30 4 1 2 5
M  V30 5 1 5 6
M  V30 6 1 6 7
M  V30 7 2 7 8
M  V30 8 1 8 9
M  V30 9 2 9 10
M  V30 10 1 10 11
M  V30 11 1 11 12
M  V30 12 1 12 13
M  V30 13 2 13 14
M  V30 14 1 14 15
M  V30 15 1 15 16
M  V30 16 2 16 17
M  V30 17 1 17 18
M  V30 18 2 18 19
M  V30 19 1 19 20
M  V30 20 2 11 21
M  V30 21 1 21 7
M  V30 22 2 20 12
M  V30 23 1 20 15
M  V30 24 1 5 22
M  V30 25 1 5 23
M  V30 26 1 6 24
M  V30 27 1 9 25
M  V30 28 1 10 26
M  V30 29 1 13 27
M  V30 30 1 17 28
M  V30 31 1 18 29
M  V30 32 1 19 30
M  V30 END BOND
M  V30 END CTAB
M  END
>  <Dataset>  (39) 
ChEMBL_Kinases

>  <Ligand_Instance>  (39) 
nan

>  <PDB_ID>  (39) 
nan

>  <Standardized_SMILES>  (39) 
FC(F)(F)CNc1nccc(-c2cnn3ncccc23)n1

>  <Name>  (39) 
GW683003X

>  <Pocket>  (39) 
nan

>  <ATP_Site>  (39) 
nan

>  <Peripheral>  (39) 
nan

>  <Num_H_Atoms_ProtBoundConf>  (39) 
nan

>  <Num_Resolved_Atoms>  (39) 
nan

>  <Num_Not_Resolved_Atoms>  (39) 
nan

$$$$
CHEMBL4459919
     RDKit          3D

  0  0  0  0  0  0  0  0  0  0999 V3000
M  V30 BEGIN CTAB
M  V30 COUNTS 74 79 0 0 0
M  V30 BEGIN ATOM
M  V30 1 C 5.729373 -2.667235 2.573886 0
M  V30 2 N 5.223271 -3.668922 1.686944 0
M  V30 3 C 3.786454 -3.718086 1.647482 0
M  V30 4 C 3.151443 -2.666263 0.810021 0
M  V30 5 C 4.161095 -1.982961 -0.127232 0
M  V30 6 C 3.323006 -1.366534 -1.185691 0
M  V30 7 O 2.173149 -1.550482 -0.635001 0
M  V30 8 N 3.335785 -0.719789 -2.454998 0
M  V30 9 C 1.917914 -0.483738 -2.682220 0
M  V30 10 N 1.166469 0.579867 -2.467579 0
M  V30 11 C -0.112293 0.443328 -2.730733 0
M  V30 12 C -0.741431 1.743353 -2.392001 0
M  V30 13 C -0.595508 2.917177 -3.140200 0
M  V30 14 C -1.157715 4.104951 -2.736747 0
M  V30 15 C -1.890080 4.156505 -1.562725 0
M  V30 16 F -2.384468 5.392392 -1.276353 0
M  V30 17 C -2.043382 2.995236 -0.812351 0
M  V30 18 C -1.474506 1.831616 -1.237816 0
M  V30 19 C -0.669829 -0.684818 -3.191316 0
M  V30 20 C -2.052616 -1.056931 -3.521463 0
M  V30 21 C -2.891648 -0.805807 -4.540319 0
M  V30 22 C -4.149400 -1.366081 -4.462489 0
M  V30 23 N -4.534401 -2.133070 -3.416007 0
M  V30 24 C -3.684097 -2.389025 -2.378568 0
M  V30 25 N -4.177605 -3.193966 -1.288395 0
M  V30 26 C -3.829345 -2.417207 -0.125139 0
M  V30 27 C -4.796628 -1.928435 0.773122 0
M  V30 28 C -4.335028 -1.178189 1.854165 0
M  V30 29 C -3.025032 -0.890315 2.098865 0
M  V30 30 N -2.574121 -0.083442 3.208605 0
M  V30 31 C -3.406671 0.784979 4.027753 0
M  V30 32 C -2.894655 2.200633 4.045021 0
M  V30 33 N -1.438848 2.231003 3.971101 0
M  V30 34 C -0.901851 1.015147 4.564007 0
M  V30 35 C -1.174136 -0.106753 3.583461 0
M  V30 36 C -2.039565 -1.358262 1.235922 0
M  V30 37 C -2.494436 -2.111023 0.148845 0
M  V30 38 N -2.496790 -1.812571 -2.535400 0
M  V30 39 S 0.764396 -1.738070 -3.288017 0
M  V30 40 C 5.042555 -3.048846 -0.680912 0
M  V30 41 C 5.835459 -3.719288 0.389575 0
M  V30 42 H 6.557158 -2.085569 2.135990 0
M  V30 43 H 6.164236 -3.215840 3.449739 0
M  V30 44 H 4.906798 -2.073728 2.986245 0
M  V30 45 H 3.423285 -3.543534 2.700491 0
M  V30 46 H 3.383660 -4.727728 1.397525 0
M  V30 47 H 2.469732 -3.227806 0.092772 0
M  V30 48 H 2.545827 -1.924260 1.327927 0
M  V30 49 H 4.765707 -1.241964 0.432376 0
M  V30 50 H 4.309897 -0.680058 -2.687685 0
M  V30 51 H -0.006879 2.835462 -4.063512 0
M  V30 52 H -0.970115 4.958428 -3.413174 0
M  V30 53 H -2.625812 3.133959 0.079532 0
M  V30 54 H -1.642568 0.977411 -0.608153 0
M  V30 55 H -2.435458 -0.170986 -5.296080 0
M  V30 56 H -4.799914 -1.132968 -5.323202 0
M  V30 57 H -4.672184 -4.118109 -1.358192 0
M  V30 58 H -5.825883 -2.157448 0.584616 0
M  V30 59 H -5.100912 -0.821021 2.520940 0
M  V30 60 H -4.442100 0.693996 3.679972 0
M  V30 61 H -3.364360 0.408120 5.065369 0
M  V30 62 H -3.246556 2.753936 4.929915 0
M  V30 63 H -3.275115 2.711970 3.148154 0
M  V30 64 H -1.073029 2.367479 3.007445 0
M  V30 65 H -1.441380 0.807010 5.486530 0
M  V30 66 H 0.188279 1.181449 4.715287 0
M  V30 67 H -0.912975 -1.091977 4.031307 0
M  V30 68 H -0.515513 0.135590 2.697234 0
M  V30 69 H -0.987328 -1.205381 1.307969 0
M  V30 70 H -1.714641 -2.493732 -0.516675 0
M  V30 71 H 5.670788 -2.634657 -1.523075 0
M  V30 72 H 4.380994 -3.811426 -1.165745 0
M  V30 73 H 6.070839 -4.779282 0.154347 0
M  V30 74 H 6.807453 -3.192620 0.466174 0
M  V30 END ATOM
M  V30 BEGIN BOND
M  V30 1 1 1 2
M  V30 2 1 2 3
M  V30 3 1 3 4
M  V30 4 1 4 5
M  V30 5 1 5 6
M  V30 6 2 6 7
M  V30 7 1 6 8
M  V30 8 1 8 9
M  V30 9 2 9 10
M  V30 10 1 10 11
M  V30 11 1 11 12
M  V30 12 2 12 13
M  V30 13 1 13 14
M  V30 14 2 14 15
M  V30 15 1 15 16
M  V30 16 1 15 17
M  V30 17 2 17 18
M  V30 18 2 11 19
M  V30 19 1 19 20
M  V30 20 2 20 21
M  V30 21 1 21 22
M  V30 22 2 22 23
M  V30 23 1 23 24
M  V30 24 1 24 25
M  V30 25 1 25 26
M  V30 26 2 26 27
M  V30 27 1 27 28
M  V30 28 2 28 29
M  V30 29 1 29 30
M  V30 30 1 30 31
M  V30 31 1 31 32
M  V30 32 1 32 33
M  V30 33 1 33 34
M  V30 34 1 34 35
M  V30 35 1 29 36
M  V30 36 2 36 37
M  V30 37 2 24 38
M  V30 38 1 19 39
M  V30 39 1 5 40
M  V30 40 1 40 41
M  V30 41 1 41 2
M  V30 42 1 39 9
M  V30 43 1 18 12
M  V30 44 1 38 20
M  V30 45 1 37 26
M  V30 46 1 35 30
M  V30 47 1 1 42
M  V30 48 1 1 43
M  V30 49 1 1 44
M  V30 50 1 3 45
M  V30 51 1 3 46
M  V30 52 1 4 47
M  V30 53 1 4 48
M  V30 54 1 5 49
M  V30 55 1 8 50
M  V30 56 1 13 51
M  V30 57 1 14 52
M  V30 58 1 17 53
M  V30 59 1 18 54
M  V30 60 1 21 55
M  V30 61 1 22 56
M  V30 62 1 25 57
M  V30 63 1 27 58
M  V30 64 1 28 59
M  V30 65 1 31 60
M  V30 66 1 31 61
M  V30 67 1 32 62
M  V30 68 1 32 63
M  V30 69 1 33 64
M  V30 70 1 34 65
M  V30 71 1 34 66
M  V30 72 1 35 67
M  V30 73 1 35 68
M  V30 74 1 36 69
M  V30 75 1 37 70
M  V30 76 1 40 71
M  V30 77 1 40 72
M  V30 78 1 41 73
M  V30 79 1 41 74
M  V30 END BOND
M  V30 END CTAB
M  END
>  <Dataset>  (40) 
ChEMBL_Kinases

>  <Ligand_Instance>  (40) 
nan

>  <PDB_ID>  (40) 
nan

>  <Standardized_SMILES>  (40) 
CN1CCC(C(=O)Nc2nc(-c3ccc(F)cc3)c(-c3ccnc(Nc4ccc(N5CCNCC5)cc4)n3)s2)CC1

>  <Name>  (40) 
nan

>  <Pocket>  (40) 
nan

>  <ATP_Site>  (40) 
nan

>  <Peripheral>  (40) 
nan

>  <Num_H_Atoms_ProtBoundConf>  (40) 
nan

>  <Num_Resolved_Atoms>  (40) 
nan

>  <Num_Not_Resolved_Atoms>  (40) 
nan

$$$$
CHEMBL4459831
     RDKit          3D

  0  0  0  0  0  0  0  0  0  0999 V3000
M  V30 BEGIN CTAB
M  V30 COUNTS 43 46 0 0 0
M  V30 BEGIN ATOM
M  V30 1 C -1.823479 -3.122952 1.820743 0
M  V30 2 C -0.353383 -2.957619 1.482414 0 CFG=1
M  V30 3 N -0.100925 -1.677478 0.963164 0
M  V30 4 C 0.156263 -0.373212 0.434071 0
M  V30 5 N -0.144171 0.112106 -0.776225 0
M  V30 6 C 0.152807 1.312579 -1.259845 0
M  V30 7 C -0.255294 1.680104 -2.611114 0
M  V30 8 C -0.228989 0.784166 -3.686128 0
M  V30 9 C -0.676258 1.452747 -4.807991 0
M  V30 10 N -0.963020 2.711574 -4.421794 0
M  V30 11 N -0.711002 2.844301 -3.111472 0
M  V30 12 C -0.878025 4.037198 -2.277507 0
M  V30 13 N 0.824564 2.080671 -0.405543 0
M  V30 14 C 1.201134 1.751576 0.835876 0
M  V30 15 C 1.881492 2.704026 1.565383 0
M  V30 16 N 2.244086 2.377947 2.816177 0
M  V30 17 C 1.951816 1.157202 3.342806 0
M  V30 18 C 1.274335 0.271010 2.550863 0
M  V30 19 C 0.851065 0.486600 1.256958 0
M  V30 20 C 0.501228 -3.390714 2.627706 0
M  V30 21 C 0.031887 -3.888798 3.831313 0
M  V30 22 C 0.938817 -4.275146 4.794839 0
M  V30 23 C 2.308677 -4.203728 4.652687 0
M  V30 24 C 2.757805 -3.706093 3.449397 0
M  V30 25 C 1.888407 -3.307061 2.456113 0
M  V30 26 H -2.464036 -2.601828 1.054532 0
M  V30 27 H -2.118309 -4.178687 1.810623 0
M  V30 28 H -2.078967 -2.657982 2.797924 0
M  V30 29 H -0.116538 -3.773731 0.706362 0
M  V30 30 H -0.688293 -1.984960 0.121613 0
M  V30 31 H 0.089282 -0.260503 -3.644274 0
M  V30 32 H -0.787793 1.058866 -5.827462 0
M  V30 33 H -0.925393 4.955429 -2.875957 0
M  V30 34 H -1.816926 3.949312 -1.683954 0
M  V30 35 H -0.045394 4.054363 -1.530462 0
M  V30 36 H 2.119584 3.674492 1.160051 0
M  V30 37 H 2.238731 0.889709 4.344531 0
M  V30 38 H 1.034982 -0.679292 2.988154 0
M  V30 39 H -1.032401 -3.952763 3.960217 0
M  V30 40 H 0.528104 -4.661210 5.727927 0
M  V30 41 H 3.024075 -4.505476 5.404480 0
M  V30 42 H 3.844587 -3.636993 3.307034 0
M  V30 43 H 2.339835 -2.929132 1.544560 0
M  V30 END ATOM
M  V30 BEGIN BOND
M  V30 1 1 1 2
M  V30 2 1 2 3
M  V30 3 1 3 4
M  V30 4 2 4 5
M  V30 5 1 5 6
M  V30 6 1 6 7
M  V30 7 2 7 8
M  V30 8 1 8 9
M  V30 9 2 9 10
M  V30 10 1 10 11
M  V30 11 1 11 12
M  V30 12 2 6 13
M  V30 13 1 13 14
M  V30 14 2 14 15
M  V30 15 1 15 16
M  V30 16 2 16 17
M  V30 17 1 17 18
M  V30 18 2 18 19
M  V30 19 1 2 20
M  V30 20 2 20 21
M  V30 21 1 21 22
M  V30 22 2 22 23
M  V30 23 1 23 24
M  V30 24 2 24 25
M  V30 25 1 19 4
M  V30 26 1 25 20
M  V30 27 1 11 7
M  V30 28 1 19 14
M  V30 29 1 1 26
M  V30 30 1 1 27
M  V30 31 1 1 28
M  V30 32 1 2 29 CFG=3
M  V30 33 1 3 30
M  V30 34 1 8 31
M  V30 35 1 9 32
M  V30 36 1 12 33
M  V30 37 1 12 34
M  V30 38 1 12 35
M  V30 39 1 15 36
M  V30 40 1 17 37
M  V30 41 1 18 38
M  V30 42 1 21 39
M  V30 43 1 22 40
M  V30 44 1 23 41
M  V30 45 1 24 42
M  V30 46 1 25 43
M  V30 END BOND
M  V30 END CTAB
M  END
>  <Dataset>  (41) 
ChEMBL_Kinases

>  <Ligand_Instance>  (41) 
nan

>  <PDB_ID>  (41) 
nan

>  <Standardized_SMILES>  (41) 
C[C@@H](Nc1nc(-c2ccnn2C)nc2cnccc12)c1ccccc1

>  <Name>  (41) 
nan

>  <Pocket>  (41) 
nan

>  <ATP_Site>  (41) 
nan

>  <Peripheral>  (41) 
nan

>  <Num_H_Atoms_ProtBoundConf>  (41) 
nan

>  <Num_Resolved_Atoms>  (41) 
nan

>  <Num_Not_Resolved_Atoms>  (41) 
nan

$$$$
CHEMBL4459788
     RDKit          3D

  0  0  0  0  0  0  0  0  0  0999 V3000
M  V30 BEGIN CTAB
M  V30 COUNTS 53 55 0 0 0
M  V30 BEGIN ATOM
M  V30 1 C 1.367203 -3.640197 2.237865 0
M  V30 2 C 2.285921 -3.361445 1.115829 0
M  V30 3 N 3.600857 -3.622276 1.020975 0
M  V30 4 N 4.076408 -3.217747 -0.155820 0
M  V30 5 C 3.068021 -2.667634 -0.884868 0
M  V30 6 C 3.175562 -2.088973 -2.266737 0
M  V30 7 C 1.947845 -2.761935 -0.079235 0
M  V30 8 C 0.665115 -2.271110 -0.527940 0
M  V30 9 N 0.308214 -0.998938 -0.280767 0
M  V30 10 C -0.856018 -0.442208 -0.651485 0
M  V30 11 N -1.154937 0.915132 -0.351877 0
M  V30 12 C -0.169191 1.690851 0.373143 0
M  V30 13 C 1.085134 1.661081 -0.470630 0
M  V30 14 C -0.633120 3.129383 0.470554 0
M  V30 15 C 0.086197 1.181787 1.770633 0
M  V30 16 C -1.148839 1.198805 2.607433 0
M  V30 17 N -0.975651 0.724823 3.956240 0
M  V30 18 C -2.243413 0.788231 4.700637 0
M  V30 19 C -0.539595 -0.656928 4.020232 0
M  V30 20 C -1.688059 -1.306485 -1.329888 0
M  V30 21 C -2.909409 -0.850705 -1.760720 0
M  V30 22 C -3.805603 -1.636705 -2.443912 0
M  V30 23 N -3.480676 -2.926804 -2.712191 0
M  V30 24 C -2.294141 -3.419893 -2.310092 0
M  V30 25 C -1.397412 -2.620434 -1.622244 0
M  V30 26 N -0.187436 -3.072008 -1.195340 0
M  V30 27 H 1.560628 -4.651460 2.644654 0
M  V30 28 H 1.553880 -2.893199 3.054645 0
M  V30 29 H 0.333740 -3.520513 1.916713 0
M  V30 30 H 5.064580 -3.299771 -0.487967 0
M  V30 31 H 2.910543 -2.830595 -3.021995 0
M  V30 32 H 4.235487 -1.757831 -2.377169 0
M  V30 33 H 2.554983 -1.174842 -2.316094 0
M  V30 34 H -2.036807 1.390548 -0.618637 0
M  V30 35 H 1.490242 2.686186 -0.603960 0
M  V30 36 H 0.900117 1.294389 -1.512732 0
M  V30 37 H 1.876656 1.014365 -0.033007 0
M  V30 38 H -1.738590 3.138094 0.509012 0
M  V30 39 H -0.176264 3.560768 1.384452 0
M  V30 40 H -0.248519 3.714043 -0.407794 0
M  V30 41 H 0.810429 1.909687 2.233999 0
M  V30 42 H 0.620927 0.237729 1.708820 0
M  V30 43 H -1.537268 2.225910 2.640460 0
M  V30 44 H -1.956356 0.586250 2.152524 0
M  V30 45 H -2.139914 0.080440 5.541655 0
M  V30 46 H -3.009774 0.363816 4.010851 0
M  V30 47 H -2.462157 1.823887 5.016893 0
M  V30 48 H -1.346669 -1.326269 4.385546 0
M  V30 49 H 0.274850 -0.696661 4.801686 0
M  V30 50 H -0.140525 -1.054404 3.083233 0
M  V30 51 H -3.240971 0.152936 -1.589359 0
M  V30 52 H -4.781224 -1.275360 -2.788971 0
M  V30 53 H -1.968937 -4.439791 -2.489651 0
M  V30 END ATOM
M  V30 BEGIN BOND
M  V30 1 1 1 2
M  V30 2 2 2 3
M  V30 3 1 3 4
M  V30 4 1 4 5
M  V30 5 1 5 6
M  V30 6 2 5 7
M  V30 7 1 7 8
M  V30 8 2 8 9
M  V30 9 1 9 10
M  V30 10 1 10 11
M  V30 11 1 11 12
M  V30 12 1 12 13
M  V30 13 1 12 14
M  V30 14 1 12 15
M  V30 15 1 15 16
M  V30 16 1 16 17
M  V30 17 1 17 18
M  V30 18 1 17 19
M  V30 19 2 10 20
M  V30 20 1 20 21
M  V30 21 2 21 22
M  V30 22 1 22 23
M  V30 23 2 23 24
M  V30 24 1 24 25
M  V30 25 2 25 26
M  V30 26 1 7 2
M  V30 27 1 26 8
M  V30 28 1 25 20
M  V30 29 1 1 27
M  V30 30 1 1 28
M  V30 31 1 1 29
M  V30 32 1 4 30
M  V30 33 1 6 31
M  V30 34 1 6 32
M  V30 35 1 6 33
M  V30 36 1 11 34
M  V30 37 1 13 35
M  V30 38 1 13 36
M  V30 39 1 13 37
M  V30 40 1 14 38
M  V30 41 1 14 39
M  V30 42 1 14 40
M  V30 43 1 15 41
M  V30 44 1 15 42
M  V30 45 1 16 43
M  V30 46 1 16 44
M  V30 47 1 18 45
M  V30 48 1 18 46
M  V30 49 1 18 47
M  V30 50 1 19 48
M  V30 51 1 19 49
M  V30 52 1 19 50
M  V30 53 1 21 51
M  V30 54 1 22 52
M  V30 55 1 24 53
M  V30 END BOND
M  V30 END CTAB
M  END
>  <Dataset>  (42) 
ChEMBL_Kinases

>  <Ligand_Instance>  (42) 
nan

>  <PDB_ID>  (42) 
nan

>  <Standardized_SMILES>  (42) 
Cc1n[nH]c(C)c1-c1nc(NC(C)(C)CCN(C)C)c2ccncc2n1

>  <Name>  (42) 
nan

>  <Pocket>  (42) 
nan

>  <ATP_Site>  (42) 
nan

>  <Peripheral>  (42) 
nan

>  <Num_H_Atoms_ProtBoundConf>  (42) 
nan

>  <Num_Resolved_Atoms>  (42) 
nan

>  <Num_Not_Resolved_Atoms>  (42) 
nan

$$$$
CHEMBL4459386
     RDKit          3D

  0  0  0  0  0  0  0  0  0  0999 V3000
M  V30 BEGIN CTAB
M  V30 COUNTS 41 44 0 0 0
M  V30 BEGIN ATOM
M  V30 1 C 0.159965 -4.543722 4.414542 0
M  V30 2 C -0.843833 -4.382258 3.298271 0
M  V30 3 O -2.134593 -4.571341 3.782660 0
M  V30 4 C -0.787170 -3.067393 2.658554 0
M  V30 5 C -0.720362 -1.981660 2.135702 0
M  V30 6 C -0.619940 -0.685861 1.503332 0
M  V30 7 C -0.222467 -0.667004 0.180140 0
M  V30 8 C -0.115196 0.558898 -0.458769 0
M  V30 9 C -0.406126 1.739660 0.233995 0
M  V30 10 N -0.234977 2.889415 -0.599271 0
M  V30 11 C -1.081178 3.714301 -1.230034 0
M  V30 12 C -0.333979 4.680949 -1.910090 0
M  V30 13 C 1.006034 4.414642 -1.670187 0
M  V30 14 C 2.132744 5.076168 -2.114665 0
M  V30 15 N 3.340878 4.627724 -1.746324 0
M  V30 16 C 3.386225 3.526989 -0.941470 0
M  V30 17 N 4.566519 2.882985 -0.431353 0
M  V30 18 N 2.280335 2.904321 -0.524642 0
M  V30 19 C 1.034119 3.286404 -0.845849 0
M  V30 20 C -0.801135 1.692701 1.555493 0
M  V30 21 C -0.906655 0.471862 2.187427 0
M  V30 22 C -0.472221 -5.460732 2.289579 0
M  V30 23 N 0.190606 -5.639128 1.368767 0
M  V30 24 C 0.316652 -6.742069 0.652551 0
M  V30 25 C -0.481372 -7.842149 1.095629 0
M  V30 26 S -1.351609 -7.119240 2.551944 0
M  V30 27 H -0.173350 -5.414424 5.026128 0
M  V30 28 H 1.169730 -4.812892 4.037790 0
M  V30 29 H 0.174655 -3.668251 5.098496 0
M  V30 30 H -2.583017 -3.690041 3.959223 0
M  V30 31 H -0.002953 -1.588422 -0.335521 0
M  V30 32 H 0.201925 0.502287 -1.497931 0
M  V30 33 H -2.153955 3.556055 -1.151011 0
M  V30 34 H -0.804787 5.455429 -2.491310 0
M  V30 35 H 2.069695 5.942627 -2.749145 0
M  V30 36 H 5.365738 2.284391 -0.734023 0
M  V30 37 H 4.880312 2.927476 0.564446 0
M  V30 38 H -0.998008 2.650940 1.987533 0
M  V30 39 H -1.212502 0.455056 3.206114 0
M  V30 40 H 1.016289 -6.663710 -0.184420 0
M  V30 41 H -0.298203 -8.797031 0.382779 0
M  V30 END ATOM
M  V30 BEGIN BOND
M  V30 1 1 1 2
M  V30 2 1 2 3
M  V30 3 1 2 4
M  V30 4 3 4 5
M  V30 5 1 5 6
M  V30 6 2 6 7
M  V30 7 1 7 8
M  V30 8 2 8 9
M  V30 9 1 9 10
M  V30 10 1 10 11
M  V30 11 2 11 12
M  V30 12 1 12 13
M  V30 13 2 13 14
M  V30 14 1 14 15
M  V30 15 2 15 16
M  V30 16 1 16 17
M  V30 17 1 16 18
M  V30 18 2 18 19
M  V30 19 1 9 20
M  V30 20 2 20 21
M  V30 21 1 2 22
M  V30 22 2 22 23
M  V30 23 1 23 24
M  V30 24 2 24 25
M  V30 25 1 25 26
M  V30 26 1 21 6
M  V30 27 1 26 22
M  V30 28 1 19 10
M  V30 29 1 19 13
M  V30 30 1 1 27
M  V30 31 1 1 28
M  V30 32 1 1 29
M  V30 33 1 3 30
M  V30 34 1 7 31
M  V30 35 1 8 32
M  V30 36 1 11 33
M  V30 37 1 12 34
M  V30 38 1 14 35
M  V30 39 1 17 36
M  V30 40 1 17 37
M  V30 41 1 20 38
M  V30 42 1 21 39
M  V30 43 1 24 40
M  V30 44 1 25 41
M  V30 END BOND
M  V30 END CTAB
M  END
>  <Dataset>  (43) 
ChEMBL_Kinases

>  <Ligand_Instance>  (43) 
nan

>  <PDB_ID>  (43) 
nan

>  <Standardized_SMILES>  (43) 
CC(O)(C#Cc1ccc(-n2ccc3cnc(N)nc32)cc1)c1nccs1

>  <Name>  (43) 
nan

>  <Pocket>  (43) 
nan

>  <ATP_Site>  (43) 
nan

>  <Peripheral>  (43) 
nan

>  <Num_H_Atoms_ProtBoundConf>  (43) 
nan

>  <Num_Resolved_Atoms>  (43) 
nan

>  <Num_Not_Resolved_Atoms>  (43) 
nan

$$$$
CHEMBL445934
     RDKit          3D

  0  0  0  0  0  0  0  0  0  0999 V3000
M  V30 BEGIN CTAB
M  V30 COUNTS 50 54 0 0 0
M  V30 BEGIN ATOM
M  V30 1 C -1.093089 -0.341351 5.143767 0
M  V30 2 C -0.236341 -1.057897 4.139510 0
M  V30 3 C 0.236438 -2.288551 4.537460 0
M  V30 4 C 1.037215 -3.016049 3.665821 0
M  V30 5 C 1.328880 -2.476516 2.430815 0
M  V30 6 C 0.829194 -1.241555 2.084189 0
M  V30 7 C 1.158680 -0.700791 0.769819 0
M  V30 8 N 1.846066 0.394909 0.327416 0
M  V30 9 C 1.816958 0.369251 -1.031797 0
M  V30 10 N 2.485874 1.443867 -1.668011 0
M  V30 11 C 1.880511 2.602642 -2.282976 0
M  V30 12 C 1.033699 3.302508 -1.292078 0
M  V30 13 C 1.386335 4.330152 -0.414700 0
M  V30 14 C 0.459007 4.882472 0.441577 0
M  V30 15 C -0.850181 4.446137 0.469399 0
M  V30 16 C -1.850542 4.989271 1.336200 0
M  V30 17 N -2.655113 5.442516 2.028229 0
M  V30 18 C -1.249750 3.435112 -0.375608 0
M  V30 19 C -0.305393 2.899066 -1.222587 0
M  V30 20 N 1.118786 -0.729200 -1.419471 0
M  V30 21 C 0.701288 -1.407212 -0.337613 0
M  V30 22 C -0.075010 -2.640397 -0.464700 0
M  V30 23 C -1.319615 -2.688783 0.129290 0
M  V30 24 C -2.114453 -3.838760 0.040803 0
M  V30 25 C -1.607875 -4.914981 -0.658405 0
M  V30 26 C -0.370847 -4.847532 -1.241378 0
M  V30 27 C 0.457646 -3.720903 -1.178969 0
M  V30 28 O -0.123235 -6.072313 -1.876933 0
M  V30 29 C -1.044390 -7.035470 -1.349149 0
M  V30 30 O -2.126646 -6.189766 -0.934758 0
M  V30 31 N 0.040679 -0.516992 2.933152 0
M  V30 32 H -1.738126 0.402539 4.640703 0
M  V30 33 H -1.736014 -1.068269 5.661347 0
M  V30 34 H -0.484335 0.190797 5.897526 0
M  V30 35 H 0.003714 -2.720626 5.520299 0
M  V30 36 H 1.415836 -3.981212 3.957110 0
M  V30 37 H 1.956058 -3.057586 1.761460 0
M  V30 38 H 2.214138 0.965247 1.126698 0
M  V30 39 H 3.523722 1.335079 -1.660862 0
M  V30 40 H 2.659116 3.284577 -2.693267 0
M  V30 41 H 1.236233 2.315422 -3.139933 0
M  V30 42 H 2.419131 4.620667 -0.489517 0
M  V30 43 H 0.768333 5.676047 1.104756 0
M  V30 44 H -2.269238 3.078133 -0.371127 0
M  V30 45 H -0.661399 2.097535 -1.877264 0
M  V30 46 H -1.698771 -1.817710 0.681024 0
M  V30 47 H -3.087452 -3.864894 0.507997 0
M  V30 48 H 1.430770 -3.668867 -1.640015 0
M  V30 49 H -1.339564 -7.781058 -2.086029 0
M  V30 50 H -0.505407 -7.460141 -0.459953 0
M  V30 END ATOM
M  V30 BEGIN BOND
M  V30 1 1 1 2
M  V30 2 2 2 3
M  V30 3 1 3 4
M  V30 4 2 4 5
M  V30 5 1 5 6
M  V30 6 1 6 7
M  V30 7 1 7 8
M  V30 8 1 8 9
M  V30 9 1 9 10
M  V30 10 1 10 11
M  V30 11 1 11 12
M  V30 12 2 12 13
M  V30 13 1 13 14
M  V30 14 2 14 15
M  V30 15 1 15 16
M  V30 16 3 16 17
M  V30 17 1 15 18
M  V30 18 2 18 19
M  V30 19 2 9 20
M  V30 20 1 20 21
M  V30 21 1 21 22
M  V30 22 2 22 23
M  V30 23 1 23 24
M  V30 24 2 24 25
M  V30 25 1 25 26
M  V30 26 2 26 27
M  V30 27 1 26 28
M  V30 28 1 28 29
M  V30 29 1 29 30
M  V30 30 2 6 31
M  V30 31 1 31 2
M  V30 32 2 21 7
M  V30 33 1 27 22
M  V30 34 1 19 12
M  V30 35 1 30 25
M  V30 36 1 1 32
M  V30 37 1 1 33
M  V30 38 1 1 34
M  V30 39 1 3 35
M  V30 40 1 4 36
M  V30 41 1 5 37
M  V30 42 1 8 38
M  V30 43 1 10 39
M  V30 44 1 11 40
M  V30 45 1 11 41
M  V30 46 1 13 42
M  V30 47 1 14 43
M  V30 48 1 18 44
M  V30 49 1 19 45
M  V30 50 1 23 46
M  V30 51 1 24 47
M  V30 52 1 27 48
M  V30 53 1 29 49
M  V30 54 1 29 50
M  V30 END BOND
M  V30 END CTAB
M  END
>  <Dataset>  (44) 
ChEMBL_Kinases

>  <Ligand_Instance>  (44) 
nan

>  <PDB_ID>  (44) 
nan

>  <Standardized_SMILES>  (44) 
Cc1cccc(-c2[nH]c(NCc3ccc(C#N)cc3)nc2-c2ccc3c(c2)OCO3)n1

>  <Name>  (44) 
nan

>  <Pocket>  (44) 
nan

>  <ATP_Site>  (44) 
nan

>  <Peripheral>  (44) 
nan

>  <Num_H_Atoms_ProtBoundConf>  (44) 
nan

>  <Num_Resolved_Atoms>  (44) 
nan

>  <Num_Not_Resolved_Atoms>  (44) 
nan

$$$$
CHEMBL4459333
     RDKit          3D

  0  0  0  0  0  0  0  0  0  0999 V3000
M  V30 BEGIN CTAB
M  V30 COUNTS 39 42 0 0 0
M  V30 BEGIN ATOM
M  V30 1 C 0.667523 -4.906103 1.991997 0
M  V30 2 C 1.489247 -4.126907 3.008525 0
M  V30 3 C 0.627602 -2.973127 3.536842 0
M  V30 4 N 0.230976 -2.102844 2.497369 0
M  V30 5 C -0.162812 -1.238637 1.465156 0
M  V30 6 N 0.550430 -0.473480 0.627331 0
M  V30 7 C 0.048373 0.314462 -0.321104 0
M  V30 8 N 1.046935 1.009817 -1.053605 0
M  V30 9 C 1.779586 0.495877 -2.057367 0
M  V30 10 C 2.641874 1.468363 -2.516044 0
M  V30 11 C 2.432162 2.609424 -1.773272 0
M  V30 12 N 2.973818 3.838461 -1.776599 0
M  V30 13 C 2.564409 4.782701 -0.913743 0
M  V30 14 C 1.560466 4.571450 0.041986 0
M  V30 15 C 1.053871 3.291644 -0.014313 0
M  V30 16 C 1.427240 2.285661 -0.867819 0
M  V30 17 N -1.281384 0.311353 -0.409925 0
M  V30 18 C -2.119503 -0.389151 0.344246 0
M  V30 19 C -3.468841 -0.285219 0.130719 0
M  V30 20 N -4.299924 -0.997344 0.899699 0
M  V30 21 C -3.841050 -1.820514 1.886528 0
M  V30 22 C -2.474367 -1.876507 2.045917 0
M  V30 23 C -1.535607 -1.189262 1.312745 0
M  V30 24 H 0.717899 -4.392691 0.994868 0
M  V30 25 H -0.402958 -4.958052 2.276115 0
M  V30 26 H 1.131124 -5.904674 1.864368 0
M  V30 27 H 2.385404 -3.681006 2.506981 0
M  V30 28 H 1.807085 -4.757872 3.851050 0
M  V30 29 H 1.092937 -2.502119 4.437671 0
M  V30 30 H -0.326669 -3.501033 3.893065 0
M  V30 31 H 1.287260 -1.924239 2.393151 0
M  V30 32 H 1.684212 -0.525613 -2.425939 0
M  V30 33 H 3.361897 1.347502 -3.325968 0
M  V30 34 H 3.020322 5.782902 -0.933048 0
M  V30 35 H 1.249373 5.335734 0.718347 0
M  V30 36 H 0.264546 3.031626 0.695851 0
M  V30 37 H -3.938875 0.327992 -0.613631 0
M  V30 38 H -4.511651 -2.386622 2.496124 0
M  V30 39 H -2.145967 -2.532758 2.831840 0
M  V30 END ATOM
M  V30 BEGIN BOND
M  V30 1 1 1 2
M  V30 2 1 2 3
M  V30 3 1 3 4
M  V30 4 1 4 5
M  V30 5 2 5 6
M  V30 6 1 6 7
M  V30 7 1 7 8
M  V30 8 1 8 9
M  V30 9 2 9 10
M  V30 10 1 10 11
M  V30 11 2 11 12
M  V30 12 1 12 13
M  V30 13 2 13 14
M  V30 14 1 14 15
M  V30 15 2 15 16
M  V30 16 2 7 17
M  V30 17 1 17 18
M  V30 18 2 18 19
M  V30 19 1 19 20
M  V30 20 2 20 21
M  V30 21 1 21 22
M  V30 22 2 22 23
M  V30 23 1 23 5
M  V30 24 1 16 8
M  V30 25 1 23 18
M  V30 26 1 16 11
M  V30 27 1 1 24
M  V30 28 1 1 25
M  V30 29 1 1 26
M  V30 30 1 2 27
M  V30 31 1 2 28
M  V30 32 1 3 29
M  V30 33 1 3 30
M  V30 34 1 4 31
M  V30 35 1 9 32
M  V30 36 1 10 33
M  V30 37 1 13 34
M  V30 38 1 14 35
M  V30 39 1 15 36
M  V30 40 1 19 37
M  V30 41 1 21 38
M  V30 42 1 22 39
M  V30 END BOND
M  V30 END CTAB
M  END
>  <Dataset>  (45) 
ChEMBL_Kinases

>  <Ligand_Instance>  (45) 
nan

>  <PDB_ID>  (45) 
nan

>  <Standardized_SMILES>  (45) 
CCCNc1nc(-n2ccc3ncccc32)nc2cnccc12

>  <Name>  (45) 
nan

>  <Pocket>  (45) 
nan

>  <ATP_Site>  (45) 
nan

>  <Peripheral>  (45) 
nan

>  <Num_H_Atoms_ProtBoundConf>  (45) 
nan

>  <Num_Resolved_Atoms>  (45) 
nan

>  <Num_Not_Resolved_Atoms>  (45) 
nan

$$$$
CHEMBL4459320
     RDKit          3D

  0  0  0  0  0  0  0  0  0  0999 V3000
M  V30 BEGIN CTAB
M  V30 COUNTS 54 58 0 0 0
M  V30 BEGIN ATOM
M  V30 1 N -1.815494 2.592892 6.265468 0
M  V30 2 C -0.974938 2.481422 5.062301 0
M  V30 3 N -0.130590 1.785501 4.777522 0
M  V30 4 C 0.610634 1.701612 3.694519 0
M  V30 5 C 1.675059 0.722528 3.501736 0
M  V30 6 C 2.770845 0.804704 4.367882 0
M  V30 7 C 3.851807 -0.050823 4.308815 0
M  V30 8 C 3.868269 -1.043075 3.352832 0
M  V30 9 F 4.842282 -1.976728 3.140630 0
M  V30 10 C 2.800518 -1.156062 2.476947 0
M  V30 11 C 1.739244 -0.284378 2.566136 0
M  V30 12 C 0.311588 2.622089 2.729549 0
M  V30 13 C 0.877929 2.899096 1.357031 0
M  V30 14 C 1.533671 4.073097 1.084480 0
M  V30 15 C 2.007247 4.216483 -0.201328 0
M  V30 16 N 1.840752 3.271494 -1.132855 0
M  V30 17 C 1.201032 2.123115 -0.873775 0
M  V30 18 N 1.055248 1.144017 -1.892179 0
M  V30 19 C 0.371907 -0.098194 -1.832856 0
M  V30 20 C -0.413785 -0.522940 -0.787322 0
M  V30 21 C -1.055954 -1.759532 -0.772487 0
M  V30 22 C -0.923252 -2.610048 -1.819346 0
M  V30 23 N -1.570735 -3.887211 -1.826195 0
M  V30 24 C -2.326876 -4.432906 -0.718348 0
M  V30 25 C -3.785785 -4.387702 -1.106091 0
M  V30 26 N -4.022290 -4.722867 -2.464523 0
M  V30 27 C -2.958273 -5.350203 -3.158254 0
M  V30 28 C -1.583799 -4.824340 -2.918474 0
M  V30 29 C -0.152023 -2.208713 -2.860884 0
M  V30 30 C 0.482360 -0.988495 -2.877047 0
M  V30 31 N 0.750526 2.007541 0.382505 0
M  V30 32 S -1.084828 3.578996 3.506992 0
M  V30 33 H -1.554877 3.259190 7.027845 0
M  V30 34 H -2.679402 2.021847 6.391508 0
M  V30 35 H 2.850349 1.561430 5.162794 0
M  V30 36 H 4.699837 -0.020719 4.946698 0
M  V30 37 H 2.705283 -1.903017 1.680410 0
M  V30 38 H 0.890480 -0.342375 1.903655 0
M  V30 39 H 1.649634 4.813592 1.860239 0
M  V30 40 H 2.534450 5.136215 -0.459357 0
M  V30 41 H 1.523215 1.384949 -2.817648 0
M  V30 42 H -0.550648 0.117676 0.057571 0
M  V30 43 H -1.643264 -1.977880 0.097915 0
M  V30 44 H -2.125676 -3.910746 0.231558 0
M  V30 45 H -1.997318 -5.496769 -0.520459 0
M  V30 46 H -4.144842 -3.355392 -0.916799 0
M  V30 47 H -4.336897 -5.067149 -0.429888 0
M  V30 48 H -4.645124 -4.097857 -3.002451 0
M  V30 49 H -3.015188 -6.451821 -2.941855 0
M  V30 50 H -3.161292 -5.270285 -4.259839 0
M  V30 51 H -1.097352 -4.453257 -3.847858 0
M  V30 52 H -0.925503 -5.688085 -2.606825 0
M  V30 53 H 0.022573 -2.805143 -3.742305 0
M  V30 54 H 1.100227 -0.698227 -3.739591 0
M  V30 END ATOM
M  V30 BEGIN BOND
M  V30 1 1 1 2
M  V30 2 2 2 3
M  V30 3 1 3 4
M  V30 4 1 4 5
M  V30 5 2 5 6
M  V30 6 1 6 7
M  V30 7 2 7 8
M  V30 8 1 8 9
M  V30 9 1 8 10
M  V30 10 2 10 11
M  V30 11 2 4 12
M  V30 12 1 12 13
M  V30 13 2 13 14
M  V30 14 1 14 15
M  V30 15 2 15 16
M  V30 16 1 16 17
M  V30 17 1 17 18
M  V30 18 1 18 19
M  V30 19 2 19 20
M  V30 20 1 20 21
M  V30 21 2 21 22
M  V30 22 1 22 23
M  V30 23 1 23 24
M  V30 24 1 24 25
M  V30 25 1 25 26
M  V30 26 1 26 27
M  V30 27 1 27 28
M  V30 28 1 22 29
M  V30 29 2 29 30
M  V30 30 2 17 31
M  V30 31 1 12 32
M  V30 32 1 32 2
M  V30 33 1 11 5
M  V30 34 1 31 13
M  V30 35 1 30 19
M  V30 36 1 28 23
M  V30 37 1 1 33
M  V30 38 1 1 34
M  V30 39 1 6 35
M  V30 40 1 7 36
M  V30 41 1 10 37
M  V30 42 1 11 38
M  V30 43 1 14 39
M  V30 44 1 15 40
M  V30 45 1 18 41
M  V30 46 1 20 42
M  V30 47 1 21 43
M  V30 48 1 24 44
M  V30 49 1 24 45
M  V30 50 1 25 46
M  V30 51 1 25 47
M  V30 52 1 26 48
M  V30 53 1 27 49
M  V30 54 1 27 50
M  V30 55 1 28 51
M  V30 56 1 28 52
M  V30 57 1 29 53
M  V30 58 1 30 54
M  V30 END BOND
M  V30 END CTAB
M  END
>  <Dataset>  (46) 
ChEMBL_Kinases

>  <Ligand_Instance>  (46) 
nan

>  <PDB_ID>  (46) 
nan

>  <Standardized_SMILES>  (46) 
Nc1nc(-c2ccc(F)cc2)c(-c2ccnc(Nc3ccc(N4CCNCC4)cc3)n2)s1

>  <Name>  (46) 
nan

>  <Pocket>  (46) 
nan

>  <ATP_Site>  (46) 
nan

>  <Peripheral>  (46) 
nan

>  <Num_H_Atoms_ProtBoundConf>  (46) 
nan

>  <Num_Resolved_Atoms>  (46) 
nan

>  <Num_Not_Resolved_Atoms>  (46) 
nan

$$$$
CHEMBL445931
     RDKit          3D

  0  0  0  0  0  0  0  0  0  0999 V3000
M  V30 BEGIN CTAB
M  V30 COUNTS 31 32 0 0 0
M  V30 BEGIN ATOM
M  V30 1 N 0.146586 -3.510916 6.486876 0
M  V30 2 C -0.026286 -2.868709 5.222444 0
M  V30 3 O -0.378015 -1.677392 5.441782 0
M  V30 4 N 0.172494 -3.494726 3.954329 0
M  V30 5 C -0.056654 -2.665316 2.807897 0
M  V30 6 S 1.278051 -1.633116 2.006219 0
M  V30 7 C 0.238390 -0.991167 0.786187 0
M  V30 8 C 0.650691 -0.035916 -0.273245 0
M  V30 9 C 0.965231 0.740703 -1.139182 0
M  V30 10 C 1.360406 1.662838 -2.167503 0
M  V30 11 C 0.401864 2.093997 -3.084371 0
M  V30 12 C 0.823397 2.991496 -4.071143 0
M  V30 13 C 2.135271 3.420552 -4.119381 0
M  V30 14 C 3.080936 2.979988 -3.195396 0
M  V30 15 C 2.669369 2.094743 -2.220496 0
M  V30 16 Cl 3.824864 1.505322 -1.026145 0
M  V30 17 C -0.951031 -1.505462 0.983281 0
M  V30 18 C -1.147009 -2.377364 2.019864 0
M  V30 19 C -2.422844 -3.037294 2.369396 0
M  V30 20 N -3.602154 -2.799649 1.611182 0
M  V30 21 O -2.457897 -3.817474 3.351105 0
M  V30 22 H 0.411562 -4.283599 7.130312 0
M  V30 23 H 0.533260 -4.488336 6.507461 0
M  V30 24 H 0.465735 -4.495518 3.955094 0
M  V30 25 H -0.626813 1.756476 -3.045168 0
M  V30 26 H 0.106270 3.350906 -4.804203 0
M  V30 27 H 2.505163 4.121728 -4.874820 0
M  V30 28 H 4.115132 3.281188 -3.186067 0
M  V30 29 H -1.793684 -1.241643 0.321611 0
M  V30 30 H -3.405650 -3.618073 0.961305 0
M  V30 31 H -3.862002 -1.982581 2.206239 0
M  V30 END ATOM
M  V30 BEGIN BOND
M  V30 1 1 1 2
M  V30 2 2 2 3
M  V30 3 1 2 4
M  V30 4 1 4 5
M  V30 5 1 5 6
M  V30 6 1 6 7
M  V30 7 1 7 8
M  V30 8 3 8 9
M  V30 9 1 9 10
M  V30 10 2 10 11
M  V30 11 1 11 12
M  V30 12 2 12 13
M  V30 13 1 13 14
M  V30 14 2 14 15
M  V30 15 1 15 16
M  V30 16 2 7 17
M  V30 17 1 17 18
M  V30 18 1 18 19
M  V30 19 1 19 20
M  V30 20 2 19 21
M  V30 21 2 18 5
M  V30 22 1 15 10
M  V30 23 1 1 22
M  V30 24 1 1 23
M  V30 25 1 4 24
M  V30 26 1 11 25
M  V30 27 1 12 26
M  V30 28 1 13 27
M  V30 29 1 14 28
M  V30 30 1 17 29
M  V30 31 1 20 30
M  V30 32 1 20 31
M  V30 END BOND
M  V30 END CTAB
M  END
>  <Dataset>  (47) 
ChEMBL_Kinases

>  <Ligand_Instance>  (47) 
nan

>  <PDB_ID>  (47) 
nan

>  <Standardized_SMILES>  (47) 
NC(=O)Nc1sc(C#Cc2ccccc2Cl)cc1C(N)=O

>  <Name>  (47) 
nan

>  <Pocket>  (47) 
nan

>  <ATP_Site>  (47) 
nan

>  <Peripheral>  (47) 
nan

>  <Num_H_Atoms_ProtBoundConf>  (47) 
nan

>  <Num_Resolved_Atoms>  (47) 
nan

>  <Num_Not_Resolved_Atoms>  (47) 
nan

$$$$
CHEMBL4459257
     RDKit          3D

  0  0  0  0  0  0  0  0  0  0999 V3000
M  V30 BEGIN CTAB
M  V30 COUNTS 51 55 0 0 0
M  V30 BEGIN ATOM
M  V30 1 C 4.914307 -4.224677 3.702250 0
M  V30 2 O 3.614964 -3.740489 3.494263 0
M  V30 3 C 3.409213 -2.614040 2.741156 0
M  V30 4 C 4.375435 -1.845981 2.122287 0
M  V30 5 C 4.070514 -0.726798 1.384217 0
M  V30 6 C 2.762441 -0.317489 1.227832 0
M  V30 7 S 2.192088 1.069217 0.322227 0
M  V30 8 O 3.229887 2.179622 0.313802 0
M  V30 9 O 1.008751 1.611814 1.074625 0
M  V30 10 N 1.848721 0.679223 -1.305548 0
M  V30 11 C 0.814798 -0.305323 -1.453310 0
M  V30 12 C -0.535575 0.245108 -1.819193 0
M  V30 13 C -0.882588 1.461589 -1.047927 0
M  V30 14 C 0.201644 2.339591 -1.173897 0
M  V30 15 S -0.251210 3.745945 -0.279045 0
M  V30 16 C -1.836670 3.181644 0.250269 0
M  V30 17 N -2.839653 3.680017 1.001481 0
M  V30 18 C -3.967163 2.996981 1.255571 0
M  V30 19 N -4.022025 1.775380 0.703530 0
M  V30 20 C -3.045700 1.228112 -0.057274 0
M  V30 21 N -3.500415 -0.067488 -0.421138 0
M  V30 22 C -3.327545 -1.396968 0.060640 0
M  V30 23 C -2.876879 -2.582105 -0.492252 0
M  V30 24 C -2.800970 -3.703094 0.276191 0
M  V30 25 C -3.143669 -3.770469 1.602268 0
M  V30 26 Cl -2.958045 -5.323055 2.373524 0
M  V30 27 C -3.600037 -2.586794 2.175171 0
M  V30 28 C -3.686188 -1.438423 1.417852 0
M  V30 29 F -4.151723 -0.394773 2.159825 0
M  V30 30 C -1.899181 1.936121 -0.310487 0
M  V30 31 C 1.428262 1.923920 -1.965467 0
M  V30 32 C 1.790224 -1.104678 1.860316 0
M  V30 33 C 2.068147 -2.242151 2.613444 0
M  V30 34 H 4.973155 -4.833964 4.642559 0
M  V30 35 H 5.593283 -3.351930 3.895946 0
M  V30 36 H 5.301560 -4.826067 2.839725 0
M  V30 37 H 5.401723 -2.161526 2.242015 0
M  V30 38 H 4.794269 -0.115467 0.898697 0
M  V30 39 H 1.118942 -0.930136 -2.336075 0
M  V30 40 H 0.798452 -1.022944 -0.607457 0
M  V30 41 H -0.522030 0.538285 -2.902091 0
M  V30 42 H -1.243735 -0.574909 -1.749870 0
M  V30 43 H -4.686066 3.501318 1.863656 0
M  V30 44 H -4.128141 -0.071969 -1.263394 0
M  V30 45 H -2.639446 -2.438574 -1.533947 0
M  V30 46 H -2.427479 -4.545964 -0.307607 0
M  V30 47 H -3.861394 -2.675713 3.220664 0
M  V30 48 H 1.185450 1.663879 -3.000367 0
M  V30 49 H 2.207104 2.678234 -1.830865 0
M  V30 50 H 0.728400 -0.835294 1.778229 0
M  V30 51 H 1.249496 -2.793459 3.067638 0
M  V30 END ATOM
M  V30 BEGIN BOND
M  V30 1 1 1 2
M  V30 2 1 2 3
M  V30 3 2 3 4
M  V30 4 1 4 5
M  V30 5 2 5 6
M  V30 6 1 6 7
M  V30 7 2 7 8
M  V30 8 2 7 9
M  V30 9 1 7 10
M  V30 10 1 10 11
M  V30 11 1 11 12
M  V30 12 1 12 13
M  V30 13 2 13 14
M  V30 14 1 14 15
M  V30 15 1 15 16
M  V30 16 2 16 17
M  V30 17 1 17 18
M  V30 18 2 18 19
M  V30 19 1 19 20
M  V30 20 1 20 21
M  V30 21 1 21 22
M  V30 22 2 22 23
M  V30 23 1 23 24
M  V30 24 2 24 25
M  V30 25 1 25 26
M  V30 26 1 25 27
M  V30 27 2 27 28
M  V30 28 1 28 29
M  V30 29 2 20 30
M  V30 30 1 14 31
M  V30 31 1 6 32
M  V30 32 2 32 33
M  V30 33 1 33 3
M  V30 34 1 31 10
M  V30 35 1 30 13
M  V30 36 1 30 16
M  V30 37 1 28 22
M  V30 38 1 1 34
M  V30 39 1 1 35
M  V30 40 1 1 36
M  V30 41 1 4 37
M  V30 42 1 5 38
M  V30 43 1 11 39
M  V30 44 1 11 40
M  V30 45 1 12 41
M  V30 46 1 12 42
M  V30 47 1 18 43
M  V30 48 1 21 44
M  V30 49 1 23 45
M  V30 50 1 24 46
M  V30 51 1 27 47
M  V30 52 1 31 48
M  V30 53 1 31 49
M  V30 54 1 32 50
M  V30 55 1 33 51
M  V30 END BOND
M  V30 END CTAB
M  END
>  <Dataset>  (48) 
ChEMBL_Kinases

>  <Ligand_Instance>  (48) 
nan

>  <PDB_ID>  (48) 
nan

>  <Standardized_SMILES>  (48) 
COc1ccc(S(=O)(=O)N2CCc3c(sc4ncnc(Nc5ccc(Cl)cc5F)c34)C2)cc1

>  <Name>  (48) 
nan

>  <Pocket>  (48) 
nan

>  <ATP_Site>  (48) 
nan

>  <Peripheral>  (48) 
nan

>  <Num_H_Atoms_ProtBoundConf>  (48) 
nan

>  <Num_Resolved_Atoms>  (48) 
nan

>  <Num_Not_Resolved_Atoms>  (48) 
nan

$$$$
CHEMBL445920
     RDKit          3D

  0  0  0  0  0  0  0  0  0  0999 V3000
M  V30 BEGIN CTAB
M  V30 COUNTS 69 73 0 0 0
M  V30 BEGIN ATOM
M  V30 1 C 4.509580 -4.169831 7.661583 0
M  V30 2 C 4.688876 -2.691651 7.349436 0
M  V30 3 N 5.256255 -2.036140 6.632931 0
M  V30 4 C 5.323510 -0.739484 6.462353 0
M  V30 5 C 6.157712 -0.046971 5.452102 0
M  V30 6 O 5.626327 0.064479 4.193982 0
M  V30 7 C 4.531924 0.639439 3.680233 0
M  V30 8 C 3.471093 1.362663 4.149738 0
M  V30 9 C 2.430534 1.866261 3.412419 0
M  V30 10 C 2.465545 1.612451 2.059039 0
M  V30 11 C 1.389021 2.111569 1.198683 0
M  V30 12 O 1.365393 1.916214 -0.047341 0
M  V30 13 N 0.257852 2.859960 1.626480 0
M  V30 14 C -0.509877 3.116798 0.428737 0
M  V30 15 C -1.442788 2.144632 0.155619 0
M  V30 16 C -2.208056 2.339601 -0.991027 0
M  V30 17 N -3.186132 1.324103 -1.280720 0
M  V30 18 C -2.880259 0.196893 -2.052950 0
M  V30 19 O -1.686471 0.164381 -2.458234 0
M  V30 20 C -3.858125 -0.842098 -2.356474 0
M  V30 21 C -5.185588 -0.810181 -1.965048 0
M  V30 22 C -6.086316 -1.802629 -2.258094 0
M  V30 23 F -7.354968 -1.683062 -1.833586 0
M  V30 24 C -5.619989 -2.895802 -2.991967 0
M  V30 25 C -4.310370 -2.988254 -3.411867 0
M  V30 26 N -3.925221 -4.141403 -4.152288 0
M  V30 27 C -4.944923 -5.119189 -4.431260 0
M  V30 28 C -4.262589 -6.368516 -4.942686 0
M  V30 29 O -3.209447 -6.643253 -4.052546 0
M  V30 30 C -2.153629 -5.827873 -4.459854 0
M  V30 31 C -2.588423 -4.392322 -4.636517 0
M  V30 32 C -3.481648 -1.958570 -3.078214 0
M  V30 33 C -2.018192 3.451478 -1.784731 0
M  V30 34 C -1.078938 4.421217 -1.500985 0
M  V30 35 C -0.320313 4.229865 -0.366253 0
M  V30 36 C 0.713330 5.224562 0.014819 0
M  V30 37 C 3.480298 0.895765 1.464336 0
M  V30 38 C 4.505837 0.417554 2.295901 0
M  V30 39 C 4.484306 -0.055158 7.406635 0
M  V30 40 S 3.713429 -1.460049 8.415702 0
M  V30 41 H 3.822038 -4.310624 8.492739 0
M  V30 42 H 5.539700 -4.520149 7.860984 0
M  V30 43 H 4.173356 -4.692324 6.733599 0
M  V30 44 H 6.399697 0.992341 5.820133 0
M  V30 45 H 7.158931 -0.542574 5.448181 0
M  V30 46 H 3.527743 1.515204 5.213758 0
M  V30 47 H 1.654182 2.422650 3.913781 0
M  V30 48 H 0.190776 3.076008 2.668352 0
M  V30 49 H -1.601894 1.273047 0.762891 0
M  V30 50 H -4.143195 1.468250 -0.883900 0
M  V30 51 H -5.516854 0.050750 -1.396564 0
M  V30 52 H -6.403391 -3.631667 -3.175641 0
M  V30 53 H -5.475715 -5.416152 -3.480070 0
M  V30 54 H -5.650296 -4.784140 -5.220653 0
M  V30 55 H -3.811439 -6.194522 -5.936321 0
M  V30 56 H -4.961931 -7.226281 -5.009674 0
M  V30 57 H -1.773412 -6.236729 -5.417243 0
M  V30 58 H -1.354617 -5.945857 -3.700794 0
M  V30 59 H -1.814737 -3.781271 -4.107353 0
M  V30 60 H -2.542791 -4.116838 -5.707806 0
M  V30 61 H -2.448132 -1.995720 -3.391404 0
M  V30 62 H -2.652560 3.552688 -2.679663 0
M  V30 63 H -0.926946 5.291040 -2.117848 0
M  V30 64 H 1.350863 5.402975 -0.897157 0
M  V30 65 H 1.383785 4.843659 0.809265 0
M  V30 66 H 0.278660 6.230212 0.245632 0
M  V30 67 H 3.444026 0.733974 0.394830 0
M  V30 68 H 5.247894 -0.136525 1.692483 0
M  V30 69 H 4.456539 1.185345 7.361703 0
M  V30 END ATOM
M  V30 BEGIN BOND
M  V30 1 1 1 2
M  V30 2 2 2 3
M  V30 3 1 3 4
M  V30 4 1 4 5
M  V30 5 1 5 6
M  V30 6 1 6 7
M  V30 7 2 7 8
M  V30 8 1 8 9
M  V30 9 2 9 10
M  V30 10 1 10 11
M  V30 11 2 11 12
M  V30 12 1 11 13
M  V30 13 1 13 14
M  V30 14 2 14 15
M  V30 15 1 15 16
M  V30 16 1 16 17
M  V30 17 1 17 18
M  V30 18 2 18 19
M  V30 19 1 18 20
M  V30 20 2 20 21
M  V30 21 1 21 22
M  V30 22 1 22 23
M  V30 23 2 22 24
M  V30 24 1 24 25
M  V30 25 1 25 26
M  V30 26 1 26 27
M  V30 27 1 27 28
M  V30 28 1 28 29
M  V30 29 1 29 30
M  V30 30 1 30 31
M  V30 31 2 25 32
M  V30 32 2 16 33
M  V30 33 1 33 34
M  V30 34 2 34 35
M  V30 35 1 35 36
M  V30 36 1 10 37
M  V30 37 2 37 38
M  V30 38 2 4 39
M  V30 39 1 39 40
M  V30 40 1 40 2
M  V30 41 1 38 7
M  V30 42 1 35 14
M  V30 43 1 32 20
M  V30 44 1 31 26
M  V30 45 1 1 41
M  V30 46 1 1 42
M  V30 47 1 1 43
M  V30 48 1 5 44
M  V30 49 1 5 45
M  V30 50 1 8 46
M  V30 51 1 9 47
M  V30 52 1 13 48
M  V30 53 1 15 49
M  V30 54 1 17 50
M  V30 55 1 21 51
M  V30 56 1 24 52
M  V30 57 1 27 53
M  V30 58 1 27 54
M  V30 59 1 28 55
M  V30 60 1 28 56
M  V30 61 1 30 57
M  V30 62 1 30 58
M  V30 63 1 31 59
M  V30 64 1 31 60
M  V30 65 1 32 61
M  V30 66 1 33 62
M  V30 67 1 34 63
M  V30 68 1 36 64
M  V30 69 1 36 65
M  V30 70 1 36 66
M  V30 71 1 37 67
M  V30 72 1 38 68
M  V30 73 1 39 69
M  V30 END BOND
M  V30 END CTAB
M  END
>  <Dataset>  (49) 
ChEMBL_Kinases

>  <Ligand_Instance>  (49) 
nan

>  <PDB_ID>  (49) 
nan

>  <Standardized_SMILES>  (49) 
Cc1nc(COc2ccc(C(=O)Nc3cc(NC(=O)c4cc(F)cc(N5CCOCC5)c4)ccc3C)cc2)cs1

>  <Name>  (49) 
nan

>  <Pocket>  (49) 
nan

>  <ATP_Site>  (49) 
nan

>  <Peripheral>  (49) 
nan

>  <Num_H_Atoms_ProtBoundConf>  (49) 
nan

>  <Num_Resolved_Atoms>  (49) 
nan

>  <Num_Not_Resolved_Atoms>  (49) 
nan

$$$$
CHEMBL4460242
     RDKit          3D

  0  0  0  0  0  0  0  0  0  0999 V3000
M  V30 BEGIN CTAB
M  V30 COUNTS 37 39 0 0 0
M  V30 BEGIN ATOM
M  V30 1 C -1.608797 -2.817005 1.907570 0
M  V30 2 C -0.166865 -2.963572 1.653013 0
M  V30 3 C 0.737003 -1.813759 1.957820 0
M  V30 4 N 0.416647 -0.607548 1.263929 0
M  V30 5 C 0.786292 -0.357807 -0.031674 0
M  V30 6 C 1.486326 -1.134155 -0.934057 0
M  V30 7 C 1.748787 -0.674185 -2.207610 0
M  V30 8 O 2.437609 -1.352441 -3.202213 0
M  V30 9 C 2.960739 -2.633746 -3.003481 0
M  V30 10 C 1.313184 0.574627 -2.599583 0
M  V30 11 C 0.610818 1.357802 -1.699369 0
M  V30 12 C 0.359769 0.875737 -0.428693 0
M  V30 13 C -0.303393 1.421343 0.665071 0
M  V30 14 C -0.900772 2.662061 0.756781 0
M  V30 15 C -1.462559 2.907424 2.008032 0
M  V30 16 N -1.422510 2.032682 3.005736 0
M  V30 17 C -0.831082 0.812193 2.904523 0
M  V30 18 C -0.769844 -0.085440 4.059894 0
M  V30 19 C -0.248612 0.478428 1.696648 0
M  V30 20 H -1.928830 -1.761756 1.801488 0
M  V30 21 H -1.898907 -3.240189 2.902651 0
M  V30 22 H -2.225455 -3.383579 1.180489 0
M  V30 23 H -0.048758 -3.335446 0.601547 0
M  V30 24 H 0.235214 -3.833386 2.262745 0
M  V30 25 H 1.747866 -2.149482 1.557728 0
M  V30 26 H 0.961591 -1.705955 3.035548 0
M  V30 27 H 1.854872 -2.112976 -0.699242 0
M  V30 28 H 3.057926 -3.103030 -4.019352 0
M  V30 29 H 3.932513 -2.641648 -2.462227 0
M  V30 30 H 2.238831 -3.208559 -2.377649 0
M  V30 31 H 1.483863 1.001069 -3.586403 0
M  V30 32 H 0.265637 2.348772 -2.011697 0
M  V30 33 H -0.914187 3.343238 -0.067170 0
M  V30 34 H -1.954566 3.874846 2.149743 0
M  V30 35 H -1.415922 0.395763 4.860784 0
M  V30 36 H 0.239379 -0.051870 4.567669 0
M  V30 37 H -1.176159 -1.074877 3.973980 0
M  V30 END ATOM
M  V30 BEGIN BOND
M  V30 1 1 1 2
M  V30 2 1 2 3
M  V30 3 1 3 4
M  V30 4 1 4 5
M  V30 5 2 5 6
M  V30 6 1 6 7
M  V30 7 1 7 8
M  V30 8 1 8 9
M  V30 9 2 7 10
M  V30 10 1 10 11
M  V30 11 2 11 12
M  V30 12 1 12 13
M  V30 13 2 13 14
M  V30 14 1 14 15
M  V30 15 2 15 16
M  V30 16 1 16 17
M  V30 17 1 17 18
M  V30 18 2 17 19
M  V30 19 1 19 4
M  V30 20 1 12 5
M  V30 21 1 19 13
M  V30 22 1 1 20
M  V30 23 1 1 21
M  V30 24 1 1 22
M  V30 25 1 2 23
M  V30 26 1 2 24
M  V30 27 1 3 25
M  V30 28 1 3 26
M  V30 29 1 6 27
M  V30 30 1 9 28
M  V30 31 1 9 29
M  V30 32 1 9 30
M  V30 33 1 10 31
M  V30 34 1 11 32
M  V30 35 1 14 33
M  V30 36 1 15 34
M  V30 37 1 18 35
M  V30 38 1 18 36
M  V30 39 1 18 37
M  V30 END BOND
M  V30 END CTAB
M  END
>  <Dataset>  (50) 
ChEMBL_Kinases

>  <Ligand_Instance>  (50) 
nan

>  <PDB_ID>  (50) 
nan

>  <Standardized_SMILES>  (50) 
CCCn1c2cc(OC)ccc2c2ccnc(C)c21

>  <Name>  (50) 
nan

>  <Pocket>  (50) 
nan

>  <ATP_Site>  (50) 
nan

>  <Peripheral>  (50) 
nan

>  <Num_H_Atoms_ProtBoundConf>  (50) 
nan

>  <Num_Resolved_Atoms>  (50) 
nan

>  <Num_Not_Resolved_Atoms>  (50) 
nan

$$$$
CHEMBL4741733
     RDKit          3D

  0  0  0  0  0  0  0  0  0  0999 V3000
M  V30 BEGIN CTAB
M  V30 COUNTS 54 56 0 0 0
M  V30 BEGIN ATOM
M  V30 1 C -1.515482 -4.576517 3.827876 0
M  V30 2 C -0.888777 -4.179963 2.512325 0
M  V30 3 O -0.450864 -5.285711 1.749297 0
M  V30 4 C 0.153644 -5.144077 0.507931 0
M  V30 5 N 0.371300 -3.959918 -0.066926 0
M  V30 6 C 0.949313 -3.773195 -1.259786 0
M  V30 7 N 1.187410 -2.532642 -1.882539 0
M  V30 8 C 0.885013 -1.228101 -1.418596 0
M  V30 9 C 0.275008 -0.940217 -0.218297 0
M  V30 10 C -0.033389 0.314016 0.263014 0
M  V30 11 C 0.296105 1.397763 -0.525549 0
M  V30 12 C 0.032949 2.783328 -0.150824 0
M  V30 13 O 0.335985 3.764338 -0.872616 0
M  V30 14 N -0.594550 3.150914 1.073496 0
M  V30 15 C -0.841240 4.514690 1.417613 0
M  V30 16 C -1.512740 4.697659 2.751145 0
M  V30 17 C -0.619371 4.268870 3.895359 0
M  V30 18 C -2.832164 4.030563 2.876357 0
M  V30 19 O -1.676533 6.091338 2.924542 0
M  V30 20 C 0.909170 1.177882 -1.739655 0
M  V30 21 C 1.188071 -0.102806 -2.158393 0
M  V30 22 O 1.806643 -0.248745 -3.391939 0
M  V30 23 C 2.172587 0.790767 -4.249217 0
M  V30 24 N 1.321569 -4.899671 -1.887359 0
M  V30 25 C 1.144398 -6.109806 -1.391596 0
M  V30 26 N 1.480530 -7.292974 -1.939450 0
M  V30 27 C 1.097027 -8.249772 -1.053954 0
M  V30 28 C 0.521674 -7.635711 0.043118 0
M  V30 29 C 0.550667 -6.273845 -0.169423 0
M  V30 30 H -0.751316 -4.548855 4.652980 0
M  V30 31 H -2.276750 -3.810426 4.103894 0
M  V30 32 H -1.998333 -5.569281 3.747917 0
M  V30 33 H -1.681891 -3.684119 1.913421 0
M  V30 34 H -0.055104 -3.473909 2.734864 0
M  V30 35 H 1.658221 -2.546546 -2.833948 0
M  V30 36 H -0.011684 -1.732162 0.450724 0
M  V30 37 H -0.514084 0.481521 1.215638 0
M  V30 38 H -0.888679 2.412175 1.749996 0
M  V30 39 H 0.144386 5.035693 1.477070 0
M  V30 40 H -1.385924 5.021130 0.605376 0
M  V30 41 H 0.000174 5.105351 4.272689 0
M  V30 42 H -1.296520 3.988144 4.745992 0
M  V30 43 H -0.034166 3.351839 3.658883 0
M  V30 44 H -2.734421 2.974287 3.255266 0
M  V30 45 H -3.514756 4.546821 3.582286 0
M  V30 46 H -3.395567 3.943493 1.930096 0
M  V30 47 H -2.215863 6.193877 3.744948 0
M  V30 48 H 1.172982 2.017224 -2.367818 0
M  V30 49 H 2.603952 1.676331 -3.780608 0
M  V30 50 H 2.847802 0.347480 -5.032854 0
M  V30 51 H 1.243443 1.115457 -4.801933 0
M  V30 52 H 1.941370 -7.487085 -2.851748 0
M  V30 53 H 1.208070 -9.328597 -1.157263 0
M  V30 54 H 0.111665 -8.101753 0.926880 0
M  V30 END ATOM
M  V30 BEGIN BOND
M  V30 1 1 1 2
M  V30 2 1 2 3
M  V30 3 1 3 4
M  V30 4 2 4 5
M  V30 5 1 5 6
M  V30 6 1 6 7
M  V30 7 1 7 8
M  V30 8 2 8 9
M  V30 9 1 9 10
M  V30 10 2 10 11
M  V30 11 1 11 12
M  V30 12 2 12 13
M  V30 13 1 12 14
M  V30 14 1 14 15
M  V30 15 1 15 16
M  V30 16 1 16 17
M  V30 17 1 16 18
M  V30 18 1 16 19
M  V30 19 1 11 20
M  V30 20 2 20 21
M  V30 21 1 21 22
M  V30 22 1 22 23
M  V30 23 2 6 24
M  V30 24 1 24 25
M  V30 25 1 25 26
M  V30 26 1 26 27
M  V30 27 2 27 28
M  V30 28 1 28 29
M  V30 29 1 29 4
M  V30 30 1 21 8
M  V30 31 2 29 25
M  V30 32 1 1 30
M  V30 33 1 1 31
M  V30 34 1 1 32
M  V30 35 1 2 33
M  V30 36 1 2 34
M  V30 37 1 7 35
M  V30 38 1 9 36
M  V30 39 1 10 37
M  V30 40 1 14 38
M  V30 41 1 15 39
M  V30 42 1 15 40
M  V30 43 1 17 41
M  V30 44 1 17 42
M  V30 45 1 17 43
M  V30 46 1 18 44
M  V30 47 1 18 45
M  V30 48 1 18 46
M  V30 49 1 19 47
M  V30 50 1 20 48
M  V30 51 1 23 49
M  V30 52 1 23 50
M  V30 53 1 23 51
M  V30 54 1 26 52
M  V30 55 1 27 53
M  V30 56 1 28 54
M  V30 END BOND
M  V30 END CTAB
M  END
>  <Dataset>  (51) 
ChEMBL_Kinases

>  <Ligand_Instance>  (51) 
nan

>  <PDB_ID>  (51) 
nan

>  <Standardized_SMILES>  (51) 
CCOc1nc(Nc2ccc(C(=O)NCC(C)(C)O)cc2OC)nc2[nH]ccc12

>  <Name>  (51) 
nan

>  <Pocket>  (51) 
nan

>  <ATP_Site>  (51) 
nan

>  <Peripheral>  (51) 
nan

>  <Num_H_Atoms_ProtBoundConf>  (51) 
nan

>  <Num_Resolved_Atoms>  (51) 
nan

>  <Num_Not_Resolved_Atoms>  (51) 
nan

$$$$
CHEMBL4741761
     RDKit          3D

  0  0  0  0  0  0  0  0  0  0999 V3000
M  V30 BEGIN CTAB
M  V30 COUNTS 57 61 0 0 0
M  V30 BEGIN ATOM
M  V30 1 O 5.761366 -5.053843 -0.533724 0
M  V30 2 S 5.779768 -4.659573 0.911268 0
M  V30 3 O 6.380804 -5.778768 1.751521 0
M  V30 4 N 4.153066 -4.422291 1.474437 0
M  V30 5 C 3.308676 -3.435007 0.885106 0
M  V30 6 C 2.528556 -2.567404 1.652323 0
M  V30 7 C 1.747188 -1.646548 0.980782 0
M  V30 8 C 1.684361 -1.524848 -0.392315 0
M  V30 9 C 0.848420 -0.540786 -1.076422 0
M  V30 10 N 0.025934 0.367490 -0.521598 0
M  V30 11 C -0.572821 1.095200 -1.506628 0
M  V30 12 C -1.552560 2.195340 -1.384857 0
M  V30 13 C -1.257664 3.533712 -1.612486 0
M  V30 14 C -2.290338 4.436018 -1.455735 0
M  V30 15 N -3.548853 4.129356 -1.103137 0
M  V30 16 C -3.880828 2.835664 -0.870945 0
M  V30 17 N -5.215572 2.516691 -0.519989 0
M  V30 18 C -5.876927 1.346745 -0.087268 0
M  V30 19 C -7.170288 1.012900 -0.427710 0
M  V30 20 C -7.768017 -0.130497 0.035240 0
M  V30 21 C -7.094854 -0.997917 0.865279 0
M  V30 22 O -7.695603 -2.135423 1.320932 0
M  V30 23 C -8.450646 -2.285306 2.494933 0
M  V30 24 F -9.573271 -1.478925 2.537041 0
M  V30 25 F -8.880840 -3.592494 2.621541 0
M  V30 26 F -7.671896 -1.919988 3.585365 0
M  V30 27 C -5.800346 -0.691404 1.224310 0
M  V30 28 C -5.208517 0.468648 0.748678 0
M  V30 29 C -2.875974 1.912366 -1.019156 0
M  V30 30 N -0.076093 0.586150 -2.648835 0
M  V30 31 O 0.764678 -0.382259 -2.387484 0
M  V30 32 C 2.462926 -2.391646 -1.132487 0
M  V30 33 C 3.267956 -3.338485 -0.491685 0
M  V30 34 C 6.635188 -3.164625 1.176502 0
M  V30 35 C 7.322461 -2.910354 2.348647 0
M  V30 36 C 7.980066 -1.704865 2.494179 0
M  V30 37 C 7.957410 -0.766739 1.495208 0
M  V30 38 F 8.597933 0.420882 1.620735 0
M  V30 39 C 7.282213 -0.964547 0.291105 0
M  V30 40 C 6.638606 -2.192651 0.197827 0
M  V30 41 H 3.661851 -4.951339 2.254974 0
M  V30 42 H 2.551189 -2.632564 2.728931 0
M  V30 43 H 1.124408 -0.952816 1.568075 0
M  V30 44 H -0.254977 3.785522 -1.893845 0
M  V30 45 H -2.065129 5.483801 -1.631672 0
M  V30 46 H -5.930171 3.301877 -0.576321 0
M  V30 47 H -7.696973 1.711470 -1.089196 0
M  V30 48 H -8.796740 -0.373842 -0.250434 0
M  V30 49 H -5.310018 -1.403690 1.881940 0
M  V30 50 H -4.203431 0.577451 1.126354 0
M  V30 51 H -3.064506 0.874539 -0.866242 0
M  V30 52 H 2.411116 -2.291631 -2.218024 0
M  V30 53 H 3.817690 -3.944868 -1.175672 0
M  V30 54 H 7.287702 -3.702757 3.081213 0
M  V30 55 H 8.504460 -1.546233 3.425444 0
M  V30 56 H 7.254699 -0.235585 -0.504731 0
M  V30 57 H 6.105177 -2.393053 -0.710200 0
M  V30 END ATOM
M  V30 BEGIN BOND
M  V30 1 2 1 2
M  V30 2 2 2 3
M  V30 3 1 2 4
M  V30 4 1 4 5
M  V30 5 2 5 6
M  V30 6 1 6 7
M  V30 7 2 7 8
M  V30 8 1 8 9
M  V30 9 2 9 10
M  V30 10 1 10 11
M  V30 11 1 11 12
M  V30 12 2 12 13
M  V30 13 1 13 14
M  V30 14 2 14 15
M  V30 15 1 15 16
M  V30 16 1 16 17
M  V30 17 1 17 18
M  V30 18 2 18 19
M  V30 19 1 19 20
M  V30 20 2 20 21
M  V30 21 1 21 22
M  V30 22 1 22 23
M  V30 23 1 23 24
M  V30 24 1 23 25
M  V30 25 1 23 26
M  V30 26 1 21 27
M  V30 27 2 27 28
M  V30 28 2 16 29
M  V30 29 2 11 30
M  V30 30 1 30 31
M  V30 31 1 8 32
M  V30 32 2 32 33
M  V30 33 1 2 34
M  V30 34 2 34 35
M  V30 35 1 35 36
M  V30 36 2 36 37
M  V30 37 1 37 38
M  V30 38 1 37 39
M  V30 39 2 39 40
M  V30 40 1 33 5
M  V30 41 1 40 34
M  V30 42 1 31 9
M  V30 43 1 29 12
M  V30 44 1 28 18
M  V30 45 1 4 41
M  V30 46 1 6 42
M  V30 47 1 7 43
M  V30 48 1 13 44
M  V30 49 1 14 45
M  V30 50 1 17 46
M  V30 51 1 19 47
M  V30 52 1 20 48
M  V30 53 1 27 49
M  V30 54 1 28 50
M  V30 55 1 29 51
M  V30 56 1 32 52
M  V30 57 1 33 53
M  V30 58 1 35 54
M  V30 59 1 36 55
M  V30 60 1 39 56
M  V30 61 1 40 57
M  V30 END BOND
M  V30 END CTAB
M  END
>  <Dataset>  (52) 
ChEMBL_Kinases

>  <Ligand_Instance>  (52) 
nan

>  <PDB_ID>  (52) 
nan

>  <Standardized_SMILES>  (52) 
O=S(=O)(Nc1ccc(-c2nc(-c3ccnc(Nc4ccc(OC(F)(F)F)cc4)c3)no2)cc1)c1ccc(F)cc1

>  <Name>  (52) 
nan

>  <Pocket>  (52) 
nan

>  <ATP_Site>  (52) 
nan

>  <Peripheral>  (52) 
nan

>  <Num_H_Atoms_ProtBoundConf>  (52) 
nan

>  <Num_Resolved_Atoms>  (52) 
nan

>  <Num_Not_Resolved_Atoms>  (52) 
nan

$$$$
CHEMBL4741770
     RDKit          3D

  0  0  0  0  0  0  0  0  0  0999 V3000
M  V30 BEGIN CTAB
M  V30 COUNTS 47 50 0 0 0
M  V30 BEGIN ATOM
M  V30 1 O 0.592702 -2.303602 1.332182 0
M  V30 2 C 1.726882 -1.846823 1.292830 0
M  V30 3 C 2.679931 -2.444524 0.269649 0
M  V30 4 C 3.215527 -1.280916 -0.510767 0
M  V30 5 C 2.327694 -0.223182 -0.610740 0
M  V30 6 C 2.775227 0.931968 -1.278559 0
M  V30 7 C 4.057129 0.941965 -1.785836 0
M  V30 8 Br 4.649748 2.531453 -2.673554 0
M  V30 9 C 4.911499 -0.162640 -1.657995 0
M  V30 10 C 4.493985 -1.305198 -1.009309 0
M  V30 11 N 2.086252 -0.811851 2.161609 0
M  V30 12 C 1.890963 0.131966 3.179196 0
M  V30 13 C 0.886094 1.191726 3.161215 0
M  V30 14 C -0.564072 1.015439 3.263973 0
M  V30 15 N -1.363451 0.287635 2.377991 0
M  V30 16 C -1.844531 0.918503 1.272944 0
M  V30 17 O -1.553564 2.088806 0.988356 0
M  V30 18 C -2.709919 0.340564 0.340963 0
M  V30 19 C -3.182097 0.992491 -0.768471 0
M  V30 20 C -4.036983 0.330585 -1.645623 0
M  V30 21 F -4.520321 0.943112 -2.761194 0
M  V30 22 C -4.445296 -0.993444 -1.446778 0
M  V30 23 C -3.941747 -1.610884 -0.308605 0
M  V30 24 C -3.095923 -0.974076 0.573645 0
M  V30 25 N -2.620496 -1.583599 1.656359 0
M  V30 26 C -2.804008 -2.805382 2.142512 0
M  V30 27 S -3.679195 -4.063773 1.622329 0
M  V30 28 N -2.114110 -2.951671 3.268265 0
M  V30 29 N -1.461980 -1.812397 3.536656 0
M  V30 30 C -1.780215 -0.960460 2.527603 0
M  V30 31 H 2.096457 -3.095234 -0.392931 0
M  V30 32 H 3.501587 -2.936045 0.769749 0
M  V30 33 H 1.313811 -0.261423 -0.194618 0
M  V30 34 H 2.063635 1.743870 -1.345823 0
M  V30 35 H 5.912659 -0.146276 -2.058697 0
M  V30 36 H 5.084414 -2.195800 -0.861619 0
M  V30 37 H 3.101559 -0.651934 1.828780 0
M  V30 38 H 1.848662 -0.413426 4.191686 0
M  V30 39 H 2.890499 0.678931 3.318237 0
M  V30 40 H 1.201543 2.050029 3.889598 0
M  V30 41 H 1.019336 1.816844 2.172859 0
M  V30 42 H -0.802655 0.669149 4.345617 0
M  V30 43 H -0.971077 2.111910 3.284510 0
M  V30 44 H -2.886610 1.996536 -0.944529 0
M  V30 45 H -5.109751 -1.460623 -2.161351 0
M  V30 46 H -4.275421 -2.620540 -0.194748 0
M  V30 47 H -1.974288 -3.742027 3.964028 0
M  V30 END ATOM
M  V30 BEGIN BOND
M  V30 1 2 1 2
M  V30 2 1 2 3
M  V30 3 1 3 4
M  V30 4 2 4 5
M  V30 5 1 5 6
M  V30 6 2 6 7
M  V30 7 1 7 8
M  V30 8 1 7 9
M  V30 9 2 9 10
M  V30 10 1 2 11
M  V30 11 1 11 12
M  V30 12 1 12 13
M  V30 13 1 13 14
M  V30 14 1 14 15
M  V30 15 1 15 16
M  V30 16 2 16 17
M  V30 17 1 16 18
M  V30 18 2 18 19
M  V30 19 1 19 20
M  V30 20 1 20 21
M  V30 21 2 20 22
M  V30 22 1 22 23
M  V30 23 2 23 24
M  V30 24 1 24 25
M  V30 25 1 25 26
M  V30 26 2 26 27
M  V30 27 1 26 28
M  V30 28 1 28 29
M  V30 29 2 29 30
M  V30 30 1 10 4
M  V30 31 1 30 15
M  V30 32 1 24 18
M  V30 33 1 30 25
M  V30 34 1 3 31
M  V30 35 1 3 32
M  V30 36 1 5 33
M  V30 37 1 6 34
M  V30 38 1 9 35
M  V30 39 1 10 36
M  V30 40 1 11 37
M  V30 41 1 12 38
M  V30 42 1 12 39
M  V30 43 1 13 40
M  V30 44 1 13 41
M  V30 45 1 14 42
M  V30 46 1 14 43
M  V30 47 1 19 44
M  V30 48 1 22 45
M  V30 49 1 23 46
M  V30 50 1 28 47
M  V30 END BOND
M  V30 END CTAB
M  END
>  <Dataset>  (53) 
ChEMBL_Kinases

>  <Ligand_Instance>  (53) 
nan

>  <PDB_ID>  (53) 
nan

>  <Standardized_SMILES>  (53) 
O=C(Cc1ccc(Br)cc1)NCCCn1c(=O)c2cc(F)ccc2n2c(=S)[nH]nc12

>  <Name>  (53) 
nan

>  <Pocket>  (53) 
nan

>  <ATP_Site>  (53) 
nan

>  <Peripheral>  (53) 
nan

>  <Num_H_Atoms_ProtBoundConf>  (53) 
nan

>  <Num_Resolved_Atoms>  (53) 
nan

>  <Num_Not_Resolved_Atoms>  (53) 
nan

$$$$
CHEMBL4741779
     RDKit          3D

  0  0  0  0  0  0  0  0  0  0999 V3000
M  V30 BEGIN CTAB
M  V30 COUNTS 52 56 0 0 0
M  V30 BEGIN ATOM
M  V30 1 O 2.741968 -5.237269 -0.054997 0
M  V30 2 C 1.811537 -4.409258 0.017055 0
M  V30 3 N 1.580644 -3.805808 1.285304 0
M  V30 4 C 2.285428 -4.037446 2.519336 0
M  V30 5 C 1.725125 -3.196302 3.648744 0
M  V30 6 N 1.874529 -1.797195 3.374025 0
M  V30 7 C 1.725268 -0.629940 2.597492 0
M  V30 8 N 2.728612 -0.143324 1.830067 0
M  V30 9 C 2.475294 0.978022 1.131445 0
M  V30 10 C 1.234977 1.568871 1.225165 0
M  V30 11 C 0.206737 1.089438 1.996167 0
M  V30 12 C -1.132882 1.626223 2.187607 0
M  V30 13 C -1.874058 1.945503 1.073326 0
M  V30 14 C -1.654819 1.936182 -0.365369 0
M  V30 15 C -1.847990 3.168086 -1.012710 0
M  V30 16 C -1.691603 3.398835 -2.365322 0
M  V30 17 C -1.313383 2.320556 -3.133484 0
M  V30 18 C -1.115159 1.100745 -2.535080 0
M  V30 19 F -0.742755 0.065416 -3.320082 0
M  V30 20 C -1.277279 0.890771 -1.179240 0
M  V30 21 N -3.067025 2.382514 1.510367 0
M  V30 22 C -3.055284 2.332849 2.866072 0
M  V30 23 S -4.025545 2.649943 4.346349 0
M  V30 24 C -2.632103 2.083123 5.503774 0
M  V30 25 C -1.590454 1.719906 4.595271 0
M  V30 26 N -1.851981 1.862677 3.296429 0
M  V30 27 N 0.515993 -0.048884 2.684025 0
M  V30 28 C 1.020980 -4.104836 -1.160044 0
M  V30 29 C 1.319304 -4.726085 -2.346842 0
M  V30 30 C 0.567338 -4.462405 -3.487433 0
M  V30 31 C -0.495657 -3.573834 -3.463795 0
M  V30 32 C -0.820094 -2.927446 -2.267233 0
M  V30 33 C -0.034342 -3.234852 -1.175938 0
M  V30 34 H 0.809511 -3.115736 1.326040 0
M  V30 35 H 3.362437 -3.829064 2.394318 0
M  V30 36 H 2.125111 -5.107293 2.789802 0
M  V30 37 H 0.620297 -3.394131 3.770910 0
M  V30 38 H 2.156318 -3.493152 4.623499 0
M  V30 39 H 2.366977 -1.296249 4.173270 0
M  V30 40 H 3.185904 1.477201 0.478303 0
M  V30 41 H 1.005383 2.455191 0.684628 0
M  V30 42 H -2.147860 4.046117 -0.435681 0
M  V30 43 H -1.855899 4.358493 -2.791915 0
M  V30 44 H -1.188135 2.489582 -4.192799 0
M  V30 45 H -1.133003 -0.047233 -0.665849 0
M  V30 46 H -2.682686 2.065947 6.581111 0
M  V30 47 H -0.713307 1.371132 5.109033 0
M  V30 48 H 2.135145 -5.429004 -2.435515 0
M  V30 49 H 0.800899 -4.952514 -4.420902 0
M  V30 50 H -1.098416 -3.347590 -4.329438 0
M  V30 51 H -1.650632 -2.222786 -2.214946 0
M  V30 52 H -0.325025 -2.710231 -0.280635 0
M  V30 END ATOM
M  V30 BEGIN BOND
M  V30 1 2 1 2
M  V30 2 1 2 3
M  V30 3 1 3 4
M  V30 4 1 4 5
M  V30 5 1 5 6
M  V30 6 1 6 7
M  V30 7 2 7 8
M  V30 8 1 8 9
M  V30 9 2 9 10
M  V30 10 1 10 11
M  V30 11 1 11 12
M  V30 12 2 12 13
M  V30 13 1 13 14
M  V30 14 2 14 15
M  V30 15 1 15 16
M  V30 16 2 16 17
M  V30 17 1 17 18
M  V30 18 1 18 19
M  V30 19 2 18 20
M  V30 20 1 13 21
M  V30 21 2 21 22
M  V30 22 1 22 23
M  V30 23 1 23 24
M  V30 24 2 24 25
M  V30 25 1 25 26
M  V30 26 2 11 27
M  V30 27 1 2 28
M  V30 28 2 28 29
M  V30 29 1 29 30
M  V30 30 2 30 31
M  V30 31 1 31 32
M  V30 32 2 32 33
M  V30 33 1 27 7
M  V30 34 1 33 28
M  V30 35 1 26 12
M  V30 36 1 20 14
M  V30 37 1 26 22
M  V30 38 1 3 34
M  V30 39 1 4 35
M  V30 40 1 4 36
M  V30 41 1 5 37
M  V30 42 1 5 38
M  V30 43 1 6 39
M  V30 44 1 9 40
M  V30 45 1 10 41
M  V30 46 1 15 42
M  V30 47 1 16 43
M  V30 48 1 17 44
M  V30 49 1 20 45
M  V30 50 1 24 46
M  V30 51 1 25 47
M  V30 52 1 29 48
M  V30 53 1 30 49
M  V30 54 1 31 50
M  V30 55 1 32 51
M  V30 56 1 33 52
M  V30 END BOND
M  V30 END CTAB
M  END
>  <Dataset>  (54) 
ChEMBL_Kinases

>  <Ligand_Instance>  (54) 
nan

>  <PDB_ID>  (54) 
nan

>  <Standardized_SMILES>  (54) 
O=C(NCCNc1nccc(-c2c(-c3cccc(F)c3)nc3sccn23)n1)c1ccccc1

>  <Name>  (54) 
nan

>  <Pocket>  (54) 
nan

>  <ATP_Site>  (54) 
nan

>  <Peripheral>  (54) 
nan

>  <Num_H_Atoms_ProtBoundConf>  (54) 
nan

>  <Num_Resolved_Atoms>  (54) 
nan

>  <Num_Not_Resolved_Atoms>  (54) 
nan

$$$$
CHEMBL4741790
     RDKit          3D

  0  0  0  0  0  0  0  0  0  0999 V3000
M  V30 BEGIN CTAB
M  V30 COUNTS 57 62 0 0 0
M  V30 BEGIN ATOM
M  V30 1 C 1.962030 -2.964501 1.773300 0
M  V30 2 N 3.018208 -3.722432 1.125075 0
M  V30 3 C 4.284230 -3.184251 1.578625 0
M  V30 4 C 4.529755 -1.806081 0.964305 0
M  V30 5 N 4.414054 -1.884051 -0.430408 0
M  V30 6 C 4.167977 -0.736225 -1.190474 0
M  V30 7 C 2.902368 -0.048305 -0.801441 0
M  V30 8 C 2.995273 0.917656 0.208539 0
M  V30 9 C 1.894400 1.636893 0.665751 0
M  V30 10 C 0.652933 1.402129 0.113238 0
M  V30 11 C -0.588844 2.073064 0.484582 0
M  V30 12 C -0.713538 3.382189 0.929081 0
M  V30 13 N -1.914989 3.898747 1.246073 0
M  V30 14 C -3.071495 3.209307 1.162205 0
M  V30 15 N -4.370088 3.469516 1.406235 0
M  V30 16 C -5.115090 2.375558 1.138870 0
M  V30 17 C -4.296705 1.341148 0.699928 0
M  V30 18 C -4.703200 -0.008116 0.313163 0
M  V30 19 C -5.757170 -0.328010 -0.518680 0
M  V30 20 N -6.062334 -1.600938 -0.818387 0
M  V30 21 C -5.330267 -2.596067 -0.301340 0
M  V30 22 N -5.439942 -3.930384 -0.452973 0
M  V30 23 N -4.491111 -4.508434 0.252566 0
M  V30 24 C -3.747479 -3.588956 0.874262 0
M  V30 25 C -4.260426 -2.345346 0.539370 0
M  V30 26 C -3.955043 -1.024579 0.841677 0
M  V30 27 C -3.030017 1.900874 0.728202 0
M  V30 28 C -1.796818 1.373568 0.403647 0
M  V30 29 C 0.545778 0.445266 -0.891067 0
M  V30 30 C 1.646446 -0.257837 -1.331814 0
M  V30 31 C 4.141660 -3.163299 -0.924356 0
M  V30 32 C 2.863941 -3.704997 -0.306391 0
M  V30 33 H 1.108309 -3.622049 2.078016 0
M  V30 34 H 2.298265 -2.385438 2.633411 0
M  V30 35 H 1.496448 -2.234065 1.051660 0
M  V30 36 H 5.137906 -3.850160 1.457467 0
M  V30 37 H 4.164815 -3.055308 2.694204 0
M  V30 38 H 5.570935 -1.530820 1.306162 0
M  V30 39 H 3.828410 -1.093417 1.449067 0
M  V30 40 H 4.984556 0.042052 -1.113743 0
M  V30 41 H 4.034249 -0.958246 -2.283503 0
M  V30 42 H 3.924183 1.190316 0.721107 0
M  V30 43 H 1.953146 2.380379 1.439334 0
M  V30 44 H 0.214329 3.945632 0.999639 0
M  V30 45 H -4.687174 4.407371 1.752123 0
M  V30 46 H -6.206993 2.293582 1.245488 0
M  V30 47 H -6.329287 0.510479 -0.920174 0
M  V30 48 H -6.100255 -4.515725 -0.993568 0
M  V30 49 H -2.909051 -3.741430 1.515836 0
M  V30 50 H -3.101507 -0.956464 1.508035 0
M  V30 51 H -1.727412 0.354834 0.059288 0
M  V30 52 H -0.344186 0.142310 -1.425173 0
M  V30 53 H 1.643043 -1.016214 -2.106919 0
M  V30 54 H 4.941158 -3.884059 -0.567308 0
M  V30 55 H 4.097696 -3.239783 -2.035174 0
M  V30 56 H 2.644115 -4.726344 -0.709584 0
M  V30 57 H 2.051819 -2.994291 -0.545965 0
M  V30 END ATOM
M  V30 BEGIN BOND
M  V30 1 1 1 2
M  V30 2 1 2 3
M  V30 3 1 3 4
M  V30 4 1 4 5
M  V30 5 1 5 6
M  V30 6 1 6 7
M  V30 7 2 7 8
M  V30 8 1 8 9
M  V30 9 2 9 10
M  V30 10 1 10 11
M  V30 11 2 11 12
M  V30 12 1 12 13
M  V30 13 2 13 14
M  V30 14 1 14 15
M  V30 15 1 15 16
M  V30 16 2 16 17
M  V30 17 1 17 18
M  V30 18 2 18 19
M  V30 19 1 19 20
M  V30 20 2 20 21
M  V30 21 1 21 22
M  V30 22 1 22 23
M  V30 23 2 23 24
M  V30 24 1 24 25
M  V30 25 2 25 26
M  V30 26 1 17 27
M  V30 27 2 27 28
M  V30 28 1 10 29
M  V30 29 2 29 30
M  V30 30 1 5 31
M  V30 31 1 31 32
M  V30 32 1 32 2
M  V30 33 1 30 7
M  V30 34 1 28 11
M  V30 35 1 27 14
M  V30 36 1 26 18
M  V30 37 1 25 21
M  V30 38 1 1 33
M  V30 39 1 1 34
M  V30 40 1 1 35
M  V30 41 1 3 36
M  V30 42 1 3 37
M  V30 43 1 4 38
M  V30 44 1 4 39
M  V30 45 1 6 40
M  V30 46 1 6 41
M  V30 47 1 8 42
M  V30 48 1 9 43
M  V30 49 1 12 44
M  V30 50 1 15 45
M  V30 51 1 16 46
M  V30 52 1 19 47
M  V30 53 1 22 48
M  V30 54 1 24 49
M  V30 55 1 26 50
M  V30 56 1 28 51
M  V30 57 1 29 52
M  V30 58 1 30 53
M  V30 59 1 31 54
M  V30 60 1 31 55
M  V30 61 1 32 56
M  V30 62 1 32 57
M  V30 END BOND
M  V30 END CTAB
M  END
>  <Dataset>  (55) 
ChEMBL_Kinases

>  <Ligand_Instance>  (55) 
nan

>  <PDB_ID>  (55) 
nan

>  <Standardized_SMILES>  (55) 
CN1CCN(Cc2ccc(-c3cnc4[nH]cc(-c5cnc6[nH]ncc6c5)c4c3)cc2)CC1

>  <Name>  (55) 
nan

>  <Pocket>  (55) 
nan

>  <ATP_Site>  (55) 
nan

>  <Peripheral>  (55) 
nan

>  <Num_H_Atoms_ProtBoundConf>  (55) 
nan

>  <Num_Resolved_Atoms>  (55) 
nan

>  <Num_Not_Resolved_Atoms>  (55) 
nan

$$$$
CHEMBL4741876
     RDKit          3D

  0  0  0  0  0  0  0  0  0  0999 V3000
M  V30 BEGIN CTAB
M  V30 COUNTS 55 59 0 0 0
M  V30 BEGIN ATOM
M  V30 1 C 3.067827 0.445942 4.343529 0
M  V30 2 C 3.860562 -0.533798 3.560505 0
M  V30 3 C 4.382224 -1.695011 4.097321 0
M  V30 4 C 5.116319 -2.552152 3.270092 0
M  V30 5 C 5.308767 -2.225708 1.930529 0
M  V30 6 C 4.780861 -1.059634 1.405693 0
M  V30 7 F 5.049750 -0.876170 0.089447 0
M  V30 8 C 4.048570 -0.204441 2.230570 0
M  V30 9 C 3.555948 0.976130 1.552578 0
M  V30 10 C 4.284612 2.162519 1.480821 0
M  V30 11 C 3.729149 3.235322 0.811014 0
M  V30 12 C 2.482300 3.138995 0.225207 0
M  V30 13 C 1.743145 4.064915 -0.482281 0
M  V30 14 N 0.584844 3.460569 -0.837821 0
M  V30 15 N 0.583896 2.205762 -0.378490 0
M  V30 16 C -0.373321 1.157758 -0.471279 0
M  V30 17 C -1.442853 1.080685 0.394030 0
M  V30 18 C -2.345257 0.048908 0.267771 0
M  V30 19 C -2.263945 -0.941398 -0.680397 0
M  V30 20 N -3.213152 -1.989098 -0.777172 0
M  V30 21 C -4.339502 -2.170668 0.112274 0
M  V30 22 C -5.587437 -1.945791 -0.754762 0
M  V30 23 N -5.651571 -3.112239 -1.616696 0
M  V30 24 C -5.865826 -4.276115 -0.779076 0
M  V30 25 C -4.514776 -3.236694 -2.470052 0
M  V30 26 C -3.184015 -3.024223 -1.786693 0
M  V30 27 C -1.190513 -0.821744 -1.511376 0
M  V30 28 C -0.253969 0.183021 -1.438875 0
M  V30 29 C 1.729364 1.961493 0.281616 0
M  V30 30 C 2.311518 0.909441 0.957116 0
M  V30 31 H 3.448897 0.383882 5.389110 0
M  V30 32 H 1.993638 0.161567 4.432774 0
M  V30 33 H 3.234820 1.483994 4.037670 0
M  V30 34 H 4.191513 -1.881051 5.144798 0
M  V30 35 H 5.513261 -3.458960 3.725833 0
M  V30 36 H 5.890635 -2.937644 1.341116 0
M  V30 37 H 5.249891 2.136573 1.971168 0
M  V30 38 H 4.331279 4.137174 0.780491 0
M  V30 39 H 2.045291 5.082033 -0.704480 0
M  V30 40 H -1.517426 1.851502 1.141912 0
M  V30 41 H -3.139616 0.090131 0.996868 0
M  V30 42 H -4.409777 -1.458424 0.932151 0
M  V30 43 H -4.310696 -3.232985 0.462033 0
M  V30 44 H -5.376316 -1.055287 -1.365106 0
M  V30 45 H -6.507484 -1.889684 -0.169214 0
M  V30 46 H -6.698244 -4.849813 -1.239919 0
M  V30 47 H -4.957361 -4.889627 -0.636346 0
M  V30 48 H -6.235535 -3.961977 0.231916 0
M  V30 49 H -4.662103 -2.559153 -3.325371 0
M  V30 50 H -4.509496 -4.274855 -2.876899 0
M  V30 51 H -2.952875 -3.991413 -1.250798 0
M  V30 52 H -2.411340 -2.922147 -2.542641 0
M  V30 53 H -0.994156 -1.525495 -2.305174 0
M  V30 54 H 0.589227 0.265097 -2.102218 0
M  V30 55 H 1.745533 -0.010947 1.012432 0
M  V30 END ATOM
M  V30 BEGIN BOND
M  V30 1 1 1 2
M  V30 2 2 2 3
M  V30 3 1 3 4
M  V30 4 2 4 5
M  V30 5 1 5 6
M  V30 6 1 6 7
M  V30 7 2 6 8
M  V30 8 1 8 9
M  V30 9 2 9 10
M  V30 10 1 10 11
M  V30 11 2 11 12
M  V30 12 1 12 13
M  V30 13 2 13 14
M  V30 14 1 14 15
M  V30 15 1 15 16
M  V30 16 2 16 17
M  V30 17 1 17 18
M  V30 18 2 18 19
M  V30 19 1 19 20
M  V30 20 1 20 21
M  V30 21 1 21 22
M  V30 22 1 22 23
M  V30 23 1 23 24
M  V30 24 1 23 25
M  V30 25 1 25 26
M  V30 26 1 19 27
M  V30 27 2 27 28
M  V30 28 1 15 29
M  V30 29 2 29 30
M  V30 30 1 8 2
M  V30 31 1 30 9
M  V30 32 1 29 12
M  V30 33 1 28 16
M  V30 34 1 26 20
M  V30 35 1 1 31
M  V30 36 1 1 32
M  V30 37 1 1 33
M  V30 38 1 3 34
M  V30 39 1 4 35
M  V30 40 1 5 36
M  V30 41 1 10 37
M  V30 42 1 11 38
M  V30 43 1 13 39
M  V30 44 1 17 40
M  V30 45 1 18 41
M  V30 46 1 21 42
M  V30 47 1 21 43
M  V30 48 1 22 44
M  V30 49 1 22 45
M  V30 50 1 24 46
M  V30 51 1 24 47
M  V30 52 1 24 48
M  V30 53 1 25 49
M  V30 54 1 25 50
M  V30 55 1 26 51
M  V30 56 1 26 52
M  V30 57 1 27 53
M  V30 58 1 28 54
M  V30 59 1 30 55
M  V30 END BOND
M  V30 END CTAB
M  END
>  <Dataset>  (56) 
ChEMBL_Kinases

>  <Ligand_Instance>  (56) 
nan

>  <PDB_ID>  (56) 
nan

>  <Standardized_SMILES>  (56) 
Cc1cccc(F)c1-c1ccc2cnn(-c3ccc(N4CCN(C)CC4)cc3)c2c1

>  <Name>  (56) 
nan

>  <Pocket>  (56) 
nan

>  <ATP_Site>  (56) 
nan

>  <Peripheral>  (56) 
nan

>  <Num_H_Atoms_ProtBoundConf>  (56) 
nan

>  <Num_Resolved_Atoms>  (56) 
nan

>  <Num_Not_Resolved_Atoms>  (56) 
nan

$$$$
CHEMBL4741998
     RDKit          3D

  0  0  0  0  0  0  0  0  0  0999 V3000
M  V30 BEGIN CTAB
M  V30 COUNTS 45 47 0 0 0
M  V30 BEGIN ATOM
M  V30 1 C 1.607663 -4.110861 1.044942 0
M  V30 2 C 1.790011 -2.684714 0.544151 0
M  V30 3 C 0.667455 -2.441477 -0.440541 0
M  V30 4 N 3.088112 -2.591581 -0.058950 0
M  V30 5 C 3.975914 -3.566052 -0.359925 0
M  V30 6 N 5.077369 -3.009287 -0.922972 0
M  V30 7 N 4.904895 -1.701836 -0.984591 0
M  V30 8 C 3.690591 -1.456414 -0.456138 0
M  V30 9 C 3.127639 -0.096345 -0.344992 0
M  V30 10 C 3.282529 0.858366 -1.329768 0
M  V30 11 C 2.740144 2.121224 -1.188546 0
M  V30 12 C 2.032637 2.448109 -0.056232 0
M  V30 13 C 1.884878 1.500862 0.909406 0
M  V30 14 N 1.193318 1.604030 2.171558 0
M  V30 15 C -0.173580 1.242347 2.121770 0
M  V30 16 O -0.782588 0.857331 1.092427 0
M  V30 17 N -0.939995 1.306818 3.296230 0
M  V30 18 C -2.348659 0.999715 3.540141 0
M  V30 19 C -3.030752 0.549347 2.300487 0
M  V30 20 C -3.131032 -0.755745 1.859791 0
M  V30 21 C -3.786934 -1.078775 0.690693 0
M  V30 22 C -4.367549 -0.064942 -0.073060 0
M  V30 23 C -4.253907 1.230240 0.388012 0
M  V30 24 C -3.601341 1.591047 1.559390 0
M  V30 25 N 2.424176 0.267488 0.752978 0
M  V30 26 H 0.532512 -4.295996 1.329034 0
M  V30 27 H 1.863260 -4.869922 0.269318 0
M  V30 28 H 2.221518 -4.306459 1.938417 0
M  V30 29 H 1.693222 -2.035978 1.423080 0
M  V30 30 H 0.716452 -1.472070 -0.939078 0
M  V30 31 H 0.721640 -3.244731 -1.229335 0
M  V30 32 H -0.287490 -2.639594 0.094572 0
M  V30 33 H 3.838001 -4.615205 -0.184236 0
M  V30 34 H 3.844288 0.598064 -2.228279 0
M  V30 35 H 2.851362 2.887701 -1.953788 0
M  V30 36 H 1.573665 3.378494 0.162535 0
M  V30 37 H 1.609150 1.912258 3.078351 0
M  V30 38 H -0.524367 1.616176 4.208412 0
M  V30 39 H -2.313327 0.080968 4.194304 0
M  V30 40 H -2.904688 1.814865 4.002576 0
M  V30 41 H -2.673176 -1.507380 2.472041 0
M  V30 42 H -3.858644 -2.104966 0.356171 0
M  V30 43 H -4.895689 -0.250888 -0.998958 0
M  V30 44 H -4.702821 2.030691 -0.199043 0
M  V30 45 H -3.547027 2.632073 1.867790 0
M  V30 END ATOM
M  V30 BEGIN BOND
M  V30 1 1 1 2
M  V30 2 1 2 3
M  V30 3 1 2 4
M  V30 4 1 4 5
M  V30 5 2 5 6
M  V30 6 1 6 7
M  V30 7 2 7 8
M  V30 8 1 8 9
M  V30 9 2 9 10
M  V30 10 1 10 11
M  V30 11 2 11 12
M  V30 12 1 12 13
M  V30 13 1 13 14
M  V30 14 1 14 15
M  V30 15 2 15 16
M  V30 16 1 15 17
M  V30 17 1 17 18
M  V30 18 1 18 19
M  V30 19 2 19 20
M  V30 20 1 20 21
M  V30 21 2 21 22
M  V30 22 1 22 23
M  V30 23 2 23 24
M  V30 24 2 13 25
M  V30 25 1 8 4
M  V30 26 1 25 9
M  V30 27 1 24 19
M  V30 28 1 1 26
M  V30 29 1 1 27
M  V30 30 1 1 28
M  V30 31 1 2 29
M  V30 32 1 3 30
M  V30 33 1 3 31
M  V30 34 1 3 32
M  V30 35 1 5 33
M  V30 36 1 10 34
M  V30 37 1 11 35
M  V30 38 1 12 36
M  V30 39 1 14 37
M  V30 40 1 17 38
M  V30 41 1 18 39
M  V30 42 1 18 40
M  V30 43 1 20 41
M  V30 44 1 21 42
M  V30 45 1 22 43
M  V30 46 1 23 44
M  V30 47 1 24 45
M  V30 END BOND
M  V30 END CTAB
M  END
>  <Dataset>  (57) 
ChEMBL_Kinases

>  <Ligand_Instance>  (57) 
nan

>  <PDB_ID>  (57) 
nan

>  <Standardized_SMILES>  (57) 
CC(C)n1cnnc1-c1cccc(NC(=O)NCc2ccccc2)n1

>  <Name>  (57) 
nan

>  <Pocket>  (57) 
nan

>  <ATP_Site>  (57) 
nan

>  <Peripheral>  (57) 
nan

>  <Num_H_Atoms_ProtBoundConf>  (57) 
nan

>  <Num_Resolved_Atoms>  (57) 
nan

>  <Num_Not_Resolved_Atoms>  (57) 
nan

$$$$
CHEMBL4742063
     RDKit          3D

  0  0  0  0  0  0  0  0  0  0999 V3000
M  V30 BEGIN CTAB
M  V30 COUNTS 75 77 0 0 0
M  V30 BEGIN ATOM
M  V30 1 C -0.047290 -4.462629 -0.459051 0
M  V30 2 C -1.195503 -3.610079 -0.982862 0
M  V30 3 C -2.298968 -3.723802 0.023773 0
M  V30 4 C -1.704119 -4.160010 -2.295448 0
M  V30 5 O -0.704984 -2.311543 -1.067713 0
M  V30 6 C -1.352652 -1.191909 -1.472152 0
M  V30 7 O -0.765685 -2.229973 -1.101224 0
M  V30 8 C -2.370777 -0.225164 -1.924490 0
M  V30 9 C -3.339194 0.221375 -0.893336 0
M  V30 10 C -2.803704 0.976931 0.272696 0 CFG=2
M  V30 11 N -2.154898 2.219098 -0.181044 0
M  V30 12 C -2.716388 3.499472 0.155799 0
M  V30 13 O -3.734856 3.800427 0.815071 0
M  V30 14 O -2.102657 4.657133 -0.272597 0
M  V30 15 C -2.533005 5.963086 -0.020018 0
M  V30 16 C -1.510749 6.878696 -0.709039 0
M  V30 17 C -2.510150 6.314508 1.445853 0
M  V30 18 C -3.915105 6.277860 -0.536035 0
M  V30 19 C -1.918821 0.180534 1.118085 0
M  V30 20 O -1.962491 -0.976579 1.665653 0
M  V30 21 N -0.645845 0.756383 1.495180 0
M  V30 22 C 0.462879 0.305310 2.297075 0
M  V30 23 C 1.062225 -0.939845 1.678447 0
M  V30 24 C 2.243699 -1.423493 2.515325 0
M  V30 25 N 2.812044 -2.593910 1.890099 0
M  V30 26 C 2.501610 -3.877854 2.092158 0
M  V30 27 O 1.579922 -4.046283 2.945458 0
M  V30 28 C 3.146814 -4.899129 1.415201 0
M  V30 29 C 2.757638 -6.202079 1.689439 0
M  V30 30 C 3.442199 -7.189580 0.977704 0
M  V30 31 F 3.096416 -8.492327 1.210733 0
M  V30 32 C 4.442080 -6.931925 0.057029 0
M  V30 33 C 4.790485 -5.597789 -0.176538 0
M  V30 34 C 4.137252 -4.601646 0.506071 0
M  V30 35 N 4.440355 -3.325248 0.310233 0
M  V30 36 C 5.345522 -2.782875 -0.500618 0
M  V30 37 S 6.432395 -3.355491 -1.558338 0
M  V30 38 N 5.276871 -1.451159 -0.342987 0
M  V30 39 N 4.341451 -1.199196 0.551709 0
M  V30 40 C 3.802536 -2.360166 0.976140 0
M  V30 41 H 0.869637 -4.177919 -0.998908 0
M  V30 42 H 0.078568 -4.117479 0.607504 0
M  V30 43 H -0.291569 -5.543639 -0.492123 0
M  V30 44 H -2.884583 -4.672628 -0.109470 0
M  V30 45 H -2.983889 -2.858831 -0.049532 0
M  V30 46 H -1.840602 -3.745732 1.046136 0
M  V30 47 H -2.796551 -4.155037 -2.299385 0
M  V30 48 H -1.397174 -5.246621 -2.300698 0
M  V30 49 H -1.230288 -3.706188 -3.172278 0
M  V30 50 H -1.866982 0.669276 -2.392523 0
M  V30 51 H -2.949802 -0.661155 -2.789730 0
M  V30 52 H -4.137306 0.885496 -1.348456 0
M  V30 53 H -3.880591 -0.696284 -0.540168 0
M  V30 54 H -3.698128 1.357925 0.844004 0
M  V30 55 H -1.281429 2.208190 -0.751667 0
M  V30 56 H -1.358098 6.598738 -1.752844 0
M  V30 57 H -0.529815 6.807507 -0.182857 0
M  V30 58 H -1.856653 7.908685 -0.566155 0
M  V30 59 H -2.143055 5.470944 2.071495 0
M  V30 60 H -3.519738 6.570362 1.825056 0
M  V30 61 H -1.862471 7.191319 1.655715 0
M  V30 62 H -4.688025 6.060886 0.227662 0
M  V30 63 H -4.086210 5.768927 -1.504661 0
M  V30 64 H -3.958061 7.369979 -0.734347 0
M  V30 65 H -0.466401 1.736455 1.100109 0
M  V30 66 H 0.095315 0.050292 3.320406 0
M  V30 67 H 1.208562 1.086844 2.416851 0
M  V30 68 H 0.282137 -1.694129 1.605526 0
M  V30 69 H 1.463318 -0.724939 0.667311 0
M  V30 70 H 1.810452 -1.754349 3.502784 0
M  V30 71 H 2.965433 -0.630559 2.700494 0
M  V30 72 H 1.979888 -6.424141 2.403802 0
M  V30 73 H 4.922224 -7.768562 -0.450024 0
M  V30 74 H 5.558301 -5.495942 -0.889509 0
M  V30 75 H 5.803149 -0.637940 -0.780112 0
M  V30 END ATOM
M  V30 BEGIN BOND
M  V30 1 1 1 2
M  V30 2 1 2 3
M  V30 3 1 2 4
M  V30 4 1 2 5
M  V30 5 1 5 6
M  V30 6 2 6 7
M  V30 7 1 6 8
M  V30 8 1 8 9
M  V30 9 1 9 10
M  V30 10 1 10 11
M  V30 11 1 11 12
M  V30 12 2 12 13
M  V30 13 1 12 14
M  V30 14 1 14 15
M  V30 15 1 15 16
M  V30 16 1 15 17
M  V30 17 1 15 18
M  V30 18 1 10 19
M  V30 19 2 19 20
M  V30 20 1 19 21
M  V30 21 1 21 22
M  V30 22 1 22 23
M  V30 23 1 23 24
M  V30 24 1 24 25
M  V30 25 1 25 26
M  V30 26 2 26 27
M  V30 27 1 26 28
M  V30 28 2 28 29
M  V30 29 1 29 30
M  V30 30 1 30 31
M  V30 31 2 30 32
M  V30 32 1 32 33
M  V30 33 2 33 34
M  V30 34 1 34 35
M  V30 35 1 35 36
M  V30 36 2 36 37
M  V30 37 1 36 38
M  V30 38 1 38 39
M  V30 39 2 39 40
M  V30 40 1 40 25
M  V30 41 1 34 28
M  V30 42 1 40 35
M  V30 43 1 1 41
M  V30 44 1 1 42
M  V30 45 1 1 43
M  V30 46 1 3 44
M  V30 47 1 3 45
M  V30 48 1 3 46
M  V30 49 1 4 47
M  V30 50 1 4 48
M  V30 51 1 4 49
M  V30 52 1 8 50
M  V30 53 1 8 51
M  V30 54 1 9 52
M  V30 55 1 9 53
M  V30 56 1 10 54 CFG=1
M  V30 57 1 11 55
M  V30 58 1 16 56
M  V30 59 1 16 57
M  V30 60 1 16 58
M  V30 61 1 17 59
M  V30 62 1 17 60
M  V30 63 1 17 61
M  V30 64 1 18 62
M  V30 65 1 18 63
M  V30 66 1 18 64
M  V30 67 1 21 65
M  V30 68 1 22 66
M  V30 69 1 22 67
M  V30 70 1 23 68
M  V30 71 1 23 69
M  V30 72 1 24 70
M  V30 73 1 24 71
M  V30 74 1 29 72
M  V30 75 1 32 73
M  V30 76 1 33 74
M  V30 77 1 38 75
M  V30 END BOND
M  V30 END CTAB
M  END
>  <Dataset>  (58) 
ChEMBL_Kinases

>  <Ligand_Instance>  (58) 
nan

>  <PDB_ID>  (58) 
nan

>  <Standardized_SMILES>  (58) 
CC(C)(C)OC(=O)CC[C@H](NC(=O)OC(C)(C)C)C(=O)NCCCn1c(=O)c2cc(F)ccc2n2c(=S)[nH]nc12

>  <Name>  (58) 
nan

>  <Pocket>  (58) 
nan

>  <ATP_Site>  (58) 
nan

>  <Peripheral>  (58) 
nan

>  <Num_H_Atoms_ProtBoundConf>  (58) 
nan

>  <Num_Resolved_Atoms>  (58) 
nan

>  <Num_Not_Resolved_Atoms>  (58) 
nan

$$$$
CHEMBL4742116
     RDKit          3D

  0  0  0  0  0  0  0  0  0  0999 V3000
M  V30 BEGIN CTAB
M  V30 COUNTS 50 53 0 0 0
M  V30 BEGIN ATOM
M  V30 1 N 4.323231 -4.147892 5.131148 0
M  V30 2 C 4.087948 -3.927300 4.012701 0
M  V30 3 C 3.810849 -3.667802 2.606952 0
M  V30 4 C 3.395636 -4.661678 1.765011 0
M  V30 5 N 3.154938 -4.359227 0.475188 0
M  V30 6 C 3.309924 -3.114055 -0.008665 0
M  V30 7 N 3.100708 -2.636619 -1.332987 0
M  V30 8 C 1.730747 -2.332927 -1.254184 0
M  V30 9 C 1.256085 -1.123623 -0.795902 0
M  V30 10 C -0.086853 -0.827999 -0.723567 0
M  V30 11 N -0.523987 0.424298 -0.215230 0
M  V30 12 C 0.483685 1.385900 0.186780 0
M  V30 13 C -0.113991 2.647312 0.809902 0 CFG=1
M  V30 14 C -0.930910 2.170977 1.962648 0
M  V30 15 N -0.401512 2.348881 3.264056 0
M  V30 16 C 0.956171 2.785512 3.348456 0
M  V30 17 C 1.079888 3.930499 2.364385 0
M  V30 18 O 0.959598 3.426703 1.111248 0
M  V30 19 C -0.959634 -1.807151 -1.136412 0
M  V30 20 C -2.401651 -1.615276 -1.136826 0
M  V30 21 C -3.139302 -0.573481 -1.651225 0
M  V30 22 C -4.512007 -0.607484 -1.527463 0
M  V30 23 C -5.220908 -1.617181 -0.920307 0
M  V30 24 C -4.509942 -2.658229 -0.404503 0
M  V30 25 Cl -5.336663 -3.972489 0.378325 0
M  V30 26 C -3.127590 -2.644035 -0.518018 0
M  V30 27 C -0.506273 -3.025888 -1.598687 0
M  V30 28 N 0.831521 -3.268429 -1.649761 0
M  V30 29 C 3.736366 -2.107881 0.867731 0
M  V30 30 N 3.982440 -2.405957 2.176736 0
M  V30 31 H 3.259502 -5.659647 2.105368 0
M  V30 32 H 3.738364 -2.520558 -2.170299 0
M  V30 33 H 1.932189 -0.368573 -0.480548 0
M  V30 34 H -1.504174 0.745345 -0.090170 0
M  V30 35 H 1.123287 1.674132 -0.681712 0
M  V30 36 H 1.180332 0.972915 0.942447 0
M  V30 37 H -0.705067 3.133562 0.007220 0
M  V30 38 H -1.918206 2.703430 1.909100 0
M  V30 39 H -1.217380 1.079109 1.889713 0
M  V30 40 H -0.976345 2.929581 3.890977 0
M  V30 41 H 1.152143 3.113761 4.390787 0
M  V30 42 H 1.701155 2.011270 3.030664 0
M  V30 43 H 0.410529 4.770781 2.618135 0
M  V30 44 H 2.124327 4.302636 2.479989 0
M  V30 45 H -2.574043 0.192190 -2.120951 0
M  V30 46 H -5.057254 0.229812 -1.944006 0
M  V30 47 H -6.299228 -1.599839 -0.847800 0
M  V30 48 H -2.621292 -3.516542 -0.077371 0
M  V30 49 H -1.189719 -3.794523 -1.921479 0
M  V30 50 H 3.913889 -1.057761 0.651672 0
M  V30 END ATOM
M  V30 BEGIN BOND
M  V30 1 3 1 2
M  V30 2 1 2 3
M  V30 3 2 3 4
M  V30 4 1 4 5
M  V30 5 2 5 6
M  V30 6 1 6 7
M  V30 7 1 7 8
M  V30 8 2 8 9
M  V30 9 1 9 10
M  V30 10 1 10 11
M  V30 11 1 11 12
M  V30 12 1 12 13
M  V30 13 1 13 14
M  V30 14 1 14 15
M  V30 15 1 15 16
M  V30 16 1 16 17
M  V30 17 1 17 18
M  V30 18 2 10 19
M  V30 19 1 19 20
M  V30 20 2 20 21
M  V30 21 1 21 22
M  V30 22 2 22 23
M  V30 23 1 23 24
M  V30 24 1 24 25
M  V30 25 2 24 26
M  V30 26 1 19 27
M  V30 27 2 27 28
M  V30 28 1 6 29
M  V30 29 2 29 30
M  V30 30 1 30 3
M  V30 31 1 28 8
M  V30 32 1 18 13
M  V30 33 1 26 20
M  V30 34 1 4 31
M  V30 35 1 7 32
M  V30 36 1 9 33
M  V30 37 1 11 34
M  V30 38 1 12 35
M  V30 39 1 12 36
M  V30 40 1 13 37 CFG=3
M  V30 41 1 14 38
M  V30 42 1 14 39
M  V30 43 1 15 40
M  V30 44 1 16 41
M  V30 45 1 16 42
M  V30 46 1 17 43
M  V30 47 1 17 44
M  V30 48 1 21 45
M  V30 49 1 22 46
M  V30 50 1 23 47
M  V30 51 1 26 48
M  V30 52 1 27 49
M  V30 53 1 29 50
M  V30 END BOND
M  V30 END CTAB
M  END
>  <Dataset>  (59) 
ChEMBL_Kinases

>  <Ligand_Instance>  (59) 
nan

>  <PDB_ID>  (59) 
nan

>  <Standardized_SMILES>  (59) 
N#Cc1cnc(Nc2cc(NC[C@H]3CNCCO3)c(-c3cccc(Cl)c3)cn2)cn1

>  <Name>  (59) 
nan

>  <Pocket>  (59) 
nan

>  <ATP_Site>  (59) 
nan

>  <Peripheral>  (59) 
nan

>  <Num_H_Atoms_ProtBoundConf>  (59) 
nan

>  <Num_Resolved_Atoms>  (59) 
nan

>  <Num_Not_Resolved_Atoms>  (59) 
nan

$$$$
CHEMBL4742136
     RDKit          3D

  0  0  0  0  0  0  0  0  0  0999 V3000
M  V30 BEGIN CTAB
M  V30 COUNTS 68 72 0 0 0
M  V30 BEGIN ATOM
M  V30 1 C 4.996949 -3.896093 2.262473 0
M  V30 2 O 4.501055 -3.119627 1.188287 0
M  V30 3 C 3.608666 -2.089679 1.441176 0
M  V30 4 C 3.094300 -1.676180 2.652550 0
M  V30 5 C 2.210436 -0.622365 2.703969 0
M  V30 6 C 1.794657 0.066931 1.584565 0
M  V30 7 C 2.281691 -0.310561 0.357486 0
M  V30 8 C 1.902262 0.366131 -0.874204 0
M  V30 9 N 2.612013 1.093013 -1.788221 0
M  V30 10 C 1.789406 1.514030 -2.763934 0
M  V30 11 C 2.185091 2.318767 -3.918234 0
M  V30 12 C 1.251223 2.694290 -4.862456 0
M  V30 13 C 1.538920 3.450234 -5.979579 0
M  V30 14 C 2.854058 3.856745 -6.160990 0
M  V30 15 C 3.791249 3.472936 -5.202293 0
M  V30 16 C 3.495970 2.711039 -4.078173 0
M  V30 17 N 0.554428 1.044738 -2.454956 0
M  V30 18 C 0.607053 0.332151 -1.288406 0
M  V30 19 C -0.674181 -0.216559 -0.873127 0
M  V30 20 C -1.762150 0.588093 -0.572788 0
M  V30 21 C -3.013935 0.215257 -0.189743 0
M  V30 22 N -3.206661 -1.107305 -0.094233 0
M  V30 23 C -2.253601 -2.022251 -0.350888 0
M  V30 24 N -2.471173 -3.419490 -0.251250 0
M  V30 25 C -2.496819 -4.605683 0.547871 0
M  V30 26 C -3.511714 -4.657460 1.626530 0
M  V30 27 C -3.437132 -3.619201 2.685178 0
M  V30 28 N -2.225504 -3.577131 3.442178 0
M  V30 29 S -2.361061 -2.320887 4.609446 0
M  V30 30 O -3.524516 -2.586159 5.545846 0
M  V30 31 O -1.135855 -2.258301 5.494436 0
M  V30 32 C -2.573424 -0.739592 3.906440 0
M  V30 33 C -3.820069 -0.208075 3.604935 0
M  V30 34 C -3.930429 1.057809 3.054581 0
M  V30 35 C -2.837744 1.828998 2.787301 0
M  V30 36 Br -2.876189 3.585642 2.031136 0
M  V30 37 C -1.581114 1.338744 3.071452 0
M  V30 38 C -1.495706 0.063120 3.624513 0
M  V30 39 C -0.986510 -1.571614 -0.740376 0
M  V30 40 C 3.180005 -1.383549 0.314033 0
M  V30 41 H 5.951423 -4.329398 1.900562 0
M  V30 42 H 4.323159 -4.765718 2.495012 0
M  V30 43 H 5.146123 -3.324831 3.193414 0
M  V30 44 H 3.446431 -2.243860 3.502704 0
M  V30 45 H 1.855146 -0.359039 3.689375 0
M  V30 46 H 1.099982 0.894084 1.633402 0
M  V30 47 H 0.195128 2.405789 -4.778163 0
M  V30 48 H 0.777962 3.729152 -6.704926 0
M  V30 49 H 3.124478 4.447983 -7.018647 0
M  V30 50 H 4.798474 3.830330 -5.416173 0
M  V30 51 H 4.265877 2.451344 -3.380355 0
M  V30 52 H -0.235751 1.285574 -3.128481 0
M  V30 53 H -1.583848 1.672081 -0.656079 0
M  V30 54 H -3.773643 0.955755 0.014863 0
M  V30 55 H -2.720903 -3.498769 -1.276086 0
M  V30 56 H -1.502558 -4.803159 1.029038 0
M  V30 57 H -2.679446 -5.468255 -0.126759 0
M  V30 58 H -4.517692 -4.521256 1.125034 0
M  V30 59 H -3.578330 -5.699869 2.052709 0
M  V30 60 H -4.289788 -3.705782 3.412173 0
M  V30 61 H -3.553258 -2.623798 2.210413 0
M  V30 62 H -1.984886 -4.438519 3.957104 0
M  V30 63 H -4.704946 -0.797903 3.806688 0
M  V30 64 H -4.901138 1.506652 2.804562 0
M  V30 65 H -0.678013 1.904023 2.881978 0
M  V30 66 H -0.528946 -0.353806 3.860871 0
M  V30 67 H -0.185261 -2.269378 -0.958283 0
M  V30 68 H 3.543057 -1.651193 -0.683718 0
M  V30 END ATOM
M  V30 BEGIN BOND
M  V30 1 1 1 2
M  V30 2 1 2 3
M  V30 3 2 3 4
M  V30 4 1 4 5
M  V30 5 2 5 6
M  V30 6 1 6 7
M  V30 7 1 7 8
M  V30 8 1 8 9
M  V30 9 2 9 10
M  V30 10 1 10 11
M  V30 11 2 11 12
M  V30 12 1 12 13
M  V30 13 2 13 14
M  V30 14 1 14 15
M  V30 15 2 15 16
M  V30 16 1 10 17
M  V30 17 1 17 18
M  V30 18 1 18 19
M  V30 19 2 19 20
M  V30 20 1 20 21
M  V30 21 2 21 22
M  V30 22 1 22 23
M  V30 23 1 23 24
M  V30 24 1 24 25
M  V30 25 1 25 26
M  V30 26 1 26 27
M  V30 27 1 27 28
M  V30 28 1 28 29
M  V30 29 2 29 30
M  V30 30 2 29 31
M  V30 31 1 29 32
M  V30 32 2 32 33
M  V30 33 1 33 34
M  V30 34 2 34 35
M  V30 35 1 35 36
M  V30 36 1 35 37
M  V30 37 2 37 38
M  V30 38 2 23 39
M  V30 39 2 7 40
M  V30 40 1 40 3
M  V30 41 2 18 8
M  V30 42 1 39 19
M  V30 43 1 16 11
M  V30 44 1 38 32
M  V30 45 1 1 41
M  V30 46 1 1 42
M  V30 47 1 1 43
M  V30 48 1 4 44
M  V30 49 1 5 45
M  V30 50 1 6 46
M  V30 51 1 12 47
M  V30 52 1 13 48
M  V30 53 1 14 49
M  V30 54 1 15 50
M  V30 55 1 16 51
M  V30 56 1 17 52
M  V30 57 1 20 53
M  V30 58 1 21 54
M  V30 59 1 24 55
M  V30 60 1 25 56
M  V30 61 1 25 57
M  V30 62 1 26 58
M  V30 63 1 26 59
M  V30 64 1 27 60
M  V30 65 1 27 61
M  V30 66 1 28 62
M  V30 67 1 33 63
M  V30 68 1 34 64
M  V30 69 1 37 65
M  V30 70 1 38 66
M  V30 71 1 39 67
M  V30 72 1 40 68
M  V30 END BOND
M  V30 END CTAB
M  END
>  <Dataset>  (60) 
ChEMBL_Kinases

>  <Ligand_Instance>  (60) 
nan

>  <PDB_ID>  (60) 
nan

>  <Standardized_SMILES>  (60) 
COc1cccc(-c2nc(-c3ccccc3)[nH]c2-c2ccnc(NCCCNS(=O)(=O)c3ccc(Br)cc3)c2)c1

>  <Name>  (60) 
nan

>  <Pocket>  (60) 
nan

>  <ATP_Site>  (60) 
nan

>  <Peripheral>  (60) 
nan

>  <Num_H_Atoms_ProtBoundConf>  (60) 
nan

>  <Num_Resolved_Atoms>  (60) 
nan

>  <Num_Not_Resolved_Atoms>  (60) 
nan

$$$$
CHEMBL4742138
     RDKit          3D

  0  0  0  0  0  0  0  0  0  0999 V3000
M  V30 BEGIN CTAB
M  V30 COUNTS 67 71 0 0 0
M  V30 BEGIN ATOM
M  V30 1 N -1.237385 -1.154437 5.408014 0
M  V30 2 C -0.885469 -2.020223 4.344562 0
M  V30 3 O -1.563557 -3.059407 4.565845 0
M  V30 4 C 0.044406 -1.617385 3.351535 0
M  V30 5 S 0.827958 0.049455 3.407211 0
M  V30 6 C 1.815728 -0.306783 1.829193 0
M  V30 7 C 2.753914 0.736743 1.269152 0
M  V30 8 C 3.447822 0.425802 0.099356 0
M  V30 9 C 4.287751 1.425068 -0.341727 0
M  V30 10 N 4.421593 2.594768 0.304227 0
M  V30 11 C 3.739266 2.874965 1.436244 0
M  V30 12 N 3.853075 4.100543 2.152532 0
M  V30 13 C 4.731755 4.499284 3.204983 0
M  V30 14 O 5.609545 3.744935 3.685884 0
M  V30 15 C 4.484314 5.897916 3.656713 0
M  V30 16 C 3.099300 6.391232 3.785193 0
M  V30 17 C 3.978851 6.927543 2.727101 0
M  V30 18 C 2.864923 1.918301 1.954553 0
M  V30 19 N 1.483414 -1.503550 1.476885 0
M  V30 20 C 0.621227 -2.161823 2.204386 0
M  V30 21 O 0.201275 -3.346488 1.979877 0
M  V30 22 C -0.226568 -4.555758 1.749571 0
M  V30 23 C -0.938831 -4.948669 0.495969 0
M  V30 24 C -0.269842 -4.844733 -0.789942 0
M  V30 25 C -1.246326 -5.309247 -1.872665 0
M  V30 26 C -2.115627 -4.177717 -2.383162 0
M  V30 27 N -1.949486 -3.052957 -1.569969 0
M  V30 28 C -3.019320 -2.341853 -1.048941 0
M  V30 29 C -3.998708 -1.761839 -1.997054 0
M  V30 30 C -5.231821 -2.397886 -2.188631 0
M  V30 31 C -6.225211 -1.972396 -3.041005 0
M  V30 32 C -6.009512 -0.832194 -3.773800 0
M  V30 33 C -4.806047 -0.181910 -3.608797 0
M  V30 34 C -3.810447 -0.607467 -2.754499 0
M  V30 35 Cl -2.296615 0.253273 -2.566264 0
M  V30 36 C -0.656665 -2.492704 -1.623416 0
M  V30 37 C 0.329066 -3.577344 -1.247891 0
M  V30 38 H -2.147117 -0.700415 5.525892 0
M  V30 39 H -0.392637 -1.084419 6.023052 0
M  V30 40 H 3.247836 -0.547058 -0.318936 0
M  V30 41 H 4.832159 1.185000 -1.255439 0
M  V30 42 H 3.106625 4.672071 1.709123 0
M  V30 43 H 5.182684 6.206477 4.482677 0
M  V30 44 H 2.828050 7.132517 4.593590 0
M  V30 45 H 2.248370 5.723271 3.550858 0
M  V30 46 H 4.415584 7.945329 2.833602 0
M  V30 47 H 3.717638 6.621650 1.679174 0
M  V30 48 H 2.322022 2.140898 2.851173 0
M  V30 49 H -0.981230 -4.853018 2.569879 0
M  V30 50 H 0.615328 -5.312726 1.939693 0
M  V30 51 H -1.176367 -6.051350 0.643162 0
M  V30 52 H -1.958301 -4.489156 0.563392 0
M  V30 53 H 0.561122 -5.610746 -0.812305 0
M  V30 54 H -0.637400 -5.740532 -2.688258 0
M  V30 55 H -1.882617 -6.134928 -1.466292 0
M  V30 56 H -3.159700 -4.502740 -2.559587 0
M  V30 57 H -1.738124 -3.914111 -3.415806 0
M  V30 58 H -2.612590 -1.515202 -0.397094 0
M  V30 59 H -3.596692 -2.971916 -0.326627 0
M  V30 60 H -5.426266 -3.308403 -1.616235 0
M  V30 61 H -7.155401 -2.536446 -3.121973 0
M  V30 62 H -6.747866 -0.446929 -4.458972 0
M  V30 63 H -4.546196 0.736154 -4.152728 0
M  V30 64 H -0.530057 -1.583117 -0.997706 0
M  V30 65 H -0.505650 -2.121565 -2.681701 0
M  V30 66 H 0.839178 -3.835123 -2.236098 0
M  V30 67 H 1.180633 -3.218743 -0.635957 0
M  V30 END ATOM
M  V30 BEGIN BOND
M  V30 1 1 1 2
M  V30 2 2 2 3
M  V30 3 1 2 4
M  V30 4 1 4 5
M  V30 5 1 5 6
M  V30 6 1 6 7
M  V30 7 2 7 8
M  V30 8 1 8 9
M  V30 9 2 9 10
M  V30 10 1 10 11
M  V30 11 1 11 12
M  V30 12 1 12 13
M  V30 13 2 13 14
M  V30 14 1 13 15
M  V30 15 1 15 16
M  V30 16 1 16 17
M  V30 17 2 11 18
M  V30 18 2 6 19
M  V30 19 1 19 20
M  V30 20 1 20 21
M  V30 21 1 21 22
M  V30 22 1 22 23
M  V30 23 1 23 24
M  V30 24 1 24 25
M  V30 25 1 25 26
M  V30 26 1 26 27
M  V30 27 1 27 28
M  V30 28 1 28 29
M  V30 29 2 29 30
M  V30 30 1 30 31
M  V30 31 2 31 32
M  V30 32 1 32 33
M  V30 33 2 33 34
M  V30 34 1 34 35
M  V30 35 1 27 36
M  V30 36 1 36 37
M  V30 37 2 20 4
M  V30 38 1 37 24
M  V30 39 1 18 7
M  V30 40 1 34 29
M  V30 41 1 17 15
M  V30 42 1 1 38
M  V30 43 1 1 39
M  V30 44 1 8 40
M  V30 45 1 9 41
M  V30 46 1 12 42
M  V30 47 1 15 43
M  V30 48 1 16 44
M  V30 49 1 16 45
M  V30 50 1 17 46
M  V30 51 1 17 47
M  V30 52 1 18 48
M  V30 53 1 22 49
M  V30 54 1 22 50
M  V30 55 1 23 51
M  V30 56 1 23 52
M  V30 57 1 24 53
M  V30 58 1 25 54
M  V30 59 1 25 55
M  V30 60 1 26 56
M  V30 61 1 26 57
M  V30 62 1 28 58
M  V30 63 1 28 59
M  V30 64 1 30 60
M  V30 65 1 31 61
M  V30 66 1 32 62
M  V30 67 1 33 63
M  V30 68 1 36 64
M  V30 69 1 36 65
M  V30 70 1 37 66
M  V30 71 1 37 67
M  V30 END BOND
M  V30 END CTAB
M  END
>  <Dataset>  (61) 
ChEMBL_Kinases

>  <Ligand_Instance>  (61) 
nan

>  <PDB_ID>  (61) 
nan

>  <Standardized_SMILES>  (61) 
NC(=O)c1sc(-c2ccnc(NC(=O)C3CC3)c2)nc1OCCC1CCN(Cc2ccccc2Cl)CC1

>  <Name>  (61) 
nan

>  <Pocket>  (61) 
nan

>  <ATP_Site>  (61) 
nan

>  <Peripheral>  (61) 
nan

>  <Num_H_Atoms_ProtBoundConf>  (61) 
nan

>  <Num_Resolved_Atoms>  (61) 
nan

>  <Num_Not_Resolved_Atoms>  (61) 
nan

$$$$
CHEMBL4743137
     RDKit          3D

  0  0  0  0  0  0  0  0  0  0999 V3000
M  V30 BEGIN CTAB
M  V30 COUNTS 54 56 0 0 0
M  V30 BEGIN ATOM
M  V30 1 C 0.019068 -4.407557 3.529586 0
M  V30 2 C 1.315329 -3.691760 3.828091 0
M  V30 3 C 1.421280 -3.438265 5.301224 0
M  V30 4 O 2.423634 -4.458924 3.447664 0
M  V30 5 C 1.411523 -2.421821 3.076048 0
M  V30 6 C 1.488131 -1.397005 2.445469 0
M  V30 7 C 1.582228 -0.190394 1.674415 0
M  V30 8 C 2.412460 0.858826 1.990191 0
M  V30 9 N 2.425579 1.953125 1.195765 0
M  V30 10 C 1.649894 2.063784 0.091508 0
M  V30 11 N 1.815131 3.296354 -0.605023 0
M  V30 12 C 0.929657 4.348252 -0.171622 0
M  V30 13 C 1.352488 5.183286 0.851161 0
M  V30 14 N 0.543229 6.190017 1.288973 0
M  V30 15 C -0.679700 6.385294 0.731207 0
M  V30 16 C -1.538535 7.458535 1.200278 0
M  V30 17 N -2.235516 8.307179 1.581770 0
M  V30 18 C -1.094681 5.539044 -0.297157 0
M  V30 19 N -0.293472 4.528888 -0.742973 0
M  V30 20 C 0.810741 1.020163 -0.240182 0
M  V30 21 C 0.774706 -0.109916 0.550589 0
M  V30 22 N -0.104173 -1.163618 0.174025 0
M  V30 23 C -0.990487 -1.189614 -0.974652 0
M  V30 24 C -1.783110 -2.481420 -1.061032 0
M  V30 25 C -0.878671 -3.684430 -1.178952 0
M  V30 26 C -1.612387 -4.752156 -1.956698 0
M  V30 27 N -1.763382 -4.388106 -3.350513 0
M  V30 28 C -1.740510 -2.923011 -3.460578 0
M  V30 29 C -2.606165 -2.387689 -2.339299 0
M  V30 30 H -0.666052 -4.442452 4.400018 0
M  V30 31 H -0.477493 -3.849894 2.709423 0
M  V30 32 H 0.276130 -5.409480 3.152727 0
M  V30 33 H 2.459818 -3.269194 5.639294 0
M  V30 34 H 0.766155 -2.598957 5.633665 0
M  V30 35 H 1.059068 -4.341860 5.850759 0
M  V30 36 H 2.352646 -5.329039 3.916546 0
M  V30 37 H 3.037265 0.772819 2.877343 0
M  V30 38 H 2.551994 3.294502 -1.342048 0
M  V30 39 H 2.310937 5.092146 1.345226 0
M  V30 40 H -2.084210 5.694435 -0.750879 0
M  V30 41 H 0.219240 1.179240 -1.137643 0
M  V30 42 H -0.118402 -2.021666 0.791751 0
M  V30 43 H -1.736046 -0.374927 -0.792363 0
M  V30 44 H -0.437000 -0.977600 -1.885865 0
M  V30 45 H -2.513170 -2.575235 -0.245819 0
M  V30 46 H 0.098086 -3.445954 -1.615704 0
M  V30 47 H -0.676701 -4.118490 -0.165302 0
M  V30 48 H -1.057098 -5.703775 -1.866804 0
M  V30 49 H -2.610398 -4.889612 -1.479109 0
M  V30 50 H -2.670653 -4.723110 -3.733531 0
M  V30 51 H -0.685471 -2.599636 -3.302622 0
M  V30 52 H -2.130871 -2.615406 -4.467492 0
M  V30 53 H -3.541262 -2.989954 -2.233461 0
M  V30 54 H -2.889842 -1.327417 -2.468694 0
M  V30 END ATOM
M  V30 BEGIN BOND
M  V30 1 1 1 2
M  V30 2 1 2 3
M  V30 3 1 2 4
M  V30 4 1 2 5
M  V30 5 3 5 6
M  V30 6 1 6 7
M  V30 7 2 7 8
M  V30 8 1 8 9
M  V30 9 2 9 10
M  V30 10 1 10 11
M  V30 11 1 11 12
M  V30 12 2 12 13
M  V30 13 1 13 14
M  V30 14 2 14 15
M  V30 15 1 15 16
M  V30 16 3 16 17
M  V30 17 1 15 18
M  V30 18 2 18 19
M  V30 19 1 10 20
M  V30 20 2 20 21
M  V30 21 1 21 22
M  V30 22 1 22 23
M  V30 23 1 23 24
M  V30 24 1 24 25
M  V30 25 1 25 26
M  V30 26 1 26 27
M  V30 27 1 27 28
M  V30 28 1 28 29
M  V30 29 1 21 7
M  V30 30 1 29 24
M  V30 31 1 19 12
M  V30 32 1 1 30
M  V30 33 1 1 31
M  V30 34 1 1 32
M  V30 35 1 3 33
M  V30 36 1 3 34
M  V30 37 1 3 35
M  V30 38 1 4 36
M  V30 39 1 8 37
M  V30 40 1 11 38
M  V30 41 1 13 39
M  V30 42 1 18 40
M  V30 43 1 20 41
M  V30 44 1 22 42
M  V30 45 1 23 43
M  V30 46 1 23 44
M  V30 47 1 24 45
M  V30 48 1 25 46
M  V30 49 1 25 47
M  V30 50 1 26 48
M  V30 51 1 26 49
M  V30 52 1 27 50
M  V30 53 1 28 51
M  V30 54 1 28 52
M  V30 55 1 29 53
M  V30 56 1 29 54
M  V30 END BOND
M  V30 END CTAB
M  END
>  <Dataset>  (62) 
ChEMBL_Kinases

>  <Ligand_Instance>  (62) 
nan

>  <PDB_ID>  (62) 
nan

>  <Standardized_SMILES>  (62) 
CC(C)(O)C#Cc1cnc(Nc2cnc(C#N)cn2)cc1NCC1CCNCC1

>  <Name>  (62) 
nan

>  <Pocket>  (62) 
nan

>  <ATP_Site>  (62) 
nan

>  <Peripheral>  (62) 
nan

>  <Num_H_Atoms_ProtBoundConf>  (62) 
nan

>  <Num_Resolved_Atoms>  (62) 
nan

>  <Num_Not_Resolved_Atoms>  (62) 
nan

$$$$
CHEMBL4742215
     RDKit          3D

  0  0  0  0  0  0  0  0  0  0999 V3000
M  V30 BEGIN CTAB
M  V30 COUNTS 32 34 0 0 0
M  V30 BEGIN ATOM
M  V30 1 N 1.267510 -5.219077 2.314737 0
M  V30 2 C 2.365579 -4.587130 1.619886 0
M  V30 3 N 3.623942 -4.707704 1.390460 0
M  V30 4 C 4.190143 -3.720803 0.588860 0
M  V30 5 O 5.442809 -3.833735 0.355852 0
M  V30 6 C 3.323764 -2.655616 0.088563 0
M  V30 7 C 3.652237 -1.635629 -0.674141 0
M  V30 8 C 2.570820 -0.698363 -1.036480 0
M  V30 9 C 2.641751 -0.164962 -2.365013 0
M  V30 10 S 1.087098 0.942322 -2.340060 0
M  V30 11 C 0.708667 0.454119 -0.611503 0
M  V30 12 C -0.484797 0.962688 0.177817 0
M  V30 13 C -0.659355 0.524394 1.472866 0
M  V30 14 C -1.765292 1.029513 2.123735 0
M  V30 15 C -2.630245 1.914934 1.503865 0
M  V30 16 O -3.680613 2.307569 2.322078 0
M  V30 17 C -4.918684 1.647842 2.410778 0
M  V30 18 F -4.836878 0.340563 2.822175 0
M  V30 19 F -5.666679 2.317813 3.386249 0
M  V30 20 F -5.659999 1.756107 1.254376 0
M  V30 21 C -2.397090 2.313456 0.204358 0
M  V30 22 C -1.312646 1.851757 -0.510995 0
M  V30 23 N 1.545704 -0.287925 -0.293252 0
M  V30 24 S 1.712977 -3.112648 0.790032 0
M  V30 25 H 0.869667 -4.846972 3.211587 0
M  V30 26 H 0.754526 -6.060513 2.055508 0
M  V30 27 H 4.682427 -1.524382 -1.001276 0
M  V30 28 H 3.307940 -0.305788 -3.134982 0
M  V30 29 H 0.079717 -0.165147 1.849703 0
M  V30 30 H -1.872671 0.658274 3.154379 0
M  V30 31 H -3.116635 3.006385 -0.212235 0
M  V30 32 H -1.127810 2.154361 -1.510552 0
M  V30 END ATOM
M  V30 BEGIN BOND
M  V30 1 1 1 2
M  V30 2 2 2 3
M  V30 3 1 3 4
M  V30 4 2 4 5
M  V30 5 1 4 6
M  V30 6 2 6 7
M  V30 7 1 7 8
M  V30 8 2 8 9
M  V30 9 1 9 10
M  V30 10 1 10 11
M  V30 11 1 11 12
M  V30 12 2 12 13
M  V30 13 1 13 14
M  V30 14 2 14 15
M  V30 15 1 15 16
M  V30 16 1 16 17
M  V30 17 1 17 18
M  V30 18 1 17 19
M  V30 19 1 17 20
M  V30 20 1 15 21
M  V30 21 2 21 22
M  V30 22 2 11 23
M  V30 23 1 6 24
M  V30 24 1 24 2
M  V30 25 1 23 8
M  V30 26 1 22 12
M  V30 27 1 1 25
M  V30 28 1 1 26
M  V30 29 1 7 27
M  V30 30 1 9 28
M  V30 31 1 13 29
M  V30 32 1 14 30
M  V30 33 1 21 31
M  V30 34 1 22 32
M  V30 END BOND
M  V30 END CTAB
M  END
>  <Dataset>  (63) 
ChEMBL_Kinases

>  <Ligand_Instance>  (63) 
nan

>  <PDB_ID>  (63) 
nan

>  <Standardized_SMILES>  (63) 
NC1=NC(=O)/C(=C/c2csc(-c3ccc(OC(F)(F)F)cc3)n2)S1

>  <Name>  (63) 
nan

>  <Pocket>  (63) 
nan

>  <ATP_Site>  (63) 
nan

>  <Peripheral>  (63) 
nan

>  <Num_H_Atoms_ProtBoundConf>  (63) 
nan

>  <Num_Resolved_Atoms>  (63) 
nan

>  <Num_Not_Resolved_Atoms>  (63) 
nan

$$$$
CHEMBL4742230
     RDKit          3D

  0  0  0  0  0  0  0  0  0  0999 V3000
M  V30 BEGIN CTAB
M  V30 COUNTS 45 48 0 0 0
M  V30 BEGIN ATOM
M  V30 1 C -0.963169 -7.967779 -4.163754 0
M  V30 2 N -0.331848 -7.234648 -3.079029 0
M  V30 3 C -0.543064 -5.866519 -2.746783 0
M  V30 4 O -1.359842 -5.172160 -3.442295 0
M  V30 5 C 0.172948 -5.270725 -1.618129 0
M  V30 6 N 1.062726 -5.861186 -0.788788 0
M  V30 7 N 1.485214 -4.960764 0.113517 0
M  V30 8 C 0.873552 -3.785134 -0.125115 0
M  V30 9 C 0.954041 -2.545704 0.506666 0
M  V30 10 C 0.218852 -1.457041 0.080134 0
M  V30 11 C 0.311420 -0.168987 0.747492 0
M  V30 12 C 1.577046 0.305935 1.073481 0
M  V30 13 C 1.711611 1.533961 1.712687 0
M  V30 14 C 0.581281 2.282157 2.023434 0
M  V30 15 N 0.617245 3.555526 2.679475 0
M  V30 16 C 0.748339 4.682180 1.934740 0
M  V30 17 C 0.795773 5.970656 2.450557 0
M  V30 18 C 0.700345 6.088106 3.828535 0
M  V30 19 C 0.567245 4.959328 4.598157 0
M  V30 20 C 0.462573 5.055232 6.079926 0
M  V30 21 C 0.527105 3.706500 4.016836 0
M  V30 22 O 0.403032 2.661154 4.740415 0
M  V30 23 C -0.690604 1.830563 1.709017 0
M  V30 24 C -0.787714 0.600452 1.071172 0
M  V30 25 Cl -2.389798 0.018733 0.668562 0
M  V30 26 C -0.606189 -1.651602 -1.008438 0
M  V30 27 C -0.700936 -2.878242 -1.652073 0
M  V30 28 C 0.039716 -3.957075 -1.214657 0
M  V30 29 H -0.213453 -8.680606 -4.562434 0
M  V30 30 H -1.843979 -8.535117 -3.806639 0
M  V30 31 H -1.296403 -7.309449 -4.986622 0
M  V30 32 H 0.354704 -7.772664 -2.474709 0
M  V30 33 H 2.178289 -5.199817 0.854659 0
M  V30 34 H 1.629521 -2.461054 1.365763 0
M  V30 35 H 2.511678 -0.223432 0.862373 0
M  V30 36 H 2.632175 2.012706 2.018230 0
M  V30 37 H 0.824687 4.597203 0.840189 0
M  V30 38 H 0.901385 6.820007 1.798572 0
M  V30 39 H 0.733699 7.077307 4.265531 0
M  V30 40 H 1.064301 5.902192 6.478731 0
M  V30 41 H -0.608402 5.319150 6.281506 0
M  V30 42 H 0.693434 4.101496 6.575189 0
M  V30 43 H -1.597771 2.382571 1.933544 0
M  V30 44 H -1.208166 -0.874436 -1.406906 0
M  V30 45 H -1.363765 -3.001977 -2.512571 0
M  V30 END ATOM
M  V30 BEGIN BOND
M  V30 1 1 1 2
M  V30 2 1 2 3
M  V30 3 2 3 4
M  V30 4 1 3 5
M  V30 5 2 5 6
M  V30 6 1 6 7
M  V30 7 1 7 8
M  V30 8 2 8 9
M  V30 9 1 9 10
M  V30 10 1 10 11
M  V30 11 2 11 12
M  V30 12 1 12 13
M  V30 13 2 13 14
M  V30 14 1 14 15
M  V30 15 1 15 16
M  V30 16 2 16 17
M  V30 17 1 17 18
M  V30 18 2 18 19
M  V30 19 1 19 20
M  V30 20 1 19 21
M  V30 21 2 21 22
M  V30 22 1 14 23
M  V30 23 2 23 24
M  V30 24 1 24 25
M  V30 25 2 10 26
M  V30 26 1 26 27
M  V30 27 2 27 28
M  V30 28 1 28 5
M  V30 29 1 28 8
M  V30 30 1 24 11
M  V30 31 1 21 15
M  V30 32 1 1 29
M  V30 33 1 1 30
M  V30 34 1 1 31
M  V30 35 1 2 32
M  V30 36 1 7 33
M  V30 37 1 9 34
M  V30 38 1 12 35
M  V30 39 1 13 36
M  V30 40 1 16 37
M  V30 41 1 17 38
M  V30 42 1 18 39
M  V30 43 1 20 40
M  V30 44 1 20 41
M  V30 45 1 20 42
M  V30 46 1 23 43
M  V30 47 1 26 44
M  V30 48 1 27 45
M  V30 END BOND
M  V30 END CTAB
M  END
>  <Dataset>  (64) 
ChEMBL_Kinases

>  <Ligand_Instance>  (64) 
nan

>  <PDB_ID>  (64) 
nan

>  <Standardized_SMILES>  (64) 
CNC(=O)c1n[nH]c2cc(-c3ccc(-n4cccc(C)c4=O)cc3Cl)ccc12

>  <Name>  (64) 
nan

>  <Pocket>  (64) 
nan

>  <ATP_Site>  (64) 
nan

>  <Peripheral>  (64) 
nan

>  <Num_H_Atoms_ProtBoundConf>  (64) 
nan

>  <Num_Resolved_Atoms>  (64) 
nan

>  <Num_Not_Resolved_Atoms>  (64) 
nan

$$$$
CHEMBL4742233
     RDKit          3D

  0  0  0  0  0  0  0  0  0  0999 V3000
M  V30 BEGIN CTAB
M  V30 COUNTS 49 52 0 0 0
M  V30 BEGIN ATOM
M  V30 1 C -3.019186 -3.667907 -4.606032 0
M  V30 2 C -2.464022 -2.550635 -3.746948 0
M  V30 3 C -2.045290 -1.295001 -4.110013 0
M  V30 4 N -1.599609 -0.518755 -3.177332 0
M  V30 5 C -1.507974 -0.782565 -1.985216 0
M  V30 6 C -0.955929 0.090132 -0.903327 0
M  V30 7 C -0.436362 1.307585 -1.347720 0
M  V30 8 N 0.138207 2.160119 -0.484166 0
M  V30 9 C 0.255306 1.919401 0.831940 0
M  V30 10 N 0.875298 2.755264 1.813090 0
M  V30 11 C 2.126341 3.448300 1.721939 0
M  V30 12 C 2.909526 3.318192 0.591861 0
M  V30 13 N 4.073855 3.984404 0.576360 0
M  V30 14 C 4.440688 4.735434 1.619000 0
M  V30 15 C 5.718123 5.423983 1.527792 0
M  V30 16 N 6.727825 5.979113 1.473143 0
M  V30 17 C 3.643245 4.852535 2.738782 0
M  V30 18 N 2.475462 4.196342 2.778126 0
M  V30 19 C -0.277919 0.690483 1.244878 0
M  V30 20 C -0.877286 -0.224566 0.414804 0
M  V30 21 N -1.432379 -1.404393 0.916406 0
M  V30 22 C -1.391397 -1.885389 2.279965 0
M  V30 23 C -0.005140 -2.455984 2.519538 0 CFG=1
M  V30 24 C 0.114213 -2.993166 3.925677 0
M  V30 25 N -0.938136 -3.990043 4.169641 0
M  V30 26 C -1.014259 -4.946368 3.105364 0
M  V30 27 C 0.108580 -4.742654 2.093451 0
M  V30 28 O 0.136759 -3.474793 1.571523 0
M  V30 29 S -2.133378 -2.426031 -1.975482 0
M  V30 30 H -2.276130 -3.808886 -5.416888 0
M  V30 31 H -3.963670 -3.388839 -5.059367 0
M  V30 32 H -3.153586 -4.568636 -3.966282 0
M  V30 33 H -2.101684 -0.997325 -5.157386 0
M  V30 34 H -0.451827 1.662118 -2.383384 0
M  V30 35 H 0.278082 2.817907 2.668422 0
M  V30 36 H 2.512069 2.683190 -0.188086 0
M  V30 37 H 3.978578 5.472052 3.559656 0
M  V30 38 H -0.205803 0.464594 2.288487 0
M  V30 39 H -1.963908 -2.118567 0.393010 0
M  V30 40 H -2.176869 -2.582229 2.574629 0
M  V30 41 H -1.511535 -1.013576 3.001975 0
M  V30 42 H 0.753181 -1.688210 2.375032 0
M  V30 43 H -0.083381 -2.167075 4.636615 0
M  V30 44 H 1.108896 -3.416817 4.119880 0
M  V30 45 H -1.836127 -3.511346 4.387771 0
M  V30 46 H -1.996112 -4.951254 2.592295 0
M  V30 47 H -0.877656 -5.979342 3.501839 0
M  V30 48 H -0.144868 -5.426645 1.242240 0
M  V30 49 H 1.060090 -5.091604 2.498097 0
M  V30 END ATOM
M  V30 BEGIN BOND
M  V30 1 1 1 2
M  V30 2 2 2 3
M  V30 3 1 3 4
M  V30 4 2 4 5
M  V30 5 1 5 6
M  V30 6 2 6 7
M  V30 7 1 7 8
M  V30 8 2 8 9
M  V30 9 1 9 10
M  V30 10 1 10 11
M  V30 11 2 11 12
M  V30 12 1 12 13
M  V30 13 2 13 14
M  V30 14 1 14 15
M  V30 15 3 15 16
M  V30 16 1 14 17
M  V30 17 2 17 18
M  V30 18 1 9 19
M  V30 19 2 19 20
M  V30 20 1 20 21
M  V30 21 1 21 22
M  V30 22 1 22 23
M  V30 23 1 23 24
M  V30 24 1 24 25
M  V30 25 1 25 26
M  V30 26 1 26 27
M  V30 27 1 27 28
M  V30 28 1 5 29
M  V30 29 1 29 2
M  V30 30 1 20 6
M  V30 31 1 28 23
M  V30 32 1 18 11
M  V30 33 1 1 30
M  V30 34 1 1 31
M  V30 35 1 1 32
M  V30 36 1 3 33
M  V30 37 1 7 34
M  V30 38 1 10 35
M  V30 39 1 12 36
M  V30 40 1 17 37
M  V30 41 1 19 38
M  V30 42 1 21 39
M  V30 43 1 22 40
M  V30 44 1 22 41
M  V30 45 1 23 42 CFG=3
M  V30 46 1 24 43
M  V30 47 1 24 44
M  V30 48 1 25 45
M  V30 49 1 26 46
M  V30 50 1 26 47
M  V30 51 1 27 48
M  V30 52 1 27 49
M  V30 END BOND
M  V30 END CTAB
M  END
>  <Dataset>  (65) 
ChEMBL_Kinases

>  <Ligand_Instance>  (65) 
nan

>  <PDB_ID>  (65) 
nan

>  <Standardized_SMILES>  (65) 
Cc1cnc(-c2cnc(Nc3cnc(C#N)cn3)cc2NC[C@H]2CNCCO2)s1

>  <Name>  (65) 
nan

>  <Pocket>  (65) 
nan

>  <ATP_Site>  (65) 
nan

>  <Peripheral>  (65) 
nan

>  <Num_H_Atoms_ProtBoundConf>  (65) 
nan

>  <Num_Resolved_Atoms>  (65) 
nan

>  <Num_Not_Resolved_Atoms>  (65) 
nan

$$$$
CHEMBL4742283
     RDKit          3D

  0  0  0  0  0  0  0  0  0  0999 V3000
M  V30 BEGIN CTAB
M  V30 COUNTS 53 57 0 0 0
M  V30 BEGIN ATOM
M  V30 1 O -1.201528 -2.846798 0.801450 0
M  V30 2 C -1.015339 -3.375343 1.949908 0
M  V30 3 N -0.568726 -2.558071 3.004373 0
M  V30 4 C -0.387405 -1.154464 2.570837 0
M  V30 5 N 0.545504 -0.566811 2.111296 0
M  V30 6 C 0.575358 0.702687 1.764202 0
M  V30 7 C 1.808122 1.244180 1.204278 0
M  V30 8 C 2.440349 2.409778 1.563379 0
M  V30 9 C 3.590886 2.892302 1.007804 0
M  V30 10 C 4.196057 2.173773 -0.001758 0
M  V30 11 N 3.634523 1.021359 -0.406838 0
M  V30 12 C 2.500956 0.590393 0.173191 0
M  V30 13 C -0.553098 1.412518 1.942392 0
M  V30 14 C -0.975374 2.811950 1.702181 0
M  V30 15 N -1.219759 3.080570 0.302463 0
M  V30 16 C -2.248710 2.267592 -0.261706 0
M  V30 17 C -2.212110 2.532460 -1.772790 0
M  V30 18 O -2.659189 3.835132 -1.941542 0
M  V30 19 C -1.854809 4.769295 -1.321581 0
M  V30 20 C -1.633490 4.465136 0.142101 0
M  V30 21 S -1.646563 0.121610 2.641192 0
M  V30 22 C -1.253703 -4.833612 2.223263 0
M  V30 23 C -0.115187 -5.486971 2.916498 0
M  V30 24 O 0.469581 -6.485127 2.138458 0
M  V30 25 C 0.402177 -6.407211 0.760175 0
M  V30 26 C 1.444109 -6.846264 -0.051905 0
M  V30 27 C 1.324186 -6.744929 -1.435520 0
M  V30 28 C 0.210458 -6.224258 -2.058238 0
M  V30 29 C -0.825000 -5.787298 -1.267681 0
M  V30 30 C -0.715014 -5.884241 0.115893 0
M  V30 31 O -1.685918 -5.480804 1.040000 0
M  V30 32 H -0.384922 -2.883820 3.970623 0
M  V30 33 H 2.014823 3.000003 2.347778 0
M  V30 34 H 4.034124 3.806713 1.332102 0
M  V30 35 H 5.105425 2.562518 -0.434794 0
M  V30 36 H 2.105492 -0.360862 -0.215520 0
M  V30 37 H -1.954690 2.940562 2.260057 0
M  V30 38 H -0.277912 3.467320 2.197406 0
M  V30 39 H -3.278512 2.625148 0.033502 0
M  V30 40 H -2.121653 1.188278 -0.164462 0
M  V30 41 H -2.968202 1.849526 -2.209540 0
M  V30 42 H -1.188555 2.350788 -2.137013 0
M  V30 43 H -0.893977 4.792568 -1.865920 0
M  V30 44 H -2.337377 5.752141 -1.391248 0
M  V30 45 H -0.874953 5.172678 0.519023 0
M  V30 46 H -2.609024 4.568272 0.658631 0
M  V30 47 H -2.151849 -4.869916 2.907687 0
M  V30 48 H -0.495093 -5.997837 3.842312 0
M  V30 49 H 0.647124 -4.769402 3.298351 0
M  V30 50 H 2.347055 -7.265727 0.380258 0
M  V30 51 H 2.140966 -7.090241 -2.033477 0
M  V30 52 H 0.097917 -6.137405 -3.126650 0
M  V30 53 H -1.741485 -5.363820 -1.657275 0
M  V30 END ATOM
M  V30 BEGIN BOND
M  V30 1 2 1 2
M  V30 2 1 2 3
M  V30 3 1 3 4
M  V30 4 2 4 5
M  V30 5 1 5 6
M  V30 6 1 6 7
M  V30 7 2 7 8
M  V30 8 1 8 9
M  V30 9 2 9 10
M  V30 10 1 10 11
M  V30 11 2 11 12
M  V30 12 2 6 13
M  V30 13 1 13 14
M  V30 14 1 14 15
M  V30 15 1 15 16
M  V30 16 1 16 17
M  V30 17 1 17 18
M  V30 18 1 18 19
M  V30 19 1 19 20
M  V30 20 1 13 21
M  V30 21 1 2 22
M  V30 22 1 22 23
M  V30 23 1 23 24
M  V30 24 1 24 25
M  V30 25 2 25 26
M  V30 26 1 26 27
M  V30 27 2 27 28
M  V30 28 1 28 29
M  V30 29 2 29 30
M  V30 30 1 30 31
M  V30 31 1 21 4
M  V30 32 1 31 22
M  V30 33 1 12 7
M  V30 34 1 20 15
M  V30 35 1 30 25
M  V30 36 1 3 32
M  V30 37 1 8 33
M  V30 38 1 9 34
M  V30 39 1 10 35
M  V30 40 1 12 36
M  V30 41 1 14 37
M  V30 42 1 14 38
M  V30 43 1 16 39
M  V30 44 1 16 40
M  V30 45 1 17 41
M  V30 46 1 17 42
M  V30 47 1 19 43
M  V30 48 1 19 44
M  V30 49 1 20 45
M  V30 50 1 20 46
M  V30 51 1 22 47
M  V30 52 1 23 48
M  V30 53 1 23 49
M  V30 54 1 26 50
M  V30 55 1 27 51
M  V30 56 1 28 52
M  V30 57 1 29 53
M  V30 END BOND
M  V30 END CTAB
M  END
>  <Dataset>  (66) 
ChEMBL_Kinases

>  <Ligand_Instance>  (66) 
nan

>  <PDB_ID>  (66) 
nan

>  <Standardized_SMILES>  (66) 
O=C(Nc1nc(-c2cccnc2)c(CN2CCOCC2)s1)C1COc2ccccc2O1

>  <Name>  (66) 
nan

>  <Pocket>  (66) 
nan

>  <ATP_Site>  (66) 
nan

>  <Peripheral>  (66) 
nan

>  <Num_H_Atoms_ProtBoundConf>  (66) 
nan

>  <Num_Resolved_Atoms>  (66) 
nan

>  <Num_Not_Resolved_Atoms>  (66) 
nan

$$$$
CHEMBL4742355
     RDKit          3D

  0  0  0  0  0  0  0  0  0  0999 V3000
M  V30 BEGIN CTAB
M  V30 COUNTS 34 37 0 0 0
M  V30 BEGIN ATOM
M  V30 1 O 0.804280 -2.460046 1.893105 0
M  V30 2 C 0.980398 -1.511541 1.090977 0
M  V30 3 C 1.983707 -0.615022 1.331951 0
M  V30 4 C 2.777278 -0.790986 2.467238 0
M  V30 5 C 3.796129 0.142955 2.686817 0
M  V30 6 F 4.566468 -0.032183 3.793486 0
M  V30 7 C 4.064449 1.215714 1.862146 0
M  V30 8 C 3.258373 1.366130 0.739199 0
M  V30 9 C 2.256901 0.457213 0.513653 0
M  V30 10 N 1.468587 0.580309 -0.558947 0
M  V30 11 C 1.437473 1.474327 -1.550363 0
M  V30 12 S 2.334999 2.785693 -1.878507 0
M  V30 13 N 0.451708 1.160274 -2.392112 0
M  V30 14 N -0.141953 0.061610 -1.928218 0
M  V30 15 C 0.486722 -0.308374 -0.782683 0
M  V30 16 N 0.199377 -1.364475 0.001502 0
M  V30 17 C -0.877003 -2.291901 -0.293739 0
M  V30 18 C -2.162020 -1.884540 0.312895 0
M  V30 19 C -3.010399 -1.061088 -0.429937 0
M  V30 20 C -4.191995 -0.698179 0.151926 0
M  V30 21 C -4.558850 -1.112683 1.419554 0
M  V30 22 C -3.726683 -1.921295 2.150038 0
M  V30 23 C -2.517659 -2.300363 1.570618 0
M  V30 24 H 2.600128 -1.612379 3.132457 0
M  V30 25 H 4.882189 1.883037 2.126187 0
M  V30 26 H 3.509532 2.213314 0.134808 0
M  V30 27 H 0.078182 1.582599 -3.288862 0
M  V30 28 H -1.029419 -2.397587 -1.399288 0
M  V30 29 H -0.603665 -3.303106 0.070479 0
M  V30 30 H -2.790266 -0.697330 -1.427810 0
M  V30 31 H -4.951227 -0.062542 -0.303994 0
M  V30 32 H -5.499279 -0.839286 1.914503 0
M  V30 33 H -3.988343 -2.265123 3.153515 0
M  V30 34 H -1.889725 -2.936632 2.175647 0
M  V30 END ATOM
M  V30 BEGIN BOND
M  V30 1 2 1 2
M  V30 2 1 2 3
M  V30 3 2 3 4
M  V30 4 1 4 5
M  V30 5 1 5 6
M  V30 6 2 5 7
M  V30 7 1 7 8
M  V30 8 2 8 9
M  V30 9 1 9 10
M  V30 10 1 10 11
M  V30 11 2 11 12
M  V30 12 1 11 13
M  V30 13 1 13 14
M  V30 14 2 14 15
M  V30 15 1 15 16
M  V30 16 1 16 17
M  V30 17 1 17 18
M  V30 18 2 18 19
M  V30 19 1 19 20
M  V30 20 2 20 21
M  V30 21 1 21 22
M  V30 22 2 22 23
M  V30 23 1 16 2
M  V30 24 1 23 18
M  V30 25 1 9 3
M  V30 26 1 15 10
M  V30 27 1 4 24
M  V30 28 1 7 25
M  V30 29 1 8 26
M  V30 30 1 13 27
M  V30 31 1 17 28
M  V30 32 1 17 29
M  V30 33 1 19 30
M  V30 34 1 20 31
M  V30 35 1 21 32
M  V30 36 1 22 33
M  V30 37 1 23 34
M  V30 END BOND
M  V30 END CTAB
M  END
>  <Dataset>  (67) 
ChEMBL_Kinases

>  <Ligand_Instance>  (67) 
nan

>  <PDB_ID>  (67) 
nan

>  <Standardized_SMILES>  (67) 
O=c1c2cc(F)ccc2n2c(=S)[nH]nc2n1Cc1ccccc1

>  <Name>  (67) 
nan

>  <Pocket>  (67) 
nan

>  <ATP_Site>  (67) 
nan

>  <Peripheral>  (67) 
nan

>  <Num_H_Atoms_ProtBoundConf>  (67) 
nan

>  <Num_Resolved_Atoms>  (67) 
nan

>  <Num_Not_Resolved_Atoms>  (67) 
nan

$$$$
CHEMBL4742776
     RDKit          3D

  0  0  0  0  0  0  0  0  0  0999 V3000
M  V30 BEGIN CTAB
M  V30 COUNTS 47 50 0 0 0
M  V30 BEGIN ATOM
M  V30 1 N 0.823236 -4.574040 3.935826 0
M  V30 2 C 0.511238 -3.478589 3.040326 0
M  V30 3 N 1.742900 -3.026986 2.634189 0
M  V30 4 C 1.805578 -1.974179 1.763708 0
M  V30 5 C 0.630856 -1.403876 1.325205 0
M  V30 6 C 0.494922 -0.280933 0.401252 0
M  V30 7 C -0.508450 0.013831 -0.527778 0
M  V30 8 N -0.156497 1.163324 -1.125769 0
M  V30 9 N 0.981575 1.640371 -0.670347 0
M  V30 10 C 1.593978 2.868156 -1.141455 0
M  V30 11 C 3.092289 2.677042 -1.274663 0
M  V30 12 C 3.661140 4.088306 -1.461645 0
M  V30 13 N 3.617884 4.723907 -0.166898 0
M  V30 14 C 2.397581 4.529212 0.552356 0
M  V30 15 C 1.247885 4.071698 -0.319888 0
M  V30 16 C 1.389816 0.765330 0.264454 0
M  V30 17 C -0.590655 -1.874467 1.746969 0
M  V30 18 C -0.721652 -2.928910 2.620231 0
M  V30 19 O -1.632374 -3.687177 3.271245 0
M  V30 20 C -3.012981 -3.586438 3.217505 0
M  V30 21 C -3.553478 -3.808588 1.877183 0
M  V30 22 C -3.690134 -5.187551 1.653773 0
M  V30 23 C -4.202435 -5.687176 0.452819 0
M  V30 24 N -4.579897 -4.825743 -0.527725 0
M  V30 25 N -4.444478 -3.545400 -0.298861 0
M  V30 26 C -3.961707 -3.021776 0.829450 0
M  V30 27 H 0.838061 -5.518192 3.464525 0
M  V30 28 H 1.022116 -4.477027 4.965001 0
M  V30 29 H 2.673958 -1.505651 1.353372 0
M  V30 30 H -1.370481 -0.620407 -0.671462 0
M  V30 31 H 1.245529 3.071899 -2.190562 0
M  V30 32 H 3.535309 2.210098 -0.387622 0
M  V30 33 H 3.345830 2.133260 -2.204594 0
M  V30 34 H 3.019540 4.633151 -2.182889 0
M  V30 35 H 4.706187 3.965055 -1.769315 0
M  V30 36 H 4.407955 4.410714 0.409313 0
M  V30 37 H 2.507963 3.874735 1.454828 0
M  V30 38 H 2.079513 5.527166 0.963492 0
M  V30 39 H 0.388754 3.882072 0.352154 0
M  V30 40 H 1.012359 4.949796 -0.972245 0
M  V30 41 H 2.306572 0.899201 0.815956 0
M  V30 42 H -1.590223 -1.549258 1.514597 0
M  V30 43 H -3.344727 -2.539227 3.521068 0
M  V30 44 H -3.519838 -4.221056 3.993741 0
M  V30 45 H -3.440027 -6.010463 2.323162 0
M  V30 46 H -4.331530 -6.730138 0.221544 0
M  V30 47 H -3.838876 -1.979348 1.076073 0
M  V30 END ATOM
M  V30 BEGIN BOND
M  V30 1 1 1 2
M  V30 2 2 2 3
M  V30 3 1 3 4
M  V30 4 2 4 5
M  V30 5 1 5 6
M  V30 6 1 6 7
M  V30 7 2 7 8
M  V30 8 1 8 9
M  V30 9 1 9 10
M  V30 10 1 10 11
M  V30 11 1 11 12
M  V30 12 1 12 13
M  V30 13 1 13 14
M  V30 14 1 14 15
M  V30 15 1 9 16
M  V30 16 1 5 17
M  V30 17 2 17 18
M  V30 18 1 18 19
M  V30 19 1 19 20
M  V30 20 1 20 21
M  V30 21 2 21 22
M  V30 22 1 22 23
M  V30 23 2 23 24
M  V30 24 1 24 25
M  V30 25 2 25 26
M  V30 26 1 18 2
M  V30 27 1 26 21
M  V30 28 2 16 6
M  V30 29 1 15 10
M  V30 30 1 1 27
M  V30 31 1 1 28
M  V30 32 1 4 29
M  V30 33 1 7 30
M  V30 34 1 10 31
M  V30 35 1 11 32
M  V30 36 1 11 33
M  V30 37 1 12 34
M  V30 38 1 12 35
M  V30 39 1 13 36
M  V30 40 1 14 37
M  V30 41 1 14 38
M  V30 42 1 15 39
M  V30 43 1 15 40
M  V30 44 1 16 41
M  V30 45 1 17 42
M  V30 46 1 20 43
M  V30 47 1 20 44
M  V30 48 1 22 45
M  V30 49 1 23 46
M  V30 50 1 26 47
M  V30 END BOND
M  V30 END CTAB
M  END
>  <Dataset>  (68) 
ChEMBL_Kinases

>  <Ligand_Instance>  (68) 
nan

>  <PDB_ID>  (68) 
nan

>  <Standardized_SMILES>  (68) 
Nc1ncc(-c2cnn(C3CCNCC3)c2)cc1OCc1ccnnc1

>  <Name>  (68) 
nan

>  <Pocket>  (68) 
nan

>  <ATP_Site>  (68) 
nan

>  <Peripheral>  (68) 
nan

>  <Num_H_Atoms_ProtBoundConf>  (68) 
nan

>  <Num_Resolved_Atoms>  (68) 
nan

>  <Num_Not_Resolved_Atoms>  (68) 
nan

$$$$
CHEMBL4742821
     RDKit          3D

  0  0  0  0  0  0  0  0  0  0999 V3000
M  V30 BEGIN CTAB
M  V30 COUNTS 48 51 0 0 0
M  V30 BEGIN ATOM
M  V30 1 O 3.010102 -0.002701 1.383967 0
M  V30 2 C 2.431102 -1.106304 1.340292 0
M  V30 3 C 3.402989 -2.020414 0.674854 0
M  V30 4 C 4.610152 -1.211886 0.367413 0
M  V30 5 C 4.557692 -0.610285 -0.888161 0
M  V30 6 C 5.610689 0.177862 -1.321450 0
M  V30 7 C 6.702271 0.342174 -0.469836 0
M  V30 8 O 7.772260 1.119038 -0.862262 0
M  V30 9 C 6.746075 -0.262252 0.782016 0
M  V30 10 C 5.690496 -1.049400 1.210525 0
M  V30 11 N 1.128789 -1.409515 1.823939 0
M  V30 12 C 0.355025 -0.363020 2.438229 0
M  V30 13 C 0.085908 0.791011 1.535529 0
M  V30 14 C -0.672079 0.498047 0.295922 0
M  V30 15 N -1.984351 -0.039262 0.456254 0
M  V30 16 C -3.018183 0.838833 0.553601 0
M  V30 17 O -2.776185 2.082940 0.501192 0
M  V30 18 C -4.321422 0.476236 0.706339 0
M  V30 19 C -5.314909 1.430604 0.797696 0
M  V30 20 C -6.599671 0.963422 0.950542 0
M  V30 21 F -7.570026 1.907653 1.039517 0
M  V30 22 C -6.945851 -0.369385 1.016352 0
M  V30 23 C -5.924642 -1.307181 0.921568 0
M  V30 24 C -4.636393 -0.863377 0.768802 0
M  V30 25 N -3.636252 -1.740934 0.675123 0
M  V30 26 C -3.628204 -3.059686 0.699735 0
M  V30 27 S -4.763008 -4.191315 0.848650 0
M  V30 28 N -2.355773 -3.474980 0.565322 0
M  V30 29 N -1.573774 -2.415198 0.457311 0
M  V30 30 C -2.386225 -1.320273 0.527145 0
M  V30 31 H 2.991527 -2.549688 -0.190401 0
M  V30 32 H 3.621971 -2.809981 1.437568 0
M  V30 33 H 3.739778 -0.703206 -1.586469 0
M  V30 34 H 5.660461 0.685533 -2.279425 0
M  V30 35 H 7.607477 2.049718 -1.210162 0
M  V30 36 H 7.597634 -0.128839 1.435947 0
M  V30 37 H 5.655793 -1.546561 2.163833 0
M  V30 38 H 0.963710 -2.440840 1.621719 0
M  V30 39 H 0.922136 0.003270 3.338853 0
M  V30 40 H -0.572833 -0.796467 2.862832 0
M  V30 41 H 1.052356 1.249464 1.226418 0
M  V30 42 H -0.422098 1.616506 2.112795 0
M  V30 43 H -0.067311 -0.192707 -0.355615 0
M  V30 44 H -0.760552 1.456481 -0.280739 0
M  V30 45 H -5.091745 2.495019 0.751083 0
M  V30 46 H -7.992757 -0.623912 1.138341 0
M  V30 47 H -6.271219 -2.316453 0.980839 0
M  V30 48 H -1.886908 -4.425001 0.531182 0
M  V30 END ATOM
M  V30 BEGIN BOND
M  V30 1 2 1 2
M  V30 2 1 2 3
M  V30 3 1 3 4
M  V30 4 2 4 5
M  V30 5 1 5 6
M  V30 6 2 6 7
M  V30 7 1 7 8
M  V30 8 1 7 9
M  V30 9 2 9 10
M  V30 10 1 2 11
M  V30 11 1 11 12
M  V30 12 1 12 13
M  V30 13 1 13 14
M  V30 14 1 14 15
M  V30 15 1 15 16
M  V30 16 2 16 17
M  V30 17 1 16 18
M  V30 18 2 18 19
M  V30 19 1 19 20
M  V30 20 1 20 21
M  V30 21 2 20 22
M  V30 22 1 22 23
M  V30 23 2 23 24
M  V30 24 1 24 25
M  V30 25 1 25 26
M  V30 26 2 26 27
M  V30 27 1 26 28
M  V30 28 1 28 29
M  V30 29 2 29 30
M  V30 30 1 10 4
M  V30 31 1 30 15
M  V30 32 1 24 18
M  V30 33 1 30 25
M  V30 34 1 3 31
M  V30 35 1 3 32
M  V30 36 1 5 33
M  V30 37 1 6 34
M  V30 38 1 8 35
M  V30 39 1 9 36
M  V30 40 1 10 37
M  V30 41 1 11 38
M  V30 42 1 12 39
M  V30 43 1 12 40
M  V30 44 1 13 41
M  V30 45 1 13 42
M  V30 46 1 14 43
M  V30 47 1 14 44
M  V30 48 1 19 45
M  V30 49 1 22 46
M  V30 50 1 23 47
M  V30 51 1 28 48
M  V30 END BOND
M  V30 END CTAB
M  END
>  <Dataset>  (69) 
ChEMBL_Kinases

>  <Ligand_Instance>  (69) 
nan

>  <PDB_ID>  (69) 
nan

>  <Standardized_SMILES>  (69) 
O=C(Cc1ccc(O)cc1)NCCCn1c(=O)c2cc(F)ccc2n2c(=S)[nH]nc12

>  <Name>  (69) 
nan

>  <Pocket>  (69) 
nan

>  <ATP_Site>  (69) 
nan

>  <Peripheral>  (69) 
nan

>  <Num_H_Atoms_ProtBoundConf>  (69) 
nan

>  <Num_Resolved_Atoms>  (69) 
nan

>  <Num_Not_Resolved_Atoms>  (69) 
nan

$$$$
CHEMBL4742954
     RDKit          3D

  0  0  0  0  0  0  0  0  0  0999 V3000
M  V30 BEGIN CTAB
M  V30 COUNTS 41 44 0 0 0
M  V30 BEGIN ATOM
M  V30 1 N 0.860660 -5.099023 1.499454 0
M  V30 2 C 1.187841 -3.785805 1.044936 0
M  V30 3 N 2.162110 -3.552951 0.165736 0
M  V30 4 C 2.468115 -2.315697 -0.252041 0
M  V30 5 N 3.463621 -1.933466 -1.182888 0
M  V30 6 C 3.345145 -1.370101 -2.513005 0
M  V30 7 C 2.703141 -0.016193 -2.453647 0
M  V30 8 C 1.377632 0.338093 -2.509805 0
M  V30 9 C 1.024405 1.665330 -2.440820 0
M  V30 10 C 1.910330 2.696154 -2.315770 0
M  V30 11 C 3.239409 2.345703 -2.258627 0
M  V30 12 C 3.621793 1.033064 -2.325398 0
M  V30 13 N 1.752509 -1.256204 0.244459 0
M  V30 14 C 0.765860 -1.542253 1.139772 0
M  V30 15 N -0.089702 -0.737693 1.778065 0
M  V30 16 C -0.921807 -1.420760 2.581953 0
M  V30 17 C -1.876518 -0.586347 3.295954 0
M  V30 18 C -3.251794 -0.802393 3.263908 0
M  V30 19 C -4.136494 0.013263 3.951675 0
M  V30 20 O -5.515247 -0.198757 3.923277 0
M  V30 21 C -3.621008 1.057948 4.678397 0
M  V30 22 C -2.277729 1.349257 4.769814 0
M  V30 23 O -1.694348 2.386282 5.484073 0
M  V30 24 C -1.456013 0.499778 4.063365 0
M  V30 25 N -0.561983 -2.706480 2.431949 0
M  V30 26 N 0.444380 -2.772081 1.570504 0
M  V30 27 H 1.584527 -5.726609 1.949063 0
M  V30 28 H 0.004620 -5.692189 1.519151 0
M  V30 29 H 4.382668 -2.134027 -0.742807 0
M  V30 30 H 2.650992 -2.051939 -3.061364 0
M  V30 31 H 4.322971 -1.325789 -3.005897 0
M  V30 32 H 0.723396 -0.514958 -2.607696 0
M  V30 33 H -0.039461 1.890288 -2.490025 0
M  V30 34 H 1.602613 3.730701 -2.262153 0
M  V30 35 H 3.955031 3.165966 -2.157289 0
M  V30 36 H 4.693728 0.872066 -2.270563 0
M  V30 37 H -3.637026 -1.635845 2.681392 0
M  V30 38 H -6.028610 -0.199237 3.050637 0
M  V30 39 H -4.293330 1.721013 5.234196 0
M  V30 40 H -0.918542 2.871227 5.012992 0
M  V30 41 H -0.375048 0.644612 4.070154 0
M  V30 END ATOM
M  V30 BEGIN BOND
M  V30 1 1 1 2
M  V30 2 2 2 3
M  V30 3 1 3 4
M  V30 4 1 4 5
M  V30 5 1 5 6
M  V30 6 1 6 7
M  V30 7 2 7 8
M  V30 8 1 8 9
M  V30 9 2 9 10
M  V30 10 1 10 11
M  V30 11 2 11 12
M  V30 12 2 4 13
M  V30 13 1 13 14
M  V30 14 2 14 15
M  V30 15 1 15 16
M  V30 16 1 16 17
M  V30 17 2 17 18
M  V30 18 1 18 19
M  V30 19 1 19 20
M  V30 20 2 19 21
M  V30 21 1 21 22
M  V30 22 1 22 23
M  V30 23 2 22 24
M  V30 24 2 16 25
M  V30 25 1 25 26
M  V30 26 1 26 2
M  V30 27 1 12 7
M  V30 28 1 26 14
M  V30 29 1 24 17
M  V30 30 1 1 27
M  V30 31 1 1 28
M  V30 32 1 5 29
M  V30 33 1 6 30
M  V30 34 1 6 31
M  V30 35 1 8 32
M  V30 36 1 9 33
M  V30 37 1 10 34
M  V30 38 1 11 35
M  V30 39 1 12 36
M  V30 40 1 18 37
M  V30 41 1 20 38
M  V30 42 1 21 39
M  V30 43 1 23 40
M  V30 44 1 24 41
M  V30 END BOND
M  V30 END CTAB
M  END
>  <Dataset>  (70) 
ChEMBL_Kinases

>  <Ligand_Instance>  (70) 
nan

>  <PDB_ID>  (70) 
nan

>  <Standardized_SMILES>  (70) 
Nc1nc(NCc2ccccc2)nc2nc(-c3cc(O)cc(O)c3)nn12

>  <Name>  (70) 
nan

>  <Pocket>  (70) 
nan

>  <ATP_Site>  (70) 
nan

>  <Peripheral>  (70) 
nan

>  <Num_H_Atoms_ProtBoundConf>  (70) 
nan

>  <Num_Resolved_Atoms>  (70) 
nan

>  <Num_Not_Resolved_Atoms>  (70) 
nan

$$$$
CHEMBL4742959
     RDKit          3D

  0  0  0  0  0  0  0  0  0  0999 V3000
M  V30 BEGIN CTAB
M  V30 COUNTS 52 56 0 0 0
M  V30 BEGIN ATOM
M  V30 1 O 0.420467 -2.382275 2.937851 0
M  V30 2 C 0.883790 -2.725291 1.798534 0
M  V30 3 N 2.287180 -2.567684 1.645174 0
M  V30 4 C 3.217437 -2.085090 2.602497 0
M  V30 5 C 3.033132 -0.689047 3.098176 0
M  V30 6 N 3.150113 0.256218 2.041977 0
M  V30 7 C 2.550606 0.771198 0.873502 0
M  V30 8 N 3.057638 1.706241 0.009605 0
M  V30 9 C 2.317697 2.079474 -1.018818 0
M  V30 10 C 1.066598 1.563913 -1.246695 0
M  V30 11 C 0.559939 0.625712 -0.378176 0
M  V30 12 C -0.776971 0.183802 -0.753318 0
M  V30 13 C -1.754168 0.430530 0.183112 0
M  V30 14 C -1.780191 1.046098 1.499505 0
M  V30 15 C -1.426878 2.382095 1.422256 0
M  V30 16 C -1.376682 3.195740 2.549116 0
M  V30 17 C -1.692390 2.637985 3.777951 0
M  V30 18 C -2.041609 1.315057 3.851879 0
M  V30 19 F -2.357127 0.716196 5.012177 0
M  V30 20 C -2.092203 0.505719 2.735864 0
M  V30 21 N -2.912770 -0.027277 -0.310401 0
M  V30 22 C -2.677813 -0.560082 -1.547015 0
M  V30 23 S -3.351106 -1.361993 -2.989306 0
M  V30 24 C -1.676545 -1.448651 -3.878551 0
M  V30 25 C -0.770087 -0.830676 -2.929679 0
M  V30 26 N -1.356876 -0.422654 -1.805940 0
M  V30 27 N 1.331197 0.270412 0.648723 0
M  V30 28 C -0.009855 -3.235828 0.770491 0
M  V30 29 C 0.354690 -3.628303 -0.492895 0
M  V30 30 C -0.499356 -4.117254 -1.443875 0
M  V30 31 C -1.850814 -4.239566 -1.140188 0
M  V30 32 Cl -2.885412 -4.877544 -2.402193 0
M  V30 33 C -2.251045 -3.849705 0.132492 0
M  V30 34 C -1.350948 -3.365467 1.048836 0
M  V30 35 H 2.613104 -2.859536 0.689027 0
M  V30 36 H 3.139542 -2.740858 3.524264 0
M  V30 37 H 4.254125 -2.202720 2.197453 0
M  V30 38 H 2.016284 -0.648331 3.589238 0
M  V30 39 H 3.780149 -0.536965 3.909023 0
M  V30 40 H 4.054729 0.806491 2.169636 0
M  V30 41 H 2.867027 2.826830 -1.606470 0
M  V30 42 H 0.593692 1.972391 -2.128040 0
M  V30 43 H -1.156530 2.945635 0.524986 0
M  V30 44 H -1.108190 4.242596 2.545859 0
M  V30 45 H -1.656297 3.262302 4.661271 0
M  V30 46 H -2.350785 -0.540828 2.673472 0
M  V30 47 H -1.404904 -1.871611 -4.902190 0
M  V30 48 H 0.237853 -0.807940 -3.303885 0
M  V30 49 H 1.394701 -3.548646 -0.768470 0
M  V30 50 H -0.128559 -4.405247 -2.422732 0
M  V30 51 H -3.311368 -3.959265 0.332618 0
M  V30 52 H -1.809872 -3.102847 1.995961 0
M  V30 END ATOM
M  V30 BEGIN BOND
M  V30 1 2 1 2
M  V30 2 1 2 3
M  V30 3 1 3 4
M  V30 4 1 4 5
M  V30 5 1 5 6
M  V30 6 1 6 7
M  V30 7 2 7 8
M  V30 8 1 8 9
M  V30 9 2 9 10
M  V30 10 1 10 11
M  V30 11 1 11 12
M  V30 12 2 12 13
M  V30 13 1 13 14
M  V30 14 2 14 15
M  V30 15 1 15 16
M  V30 16 2 16 17
M  V30 17 1 17 18
M  V30 18 1 18 19
M  V30 19 2 18 20
M  V30 20 1 13 21
M  V30 21 2 21 22
M  V30 22 1 22 23
M  V30 23 1 23 24
M  V30 24 2 24 25
M  V30 25 1 25 26
M  V30 26 2 11 27
M  V30 27 1 2 28
M  V30 28 2 28 29
M  V30 29 1 29 30
M  V30 30 2 30 31
M  V30 31 1 31 32
M  V30 32 1 31 33
M  V30 33 2 33 34
M  V30 34 1 27 7
M  V30 35 1 34 28
M  V30 36 1 26 12
M  V30 37 1 20 14
M  V30 38 1 26 22
M  V30 39 1 3 35
M  V30 40 1 4 36
M  V30 41 1 4 37
M  V30 42 1 5 38
M  V30 43 1 5 39
M  V30 44 1 6 40
M  V30 45 1 9 41
M  V30 46 1 10 42
M  V30 47 1 15 43
M  V30 48 1 16 44
M  V30 49 1 17 45
M  V30 50 1 20 46
M  V30 51 1 24 47
M  V30 52 1 25 48
M  V30 53 1 29 49
M  V30 54 1 30 50
M  V30 55 1 33 51
M  V30 56 1 34 52
M  V30 END BOND
M  V30 END CTAB
M  END
>  <Dataset>  (71) 
ChEMBL_Kinases

>  <Ligand_Instance>  (71) 
nan

>  <PDB_ID>  (71) 
nan

>  <Standardized_SMILES>  (71) 
O=C(NCCNc1nccc(-c2c(-c3cccc(F)c3)nc3sccn23)n1)c1ccc(Cl)cc1

>  <Name>  (71) 
nan

>  <Pocket>  (71) 
nan

>  <ATP_Site>  (71) 
nan

>  <Peripheral>  (71) 
nan

>  <Num_H_Atoms_ProtBoundConf>  (71) 
nan

>  <Num_Resolved_Atoms>  (71) 
nan

>  <Num_Not_Resolved_Atoms>  (71) 
nan

$$$$
CHEMBL4742980
     RDKit          3D

  0  0  0  0  0  0  0  0  0  0999 V3000
M  V30 BEGIN CTAB
M  V30 COUNTS 65 69 0 0 0
M  V30 BEGIN ATOM
M  V30 1 O 2.363154 1.560356 5.418502 0
M  V30 2 S 1.908905 1.990107 4.193449 0
M  V30 3 O 0.472625 2.812836 5.265672 0
M  V30 4 N 0.531640 1.267806 3.418385 0
M  V30 5 C -0.381632 0.610238 4.339905 0
M  V30 6 C -1.681453 0.455990 3.779806 0
M  V30 7 C -1.757622 0.441260 2.274572 0
M  V30 8 N -1.152820 1.686515 1.599097 0
M  V30 9 C -0.490545 1.305009 0.279948 0
M  V30 10 C -0.400921 -0.024294 0.076057 0
M  V30 11 C -0.450097 -0.358263 -1.247725 0
M  V30 12 C -0.717608 -1.713986 -1.677892 0
M  V30 13 N -1.799108 -2.408719 -1.063449 0
M  V30 14 C -1.899666 -3.697751 -1.662468 0
M  V30 15 C -2.906850 -4.495811 -0.919301 0
M  V30 16 C -2.630453 -5.223143 0.164835 0
M  V30 17 C -3.510833 -5.685257 0.878966 0
M  V30 18 C -4.765949 -5.677855 0.830874 0
M  V30 19 C -5.221384 -4.946887 -0.296463 0
M  V30 20 C -4.254957 -4.347186 -1.212355 0
M  V30 21 N -0.950844 -3.763556 -2.491880 0
M  V30 22 C -0.216512 -2.568119 -2.494098 0
M  V30 23 C 1.111050 -2.637218 -3.195019 0
M  V30 24 C 1.210250 -3.259661 -4.390124 0
M  V30 25 C 2.455850 -3.802788 -4.547975 0
M  V30 26 C 3.502673 -3.779825 -3.659492 0
M  V30 27 C 3.294234 -3.119379 -2.423848 0
M  V30 28 O 4.323815 -3.135674 -1.460791 0
M  V30 29 C 2.081411 -2.571536 -2.296119 0
M  V30 30 C -0.523743 0.587246 -2.217278 0
M  V30 31 C -0.623110 1.903065 -1.900303 0
M  V30 32 N -0.621027 2.367530 -0.560624 0
M  V30 33 C 2.054880 3.622808 3.521415 0
M  V30 34 C 1.871657 3.494494 2.094850 0
M  V30 35 C 1.936293 4.557426 1.143543 0
M  V30 36 C 2.181812 5.682411 1.853259 0
M  V30 37 C 2.337820 5.848037 3.146701 0
M  V30 38 F 2.786444 7.048212 3.663436 0
M  V30 39 C 2.304153 4.814973 4.006536 0
M  V30 40 H 1.084464 0.506754 2.836775 0
M  V30 41 H 0.036544 -0.608672 3.874158 0
M  V30 42 H 0.010432 0.273873 5.250962 0
M  V30 43 H -2.130237 1.493783 4.158883 0
M  V30 44 H -2.365279 -0.241064 4.237127 0
M  V30 45 H -2.959323 0.752788 2.074779 0
M  V30 46 H -1.657495 -0.442698 1.731283 0
M  V30 47 H -1.222677 2.652270 1.981762 0
M  V30 48 H -0.197709 -0.700493 0.822135 0
M  V30 49 H -2.380593 -1.970638 -0.255941 0
M  V30 50 H -1.549628 -5.390551 0.353793 0
M  V30 51 H -3.174437 -6.292077 1.786332 0
M  V30 52 H -5.609235 -5.974581 1.414321 0
M  V30 53 H -6.280695 -4.730421 -0.532557 0
M  V30 54 H -4.601953 -3.865611 -2.110249 0
M  V30 55 H 0.456712 -3.179543 -5.094980 0
M  V30 56 H 2.676548 -4.289510 -5.522620 0
M  V30 57 H 4.408608 -4.385858 -3.873658 0
M  V30 58 H 4.027550 -3.341451 -0.529138 0
M  V30 59 H 1.970456 -1.988335 -1.344626 0
M  V30 60 H -0.536486 0.264716 -3.262171 0
M  V30 61 H -0.683096 2.695198 -2.637837 0
M  V30 62 H 1.766640 2.476009 1.626811 0
M  V30 63 H 1.806346 4.399951 0.097920 0
M  V30 64 H 2.226277 6.606300 1.226710 0
M  V30 65 H 2.425674 4.832643 5.062206 0
M  V30 END ATOM
M  V30 BEGIN BOND
M  V30 1 2 1 2
M  V30 2 2 2 3
M  V30 3 1 2 4
M  V30 4 1 4 5
M  V30 5 1 5 6
M  V30 6 1 6 7
M  V30 7 1 7 8
M  V30 8 1 8 9
M  V30 9 2 9 10
M  V30 10 1 10 11
M  V30 11 1 11 12
M  V30 12 1 12 13
M  V30 13 1 13 14
M  V30 14 1 14 15
M  V30 15 2 15 16
M  V30 16 1 16 17
M  V30 17 2 17 18
M  V30 18 1 18 19
M  V30 19 2 19 20
M  V30 20 2 14 21
M  V30 21 1 21 22
M  V30 22 1 22 23
M  V30 23 2 23 24
M  V30 24 1 24 25
M  V30 25 2 25 26
M  V30 26 1 26 27
M  V30 27 1 27 28
M  V30 28 2 27 29
M  V30 29 2 11 30
M  V30 30 1 30 31
M  V30 31 2 31 32
M  V30 32 1 2 33
M  V30 33 2 33 34
M  V30 34 1 34 35
M  V30 35 2 35 36
M  V30 36 1 36 37
M  V30 37 1 37 38
M  V30 38 2 37 39
M  V30 39 1 32 9
M  V30 40 1 39 33
M  V30 41 2 22 12
M  V30 42 1 29 23
M  V30 43 1 20 15
M  V30 44 1 4 40
M  V30 45 1 5 41
M  V30 46 1 5 42
M  V30 47 1 6 43
M  V30 48 1 6 44
M  V30 49 1 7 45
M  V30 50 1 7 46
M  V30 51 1 8 47
M  V30 52 1 10 48
M  V30 53 1 13 49
M  V30 54 1 16 50
M  V30 55 1 17 51
M  V30 56 1 18 52
M  V30 57 1 19 53
M  V30 58 1 20 54
M  V30 59 1 24 55
M  V30 60 1 25 56
M  V30 61 1 26 57
M  V30 62 1 28 58
M  V30 63 1 29 59
M  V30 64 1 30 60
M  V30 65 1 31 61
M  V30 66 1 34 62
M  V30 67 1 35 63
M  V30 68 1 36 64
M  V30 69 1 39 65
M  V30 END BOND
M  V30 END CTAB
M  END
>  <Dataset>  (72) 
ChEMBL_Kinases

>  <Ligand_Instance>  (72) 
nan

>  <PDB_ID>  (72) 
nan

>  <Standardized_SMILES>  (72) 
O=S(=O)(NCCCNc1cc(-c2[nH]c(-c3ccccc3)nc2-c2cccc(O)c2)ccn1)c1cccc(F)c1

>  <Name>  (72) 
nan

>  <Pocket>  (72) 
nan

>  <ATP_Site>  (72) 
nan

>  <Peripheral>  (72) 
nan

>  <Num_H_Atoms_ProtBoundConf>  (72) 
nan

>  <Num_Resolved_Atoms>  (72) 
nan

>  <Num_Not_Resolved_Atoms>  (72) 
nan

$$$$
CHEMBL4743058
     RDKit          3D

  0  0  0  0  0  0  0  0  0  0999 V3000
M  V30 BEGIN CTAB
M  V30 COUNTS 113 119 0 0 0
M  V30 BEGIN ATOM
M  V30 1 C 6.125581 1.327284 3.775086 0
M  V30 2 C 4.629080 1.187114 3.364440 0
M  V30 3 C 3.957562 0.487266 4.527305 0
M  V30 4 C 4.619516 0.392793 2.144798 0
M  V30 5 C 5.397603 -0.769247 2.075062 0
M  V30 6 C 5.295566 -1.338792 0.825278 0
M  V30 7 N 4.464221 -0.532734 0.145025 0
M  V30 8 N 4.047804 -0.655570 -1.080030 0
M  V30 9 C 3.199062 0.249743 -1.585925 0
M  V30 10 N 2.767201 1.291837 -0.840545 0
M  V30 11 C 3.188880 1.433807 0.427426 0
M  V30 12 N 2.677689 2.502433 1.172519 0
M  V30 13 C 1.747268 3.349442 0.503480 0 CFG=1
M  V30 14 C 1.091946 4.415098 1.359689 0
M  V30 15 C -0.087048 4.943039 0.581740 0
M  V30 16 C -0.123515 4.525713 -0.854254 0 CFG=1
M  V30 17 N -1.117012 5.356043 -1.531779 0
M  V30 18 C -1.231592 5.053002 -2.930513 0
M  V30 19 C -2.603372 4.471835 -3.302303 0
M  V30 20 N -2.839157 3.380715 -2.388083 0
M  V30 21 C -2.845848 2.095793 -2.952879 0
M  V30 22 O -2.619156 2.244670 -4.184535 0
M  V30 23 C -3.070305 0.754395 -2.302253 0
M  V30 24 C -2.867202 -0.258993 -3.377803 0
M  V30 25 O -3.033036 -1.582940 -2.976972 0
M  V30 26 C -2.787585 -2.342589 -4.117080 0
M  V30 27 C -2.917654 -3.833733 -3.871501 0
M  V30 28 O -2.662181 -4.574147 -4.983068 0
M  V30 29 C -1.409809 -4.599999 -5.498647 0
M  V30 30 C -0.333561 -5.274565 -4.748983 0
M  V30 31 O 0.065011 -4.928469 -3.527788 0
M  V30 32 C 0.618065 -3.694918 -3.329333 0
M  V30 33 C 1.100768 -3.539672 -1.897544 0
M  V30 34 N 0.045516 -3.694338 -0.953443 0
M  V30 35 C 0.421165 -3.616157 0.427026 0
M  V30 36 C 1.736820 -3.406138 0.834142 0
M  V30 37 C 2.139935 -3.330251 2.144906 0
M  V30 38 C 1.194549 -3.468568 3.122795 0
M  V30 39 C -0.145371 -3.681735 2.815841 0
M  V30 40 C -0.461804 -3.744401 1.477974 0
M  V30 41 C -1.913322 -3.974982 1.450200 0
M  V30 42 O -2.682254 -4.106825 0.446571 0
M  V30 43 N -2.480845 -4.053111 2.764942 0
M  V30 44 C -3.838970 -4.268021 3.148776 0
M  V30 45 C -4.444674 -3.220512 4.017012 0
M  V30 46 C -5.942735 -3.408182 4.088571 0
M  V30 47 C -6.334273 -4.854291 3.936783 0
M  V30 48 O -7.530011 -5.128098 3.647285 0
M  V30 49 N -5.406937 -5.949147 4.106092 0
M  V30 50 C -4.030855 -5.579323 3.866124 0
M  V30 51 O -3.146569 -6.349205 4.257617 0
M  V30 52 C -1.367471 -3.868451 3.626295 0
M  V30 53 O -1.325894 -3.850788 4.884379 0
M  V30 54 C -3.026381 3.866587 -1.015892 0
M  V30 55 C -2.396752 5.210863 -0.916274 0
M  V30 56 C 1.246768 4.759669 -1.436850 0
M  V30 57 C 2.335130 4.126306 -0.664132 0
M  V30 58 C 4.057610 0.486127 0.902673 0
M  V30 59 H 6.651669 1.709426 2.903098 0
M  V30 60 H 6.111400 2.041648 4.623764 0
M  V30 61 H 6.439084 0.321410 4.127937 0
M  V30 62 H 4.345027 2.248239 3.274299 0
M  V30 63 H 3.226437 -0.302584 4.185422 0
M  V30 64 H 4.665900 -0.045401 5.187461 0
M  V30 65 H 3.323944 1.201282 5.116152 0
M  V30 66 H 6.019276 -1.222974 2.852066 0
M  V30 67 H 5.775712 -2.241290 0.459310 0
M  V30 68 H 2.832701 0.166322 -2.621307 0
M  V30 69 H 2.718193 2.938728 2.096975 0
M  V30 70 H 0.966880 2.686354 0.090594 0
M  V30 71 H 1.889533 5.199502 1.520379 0
M  V30 72 H 0.823342 4.046327 2.363336 0
M  V30 73 H 0.027840 6.067192 0.569417 0
M  V30 74 H -0.978150 4.695465 1.178601 0
M  V30 75 H -0.506755 3.490205 -1.031542 0
M  V30 76 H -0.520112 4.284813 -3.293858 0
M  V30 77 H -1.133702 6.011811 -3.477861 0
M  V30 78 H -3.399074 5.238200 -3.316194 0
M  V30 79 H -2.494313 4.151798 -4.361672 0
M  V30 80 H -2.417559 0.620885 -1.432233 0
M  V30 81 H -4.108653 0.640891 -1.939545 0
M  V30 82 H -3.538571 -0.027073 -4.236150 0
M  V30 83 H -1.818946 -0.156414 -3.741701 0
M  V30 84 H -3.660372 -2.094312 -4.810360 0
M  V30 85 H -1.908124 -2.053738 -4.684374 0
M  V30 86 H -2.218497 -4.114922 -3.087959 0
M  V30 87 H -3.971585 -4.063294 -3.556233 0
M  V30 88 H -1.495721 -5.139168 -6.498323 0
M  V30 89 H -1.057099 -3.575495 -5.793602 0
M  V30 90 H 0.590876 -5.204180 -5.437513 0
M  V30 91 H -0.571678 -6.392862 -4.793512 0
M  V30 92 H 1.509194 -3.584398 -4.016853 0
M  V30 93 H -0.070856 -2.877348 -3.520988 0
M  V30 94 H 1.896013 -4.286905 -1.727293 0
M  V30 95 H 1.545424 -2.504165 -1.822913 0
M  V30 96 H -0.970909 -3.857720 -1.101677 0
M  V30 97 H 2.479685 -3.297723 0.049809 0
M  V30 98 H 3.181401 -3.164505 2.388017 0
M  V30 99 H 1.486459 -3.412588 4.181127 0
M  V30 100 H -4.502183 -4.379791 2.239365 0
M  V30 101 H -4.220091 -2.172559 3.713373 0
M  V30 102 H -4.023097 -3.370557 5.046100 0
M  V30 103 H -6.322706 -3.111304 5.091719 0
M  V30 104 H -6.446441 -2.761532 3.343927 0
M  V30 105 H -5.723026 -6.916021 4.376572 0
M  V30 106 H -2.720978 3.140726 -0.253752 0
M  V30 107 H -4.124740 3.988328 -0.901542 0
M  V30 108 H -3.104196 5.924570 -1.441634 0
M  V30 109 H -2.459307 5.538090 0.143017 0
M  V30 110 H 1.374446 5.880624 -1.497086 0
M  V30 111 H 1.336980 4.414914 -2.490151 0
M  V30 112 H 2.929765 4.949938 -0.161032 0
M  V30 113 H 3.089500 3.563294 -1.230483 0
M  V30 END ATOM
M  V30 BEGIN BOND
M  V30 1 1 1 2
M  V30 2 1 2 3
M  V30 3 1 2 4
M  V30 4 1 4 5
M  V30 5 2 5 6
M  V30 6 1 6 7
M  V30 7 1 7 8
M  V30 8 2 8 9
M  V30 9 1 9 10
M  V30 10 2 10 11
M  V30 11 1 11 12
M  V30 12 1 12 13
M  V30 13 1 13 14
M  V30 14 1 14 15
M  V30 15 1 15 16
M  V30 16 1 16 17
M  V30 17 1 17 18
M  V30 18 1 18 19
M  V30 19 1 19 20
M  V30 20 1 20 21
M  V30 21 2 21 22
M  V30 22 1 21 23
M  V30 23 1 23 24
M  V30 24 1 24 25
M  V30 25 1 25 26
M  V30 26 1 26 27
M  V30 27 1 27 28
M  V30 28 1 28 29
M  V30 29 1 29 30
M  V30 30 1 30 31
M  V30 31 1 31 32
M  V30 32 1 32 33
M  V30 33 1 33 34
M  V30 34 1 34 35
M  V30 35 2 35 36
M  V30 36 1 36 37
M  V30 37 2 37 38
M  V30 38 1 38 39
M  V30 39 2 39 40
M  V30 40 1 40 41
M  V30 41 2 41 42
M  V30 42 1 41 43
M  V30 43 1 43 44
M  V30 44 1 44 45
M  V30 45 1 45 46
M  V30 46 1 46 47
M  V30 47 2 47 48
M  V30 48 1 47 49
M  V30 49 1 49 50
M  V30 50 2 50 51
M  V30 51 1 43 52
M  V30 52 2 52 53
M  V30 53 1 20 54
M  V30 54 1 54 55
M  V30 55 1 16 56
M  V30 56 1 56 57
M  V30 57 1 11 58
M  V30 58 2 58 4
M  V30 59 1 58 7
M  V30 60 1 57 13
M  V30 61 1 55 17
M  V30 62 1 40 35
M  V30 63 1 50 44
M  V30 64 1 52 39
M  V30 65 1 1 59
M  V30 66 1 1 60
M  V30 67 1 1 61
M  V30 68 1 2 62
M  V30 69 1 3 63
M  V30 70 1 3 64
M  V30 71 1 3 65
M  V30 72 1 5 66
M  V30 73 1 6 67
M  V30 74 1 9 68
M  V30 75 1 12 69
M  V30 76 1 13 70 CFG=3
M  V30 77 1 14 71
M  V30 78 1 14 72
M  V30 79 1 15 73
M  V30 80 1 15 74
M  V30 81 1 16 75 CFG=1
M  V30 82 1 18 76
M  V30 83 1 18 77
M  V30 84 1 19 78
M  V30 85 1 19 79
M  V30 86 1 23 80
M  V30 87 1 23 81
M  V30 88 1 24 82
M  V30 89 1 24 83
M  V30 90 1 26 84
M  V30 91 1 26 85
M  V30 92 1 27 86
M  V30 93 1 27 87
M  V30 94 1 29 88
M  V30 95 1 29 89
M  V30 96 1 30 90
M  V30 97 1 30 91
M  V30 98 1 32 92
M  V30 99 1 32 93
M  V30 100 1 33 94
M  V30 101 1 33 95
M  V30 102 1 34 96
M  V30 103 1 36 97
M  V30 104 1 37 98
M  V30 105 1 38 99
M  V30 106 1 44 100
M  V30 107 1 45 101
M  V30 108 1 45 102
M  V30 109 1 46 103
M  V30 110 1 46 104
M  V30 111 1 49 105
M  V30 112 1 54 106
M  V30 113 1 54 107
M  V30 114 1 55 108
M  V30 115 1 55 109
M  V30 116 1 56 110
M  V30 117 1 56 111
M  V30 118 1 57 112
M  V30 119 1 57 113
M  V30 END BOND
M  V30 END CTAB
M  END
>  <Dataset>  (73) 
ChEMBL_Kinases

>  <Ligand_Instance>  (73) 
nan

>  <PDB_ID>  (73) 
nan

>  <Standardized_SMILES>  (73) 
CC(C)c1ccn2ncnc(N[C@H]3CC[C@@H](N4CCN(C(=O)CCOCCOCCOCCNc5cccc6c5C(=O)N(C5CCC(=O)NC5=O)C6=O)CC4)CC3)c12

>  <Name>  (73) 
nan

>  <Pocket>  (73) 
nan

>  <ATP_Site>  (73) 
nan

>  <Peripheral>  (73) 
nan

>  <Num_H_Atoms_ProtBoundConf>  (73) 
nan

>  <Num_Resolved_Atoms>  (73) 
nan

>  <Num_Not_Resolved_Atoms>  (73) 
nan

$$$$
CHEMBL4743105
     RDKit          3D

  0  0  0  0  0  0  0  0  0  0999 V3000
M  V30 BEGIN CTAB
M  V30 COUNTS 56 60 0 0 0
M  V30 BEGIN ATOM
M  V30 1 C -0.266061 -2.126921 3.049029 0
M  V30 2 N 1.032897 -2.614038 3.254873 0
M  V30 3 C 1.857848 -1.962752 4.177855 0
M  V30 4 C 3.322895 -2.088867 3.981157 0
M  V30 5 N 3.717276 -2.733794 2.769008 0
M  V30 6 C 4.144600 -1.914748 1.707127 0
M  V30 7 C 3.188923 -0.930453 1.190179 0
M  V30 8 C 2.353664 -1.339430 0.155430 0
M  V30 9 C 1.436165 -0.449884 -0.367809 0
M  V30 10 C 1.293904 0.854651 0.085456 0
M  V30 11 C 0.284857 1.695157 -0.552636 0
M  V30 12 C 0.437473 3.071862 -0.678280 0
M  V30 13 N -0.528033 3.815985 -1.279558 0
M  V30 14 C -1.651315 3.253663 -1.768176 0
M  V30 15 N -2.724162 3.771386 -2.390682 0
M  V30 16 C -3.576837 2.771279 -2.676953 0
M  V30 17 C -3.077939 1.560063 -2.244075 0
M  V30 18 C -3.688489 0.238085 -2.358731 0
M  V30 19 C -4.282842 -0.209259 -3.541264 0
M  V30 20 C -4.851003 -1.477472 -3.596623 0
M  V30 21 C -4.848397 -2.323682 -2.506631 0
M  V30 22 C -4.269227 -1.911431 -1.323969 0
M  V30 23 C -4.252787 -2.771577 -0.174804 0
M  V30 24 N -4.234220 -3.464602 0.744431 0
M  V30 25 C -3.713374 -0.646540 -1.300771 0
M  V30 26 C -1.855882 1.872841 -1.668355 0
M  V30 27 C -0.878573 1.146582 -1.063747 0
M  V30 28 C 2.125108 1.254192 1.111752 0
M  V30 29 C 3.040109 0.370556 1.635204 0
M  V30 30 C 2.956621 -3.901476 2.442733 0
M  V30 31 C 1.481716 -3.703564 2.512440 0
M  V30 32 H -0.837502 -2.718414 2.337687 0
M  V30 33 H -0.893253 -2.085249 3.979429 0
M  V30 34 H -0.214424 -1.086248 2.636848 0
M  V30 35 H 1.594289 -2.313043 5.198876 0
M  V30 36 H 1.563042 -0.873000 4.187682 0
M  V30 37 H 3.794952 -1.099408 4.030248 0
M  V30 38 H 3.774484 -2.690713 4.812119 0
M  V30 39 H 4.501642 -2.527086 0.877557 0
M  V30 40 H 5.041360 -1.328300 2.058415 0
M  V30 41 H 2.423178 -2.340860 -0.233248 0
M  V30 42 H 0.809138 -0.834822 -1.180329 0
M  V30 43 H 1.347518 3.510460 -0.279920 0
M  V30 44 H -2.875134 4.783843 -2.617037 0
M  V30 45 H -4.538063 2.901734 -3.185529 0
M  V30 46 H -4.288156 0.443673 -4.391205 0
M  V30 47 H -5.320856 -1.837071 -4.523602 0
M  V30 48 H -5.285143 -3.316141 -2.526602 0
M  V30 49 H -3.266515 -0.370837 -0.333788 0
M  V30 50 H -0.992761 0.098486 -0.967171 0
M  V30 51 H 2.004348 2.256114 1.448486 0
M  V30 52 H 3.687068 0.692958 2.438948 0
M  V30 53 H 3.231609 -4.666130 3.228442 0
M  V30 54 H 3.268416 -4.256147 1.454607 0
M  V30 55 H 1.108041 -3.610494 1.457540 0
M  V30 56 H 1.011317 -4.644982 2.890784 0
M  V30 END ATOM
M  V30 BEGIN BOND
M  V30 1 1 1 2
M  V30 2 1 2 3
M  V30 3 1 3 4
M  V30 4 1 4 5
M  V30 5 1 5 6
M  V30 6 1 6 7
M  V30 7 2 7 8
M  V30 8 1 8 9
M  V30 9 2 9 10
M  V30 10 1 10 11
M  V30 11 2 11 12
M  V30 12 1 12 13
M  V30 13 2 13 14
M  V30 14 1 14 15
M  V30 15 1 15 16
M  V30 16 2 16 17
M  V30 17 1 17 18
M  V30 18 2 18 19
M  V30 19 1 19 20
M  V30 20 2 20 21
M  V30 21 1 21 22
M  V30 22 1 22 23
M  V30 23 3 23 24
M  V30 24 2 22 25
M  V30 25 1 17 26
M  V30 26 2 26 27
M  V30 27 1 10 28
M  V30 28 2 28 29
M  V30 29 1 5 30
M  V30 30 1 30 31
M  V30 31 1 31 2
M  V30 32 1 29 7
M  V30 33 1 27 11
M  V30 34 1 26 14
M  V30 35 1 25 18
M  V30 36 1 1 32
M  V30 37 1 1 33
M  V30 38 1 1 34
M  V30 39 1 3 35
M  V30 40 1 3 36
M  V30 41 1 4 37
M  V30 42 1 4 38
M  V30 43 1 6 39
M  V30 44 1 6 40
M  V30 45 1 8 41
M  V30 46 1 9 42
M  V30 47 1 12 43
M  V30 48 1 15 44
M  V30 49 1 16 45
M  V30 50 1 19 46
M  V30 51 1 20 47
M  V30 52 1 21 48
M  V30 53 1 25 49
M  V30 54 1 27 50
M  V30 55 1 28 51
M  V30 56 1 29 52
M  V30 57 1 30 53
M  V30 58 1 30 54
M  V30 59 1 31 55
M  V30 60 1 31 56
M  V30 END BOND
M  V30 END CTAB
M  END
>  <Dataset>  (74) 
ChEMBL_Kinases

>  <Ligand_Instance>  (74) 
nan

>  <PDB_ID>  (74) 
nan

>  <Standardized_SMILES>  (74) 
CN1CCN(Cc2ccc(-c3cnc4[nH]cc(-c5cccc(C#N)c5)c4c3)cc2)CC1

>  <Name>  (74) 
nan

>  <Pocket>  (74) 
nan

>  <ATP_Site>  (74) 
nan

>  <Peripheral>  (74) 
nan

>  <Num_H_Atoms_ProtBoundConf>  (74) 
nan

>  <Num_Resolved_Atoms>  (74) 
nan

>  <Num_Not_Resolved_Atoms>  (74) 
nan

$$$$
CHEMBL4742150
     RDKit          3D

  0  0  0  0  0  0  0  0  0  0999 V3000
M  V30 BEGIN CTAB
M  V30 COUNTS 62 66 0 0 0
M  V30 BEGIN ATOM
M  V30 1 C 3.632637 0.106719 7.767478 0
M  V30 2 N 2.895893 0.059432 6.524934 0
M  V30 3 C 2.717186 1.294938 5.866025 0
M  V30 4 C 3.222775 1.424577 4.475780 0
M  V30 5 N 3.255305 0.158903 3.744510 0
M  V30 6 C 1.910434 -0.256727 3.389672 0
M  V30 7 C 1.982508 -1.542458 2.620452 0
M  V30 8 O 2.747806 -1.380616 1.466657 0
M  V30 9 C 2.503585 -0.573753 0.399652 0
M  V30 10 C 3.583879 -0.755960 -0.483101 0
M  V30 11 C 3.676344 -0.081414 -1.702510 0
M  V30 12 C 2.658732 0.799328 -2.046842 0
M  V30 13 C 1.596924 0.983877 -1.188789 0
M  V30 14 C 0.465520 1.915531 -1.492466 0
M  V30 15 C -0.578889 1.153722 -2.271415 0
M  V30 16 O -0.063118 -0.015807 -2.358522 0
M  V30 17 N -1.800331 1.672131 -2.753061 0
M  V30 18 C -2.589521 0.670345 -3.479011 0
M  V30 19 N -3.352679 -0.080063 -3.155421 0
M  V30 20 C -4.087706 -0.990925 -3.735464 0
M  V30 21 C -5.059984 -1.859786 -3.118178 0
M  V30 22 C -5.542338 -1.682069 -1.819075 0
M  V30 23 N -6.415929 -2.635244 -1.477228 0
M  V30 24 C -6.570722 -3.501459 -2.513809 0
M  V30 25 N -7.296533 -4.607341 -2.695544 0
M  V30 26 C -7.260312 -5.316875 -3.853573 0
M  V30 27 C -6.430205 -4.828891 -4.830279 0
M  V30 28 F -6.427223 -5.571745 -5.971728 0
M  V30 29 C -5.680278 -3.688234 -4.646559 0
M  V30 30 C -5.735853 -2.990228 -3.469095 0
M  V30 31 C -3.774569 -0.955367 -5.171197 0
M  V30 32 S -2.557284 0.309517 -5.354773 0
M  V30 33 C 1.537624 0.310025 -0.007404 0
M  V30 34 C 3.967823 -0.830859 4.506253 0
M  V30 35 C 3.159229 -1.095933 5.742586 0
M  V30 36 H 4.718417 0.242557 7.544766 0
M  V30 37 H 3.456125 -0.845465 8.296013 0
M  V30 38 H 3.282972 0.976278 8.343865 0
M  V30 39 H 3.251533 2.083875 6.474026 0
M  V30 40 H 1.637427 1.610012 5.944599 0
M  V30 41 H 4.193321 1.925470 4.373114 0
M  V30 42 H 2.486309 2.053617 3.902841 0
M  V30 43 H 1.280835 -0.397187 4.301581 0
M  V30 44 H 1.465120 0.596339 2.861607 0
M  V30 45 H 0.920050 -1.853650 2.362097 0
M  V30 46 H 2.328149 -2.381150 3.248345 0
M  V30 47 H 4.479790 -1.396585 -0.405735 0
M  V30 48 H 4.439740 -0.141071 -2.441931 0
M  V30 49 H 2.589319 1.388304 -2.951442 0
M  V30 50 H 0.778376 2.747734 -2.151856 0
M  V30 51 H 0.068935 2.313894 -0.545827 0
M  V30 52 H -2.002566 2.663520 -2.557293 0
M  V30 53 H -5.250086 -0.859848 -1.140638 0
M  V30 54 H -6.894070 -2.690418 -0.554863 0
M  V30 55 H -7.864598 -6.209850 -3.962305 0
M  V30 56 H -5.082502 -3.441808 -5.471797 0
M  V30 57 H -4.194496 -1.566166 -6.053286 0
M  V30 58 H 0.750437 0.391697 0.691391 0
M  V30 59 H 4.952509 -0.421486 4.821931 0
M  V30 60 H 4.061351 -1.748177 3.920853 0
M  V30 61 H 2.252274 -1.704534 5.546946 0
M  V30 62 H 3.803419 -1.775432 6.377756 0
M  V30 END ATOM
M  V30 BEGIN BOND
M  V30 1 1 1 2
M  V30 2 1 2 3
M  V30 3 1 3 4
M  V30 4 1 4 5
M  V30 5 1 5 6
M  V30 6 1 6 7
M  V30 7 1 7 8
M  V30 8 1 8 9
M  V30 9 2 9 10
M  V30 10 1 10 11
M  V30 11 2 11 12
M  V30 12 1 12 13
M  V30 13 1 13 14
M  V30 14 1 14 15
M  V30 15 2 15 16
M  V30 16 1 15 17
M  V30 17 1 17 18
M  V30 18 2 18 19
M  V30 19 1 19 20
M  V30 20 1 20 21
M  V30 21 2 21 22
M  V30 22 1 22 23
M  V30 23 1 23 24
M  V30 24 2 24 25
M  V30 25 1 25 26
M  V30 26 2 26 27
M  V30 27 1 27 28
M  V30 28 1 27 29
M  V30 29 2 29 30
M  V30 30 2 20 31
M  V30 31 1 31 32
M  V30 32 2 13 33
M  V30 33 1 5 34
M  V30 34 1 34 35
M  V30 35 1 35 2
M  V30 36 1 33 9
M  V30 37 1 32 18
M  V30 38 1 30 21
M  V30 39 1 30 24
M  V30 40 1 1 36
M  V30 41 1 1 37
M  V30 42 1 1 38
M  V30 43 1 3 39
M  V30 44 1 3 40
M  V30 45 1 4 41
M  V30 46 1 4 42
M  V30 47 1 6 43
M  V30 48 1 6 44
M  V30 49 1 7 45
M  V30 50 1 7 46
M  V30 51 1 10 47
M  V30 52 1 11 48
M  V30 53 1 12 49
M  V30 54 1 14 50
M  V30 55 1 14 51
M  V30 56 1 17 52
M  V30 57 1 22 53
M  V30 58 1 23 54
M  V30 59 1 26 55
M  V30 60 1 29 56
M  V30 61 1 31 57
M  V30 62 1 33 58
M  V30 63 1 34 59
M  V30 64 1 34 60
M  V30 65 1 35 61
M  V30 66 1 35 62
M  V30 END BOND
M  V30 END CTAB
M  END
>  <Dataset>  (75) 
ChEMBL_Kinases

>  <Ligand_Instance>  (75) 
nan

>  <PDB_ID>  (75) 
nan

>  <Standardized_SMILES>  (75) 
CN1CCN(CCOc2cccc(CC(=O)Nc3nc(-c4c[nH]c5ncc(F)cc45)cs3)c2)CC1

>  <Name>  (75) 
nan

>  <Pocket>  (75) 
nan

>  <ATP_Site>  (75) 
nan

>  <Peripheral>  (75) 
nan

>  <Num_H_Atoms_ProtBoundConf>  (75) 
nan

>  <Num_Resolved_Atoms>  (75) 
nan

>  <Num_Not_Resolved_Atoms>  (75) 
nan

$$$$
CHEMBL4464921
     RDKit          3D

  0  0  0  0  0  0  0  0  0  0999 V3000
M  V30 BEGIN CTAB
M  V30 COUNTS 77 82 0 0 0
M  V30 BEGIN ATOM
M  V30 1 N 2.931860 3.498266 -6.010345 0
M  V30 2 C 1.937412 3.263872 -5.490880 0
M  V30 3 C 0.679984 2.967051 -4.851766 0
M  V30 4 C -0.514094 3.075090 -5.504579 0
M  V30 5 N -1.666227 2.793831 -4.880523 0
M  V30 6 C -1.663899 2.398210 -3.596941 0
M  V30 7 N -2.997133 2.172868 -3.173214 0
M  V30 8 C -3.958711 1.181139 -3.545609 0
M  V30 9 C -3.593810 -0.212563 -3.319752 0
M  V30 10 C -3.189478 -1.110832 -4.315469 0
M  V30 11 C -2.869276 -2.418779 -4.014773 0
M  V30 12 C -2.938375 -2.884082 -2.713428 0
M  V30 13 C -3.326053 -2.040115 -1.721673 0
M  V30 14 C -3.646107 -0.727335 -2.032755 0
M  V30 15 Cl -4.142201 0.325474 -0.715962 0
M  V30 16 N -0.486640 2.308020 -3.008553 0
M  V30 17 C 0.716225 2.559870 -3.522189 0
M  V30 18 N 1.900667 2.428402 -2.725368 0
M  V30 19 C 2.355822 2.080184 -1.443616 0
M  V30 20 C 2.287808 0.662711 -0.985607 0
M  V30 21 C 3.069623 -0.303995 -1.829351 0
M  V30 22 C 3.030335 -1.661997 -1.196149 0
M  V30 23 C 3.524695 -1.715864 0.214002 0
M  V30 24 C 2.806859 -0.677082 1.092265 0
M  V30 25 C 2.980854 0.627703 0.399873 0
M  V30 26 C 1.383291 -1.135122 1.172377 0
M  V30 27 N 0.521273 -0.415133 2.034651 0
M  V30 28 C 0.218791 -1.164026 3.238064 0
M  V30 29 C -0.720608 -0.392536 4.143206 0 CFG=1
M  V30 30 C -2.014985 -0.058062 3.453000 0
M  V30 31 C -2.898349 -1.203298 3.142323 0
M  V30 32 C -2.749944 -2.409814 3.989912 0 CFG=2
M  V30 33 O -4.055617 -2.894547 4.269986 0
M  V30 34 C -2.027276 -2.247003 5.273132 0
M  V30 35 C -1.061780 -1.128438 5.389364 0
M  V30 36 C 0.823320 -1.210121 -0.203355 0
M  V30 37 C 1.559229 -2.097919 -1.145486 0
M  V30 38 C 0.873095 0.220739 -0.763597 0
M  V30 39 H -0.422927 3.399982 -6.538168 0
M  V30 40 H -3.165925 2.922061 -2.477864 0
M  V30 41 H -4.266137 1.358750 -4.618060 0
M  V30 42 H -4.868269 1.378343 -2.927646 0
M  V30 43 H -3.138850 -0.745278 -5.326095 0
M  V30 44 H -2.555991 -3.132924 -4.760405 0
M  V30 45 H -2.690199 -3.907725 -2.446391 0
M  V30 46 H -3.391673 -2.389432 -0.680143 0
M  V30 47 H 2.709896 2.680432 -3.347736 0
M  V30 48 H 3.429528 2.433473 -1.319123 0
M  V30 49 H 1.804064 2.749749 -0.712678 0
M  V30 50 H 2.575484 -0.408169 -2.824959 0
M  V30 51 H 4.101144 0.080763 -1.903551 0
M  V30 52 H 3.620945 -2.378141 -1.782972 0
M  V30 53 H 4.603411 -1.695321 0.345922 0
M  V30 54 H 3.173826 -2.703946 0.637187 0
M  V30 55 H 3.337153 -0.634984 2.043705 0
M  V30 56 H 4.075136 0.692075 0.124173 0
M  V30 57 H 2.748503 1.521263 0.974952 0
M  V30 58 H 1.437971 -2.192296 1.564158 0
M  V30 59 H 0.776752 0.572536 2.234206 0
M  V30 60 H 1.161217 -1.414616 3.737704 0
M  V30 61 H -0.332470 -2.062259 2.894329 0
M  V30 62 H -0.217246 0.554938 4.404764 0
M  V30 63 H -2.521779 0.729560 4.073065 0
M  V30 64 H -1.706443 0.493671 2.510385 0
M  V30 65 H -2.778490 -1.498033 2.073360 0
M  V30 66 H -3.960870 -0.844795 3.203123 0
M  V30 67 H -2.290704 -3.280596 3.436358 0
M  V30 68 H -4.118408 -3.863434 4.257654 0
M  V30 69 H -2.790503 -2.204915 6.107807 0
M  V30 70 H -1.461638 -3.192611 5.508771 0
M  V30 71 H -1.519061 -0.357235 6.083750 0
M  V30 72 H -0.130816 -1.445790 5.947697 0
M  V30 73 H -0.250961 -1.492995 -0.221959 0
M  V30 74 H 1.454537 -3.161241 -0.902674 0
M  V30 75 H 1.110132 -1.936058 -2.158398 0
M  V30 76 H 0.425192 0.861235 0.023556 0
M  V30 77 H 0.259686 0.147501 -1.675184 0
M  V30 END ATOM
M  V30 BEGIN BOND
M  V30 1 3 1 2
M  V30 2 1 2 3
M  V30 3 2 3 4
M  V30 4 1 4 5
M  V30 5 2 5 6
M  V30 6 1 6 7
M  V30 7 1 7 8
M  V30 8 1 8 9
M  V30 9 2 9 10
M  V30 10 1 10 11
M  V30 11 2 11 12
M  V30 12 1 12 13
M  V30 13 2 13 14
M  V30 14 1 14 15
M  V30 15 1 6 16
M  V30 16 2 16 17
M  V30 17 1 17 18
M  V30 18 1 18 19
M  V30 19 1 19 20
M  V30 20 1 20 21
M  V30 21 1 21 22
M  V30 22 1 22 23
M  V30 23 1 23 24
M  V30 24 1 24 25
M  V30 25 1 24 26
M  V30 26 1 26 27
M  V30 27 1 27 28
M  V30 28 1 28 29
M  V30 29 1 29 30
M  V30 30 1 30 31
M  V30 31 1 31 32
M  V30 32 1 32 33
M  V30 33 1 32 34
M  V30 34 1 34 35
M  V30 35 1 26 36
M  V30 36 1 36 37
M  V30 37 1 36 38
M  V30 38 1 17 3
M  V30 39 1 25 20
M  V30 40 1 35 29
M  V30 41 1 14 9
M  V30 42 1 38 20
M  V30 43 1 37 22
M  V30 44 1 4 39
M  V30 45 1 7 40
M  V30 46 1 8 41
M  V30 47 1 8 42
M  V30 48 1 10 43
M  V30 49 1 11 44
M  V30 50 1 12 45
M  V30 51 1 13 46
M  V30 52 1 18 47
M  V30 53 1 19 48
M  V30 54 1 19 49
M  V30 55 1 21 50
M  V30 56 1 21 51
M  V30 57 1 22 52
M  V30 58 1 23 53
M  V30 59 1 23 54
M  V30 60 1 24 55
M  V30 61 1 25 56
M  V30 62 1 25 57
M  V30 63 1 26 58
M  V30 64 1 27 59
M  V30 65 1 28 60
M  V30 66 1 28 61
M  V30 67 1 29 62 CFG=1
M  V30 68 1 30 63
M  V30 69 1 30 64
M  V30 70 1 31 65
M  V30 71 1 31 66
M  V30 72 1 32 67 CFG=3
M  V30 73 1 33 68
M  V30 74 1 34 69
M  V30 75 1 34 70
M  V30 76 1 35 71
M  V30 77 1 35 72
M  V30 78 1 36 73
M  V30 79 1 37 74
M  V30 80 1 37 75
M  V30 81 1 38 76
M  V30 82 1 38 77
M  V30 END BOND
M  V30 END CTAB
M  END
>  <Dataset>  (76) 
ChEMBL_Kinases

>  <Ligand_Instance>  (76) 
nan

>  <PDB_ID>  (76) 
nan

>  <Standardized_SMILES>  (76) 
N#Cc1cnc(NCc2ccccc2Cl)nc1NCC12CC3CC(C1)C(NC[C@H]1CC[C@H](O)CC1)C(C3)C2

>  <Name>  (76) 
nan

>  <Pocket>  (76) 
nan

>  <ATP_Site>  (76) 
nan

>  <Peripheral>  (76) 
nan

>  <Num_H_Atoms_ProtBoundConf>  (76) 
nan

>  <Num_Resolved_Atoms>  (76) 
nan

>  <Num_Not_Resolved_Atoms>  (76) 
nan

$$$$
CHEMBL4464832
     RDKit          3D

  0  0  0  0  0  0  0  0  0  0999 V3000
M  V30 BEGIN CTAB
M  V30 COUNTS 57 61 0 0 0
M  V30 BEGIN ATOM
M  V30 1 C 3.084978 1.281725 6.014039 0
M  V30 2 N 2.873825 -0.093063 5.677527 0
M  V30 3 C 3.176366 -1.182107 6.618968 0
M  V30 4 C 2.359685 -0.360186 4.366472 0
M  V30 5 N 2.053463 0.205627 3.369496 0
M  V30 6 C 1.572230 -0.317333 2.263604 0
M  V30 7 C 1.235753 0.411146 1.140126 0
M  V30 8 C 0.734683 -0.249927 0.036757 0
M  V30 9 N 0.384306 0.483331 -1.132453 0
M  V30 10 C 1.447871 1.400833 -1.542635 0
M  V30 11 C 1.039533 2.833059 -1.506247 0
M  V30 12 C -0.431666 3.042861 -1.713951 0
M  V30 13 C -1.193146 3.189283 -0.414625 0
M  V30 14 O -0.759975 4.271216 0.345119 0
M  V30 15 C -1.069388 1.936373 -2.510898 0
M  V30 16 C -0.750351 0.555068 -1.996229 0
M  V30 17 C 0.555798 -1.614247 0.014127 0
M  V30 18 N 0.033783 -2.409813 -1.037293 0
M  V30 19 C -1.356160 -2.558383 -0.771711 0
M  V30 20 O -1.792112 -1.979559 0.284529 0
M  V30 21 C -2.441473 -3.248095 -1.457090 0
M  V30 22 C -3.530936 -2.618008 -2.021546 0
M  V30 23 N -4.314006 -3.577442 -2.548426 0
M  V30 24 N -3.747939 -4.735599 -2.326209 0
M  V30 25 C -4.142990 -5.993030 -2.654485 0
M  V30 26 C -3.335659 -7.074424 -2.285862 0
M  V30 27 C -2.134225 -6.924697 -1.591660 0
M  V30 28 N -1.786914 -5.643504 -1.288350 0
M  V30 29 C -2.564872 -4.629762 -1.645449 0
M  V30 30 C 0.877342 -2.385837 1.110423 0
M  V30 31 C 1.384921 -1.685454 2.215231 0
M  V30 32 S 1.969269 -2.124521 3.907713 0
M  V30 33 H 2.272506 1.948982 5.656304 0
M  V30 34 H 4.071671 1.601503 5.664206 0
M  V30 35 H 3.109820 1.432212 7.132609 0
M  V30 36 H 2.213018 -1.679943 6.860848 0
M  V30 37 H 3.672087 -0.738371 7.479168 0
M  V30 38 H 3.801881 -1.957634 6.117991 0
M  V30 39 H 1.327001 1.503001 1.026033 0
M  V30 40 H 1.641284 1.156198 -2.633806 0
M  V30 41 H 2.406712 1.225340 -1.030304 0
M  V30 42 H 1.352722 3.279213 -0.542722 0
M  V30 43 H 1.600943 3.386683 -2.318975 0
M  V30 44 H -0.572497 3.976394 -2.282642 0
M  V30 45 H -2.263920 3.360818 -0.646747 0
M  V30 46 H -1.141876 2.302438 0.215658 0
M  V30 47 H -0.783276 4.079040 1.311357 0
M  V30 48 H -2.174349 2.164065 -2.477560 0
M  V30 49 H -0.776571 2.064853 -3.568677 0
M  V30 50 H -1.690132 0.168963 -1.543790 0
M  V30 51 H -0.501521 -0.085068 -2.888882 0
M  V30 52 H 0.311334 -2.902253 -1.906464 0
M  V30 53 H -3.692784 -1.545509 -2.020497 0
M  V30 54 H -5.063558 -6.143280 -3.187975 0
M  V30 55 H -3.717067 -8.051904 -2.585694 0
M  V30 56 H -1.592275 -7.828247 -1.357091 0
M  V30 57 H 0.818868 -3.436776 1.299731 0
M  V30 END ATOM
M  V30 BEGIN BOND
M  V30 1 1 1 2
M  V30 2 1 2 3
M  V30 3 1 2 4
M  V30 4 2 4 5
M  V30 5 1 5 6
M  V30 6 2 6 7
M  V30 7 1 7 8
M  V30 8 1 8 9
M  V30 9 1 9 10
M  V30 10 1 10 11
M  V30 11 1 11 12
M  V30 12 1 12 13
M  V30 13 1 13 14
M  V30 14 1 12 15
M  V30 15 1 15 16
M  V30 16 2 8 17
M  V30 17 1 17 18
M  V30 18 1 18 19
M  V30 19 2 19 20
M  V30 20 1 19 21
M  V30 21 1 21 22
M  V30 22 2 22 23
M  V30 23 1 23 24
M  V30 24 1 24 25
M  V30 25 2 25 26
M  V30 26 1 26 27
M  V30 27 2 27 28
M  V30 28 1 28 29
M  V30 29 1 17 30
M  V30 30 2 30 31
M  V30 31 1 31 32
M  V30 32 1 32 4
M  V30 33 1 31 6
M  V30 34 1 16 9
M  V30 35 2 29 21
M  V30 36 1 29 24
M  V30 37 1 1 33
M  V30 38 1 1 34
M  V30 39 1 1 35
M  V30 40 1 3 36
M  V30 41 1 3 37
M  V30 42 1 3 38
M  V30 43 1 7 39
M  V30 44 1 10 40
M  V30 45 1 10 41
M  V30 46 1 11 42
M  V30 47 1 11 43
M  V30 48 1 12 44
M  V30 49 1 13 45
M  V30 50 1 13 46
M  V30 51 1 14 47
M  V30 52 1 15 48
M  V30 53 1 15 49
M  V30 54 1 16 50
M  V30 55 1 16 51
M  V30 56 1 18 52
M  V30 57 1 22 53
M  V30 58 1 25 54
M  V30 59 1 26 55
M  V30 60 1 27 56
M  V30 61 1 30 57
M  V30 END BOND
M  V30 END CTAB
M  END
>  <Dataset>  (77) 
ChEMBL_Kinases

>  <Ligand_Instance>  (77) 
nan

>  <PDB_ID>  (77) 
nan

>  <Standardized_SMILES>  (77) 
CN(C)c1nc2cc(N3CCC(CO)CC3)c(NC(=O)c3cnn4cccnc34)cc2s1

>  <Name>  (77) 
nan

>  <Pocket>  (77) 
nan

>  <ATP_Site>  (77) 
nan

>  <Peripheral>  (77) 
nan

>  <Num_H_Atoms_ProtBoundConf>  (77) 
nan

>  <Num_Resolved_Atoms>  (77) 
nan

>  <Num_Not_Resolved_Atoms>  (77) 
nan

$$$$
CHEMBL4464826
     RDKit          3D

  0  0  0  0  0  0  0  0  0  0999 V3000
M  V30 BEGIN CTAB
M  V30 COUNTS 80 84 0 0 0
M  V30 BEGIN ATOM
M  V30 1 C 2.412991 -0.794990 6.085592 0
M  V30 2 C 0.921873 -0.764338 6.163943 0
M  V30 3 O 0.266428 -0.946847 4.931106 0
M  V30 4 C 0.401527 -0.140964 3.825549 0
M  V30 5 C 1.215450 0.975911 3.778334 0
M  V30 6 C 1.282139 1.720081 2.617708 0
M  V30 7 C 2.159308 2.868299 2.679685 0
M  V30 8 O 2.815954 3.139809 3.713665 0
M  V30 9 N 2.296340 3.721656 1.559573 0
M  V30 10 C 3.048713 4.921947 1.255748 0
M  V30 11 C 4.030145 4.711014 0.127219 0
M  V30 12 C 3.502395 5.167489 -1.203025 0
M  V30 13 N 2.077644 5.039901 -1.210544 0
M  V30 14 C 1.465476 5.078017 -2.501872 0
M  V30 15 C 1.511244 6.051562 -0.372434 0
M  V30 16 C 2.137037 6.101439 1.000159 0
M  V30 17 C 0.558323 1.382953 1.495271 0
M  V30 18 C -0.239949 0.261222 1.588263 0
M  V30 19 C -0.359275 -0.534352 2.716946 0
M  V30 20 N -1.228994 -1.672993 2.729860 0
M  V30 21 C -1.922761 -1.998579 1.526194 0
M  V30 22 N -3.047216 -1.317522 1.196077 0
M  V30 23 C -3.731286 -1.607022 0.057465 0
M  V30 24 C -3.245260 -2.625078 -0.762832 0
M  V30 25 C -2.081457 -3.330882 -0.420347 0
M  V30 26 N -1.432707 -2.994969 0.739881 0
M  V30 27 N -1.610948 -4.399835 -1.276921 0
M  V30 28 C -0.933477 -5.513597 -0.616205 0
M  V30 29 C 0.407473 -5.832270 -1.171350 0
M  V30 30 C 0.214729 -6.964265 -2.149145 0
M  V30 31 C -1.189468 -7.442983 -2.016510 0
M  V30 32 C -1.750183 -6.743781 -0.823811 0
M  V30 33 C -1.910427 -4.197293 -2.662602 0 CFG=2
M  V30 34 C -1.216457 -2.910707 -3.137636 0
M  V30 35 C -1.516089 -2.673181 -4.607005 0
M  V30 36 C -3.396049 -3.998863 -2.814487 0
M  V30 37 O -4.240718 -4.583634 -3.544445 0
M  V30 38 N -3.917387 -2.953269 -1.967400 0
M  V30 39 C -5.133846 -2.195671 -2.288222 0
M  V30 40 H 2.859212 0.101631 6.515674 0
M  V30 41 H 2.772229 -1.647674 6.721251 0
M  V30 42 H 2.774940 -1.040378 5.066280 0
M  V30 43 H 0.618519 0.253276 6.528059 0
M  V30 44 H 0.537619 -1.532075 6.871927 0
M  V30 45 H 1.771894 1.214640 4.677292 0
M  V30 46 H 1.807449 3.599084 0.653831 0
M  V30 47 H 3.643315 5.183187 2.155659 0
M  V30 48 H 4.992286 5.239385 0.313248 0
M  V30 49 H 4.223424 3.619931 0.062596 0
M  V30 50 H 3.834983 6.227282 -1.351745 0
M  V30 51 H 3.930811 4.564848 -2.030353 0
M  V30 52 H 0.431721 4.703351 -2.435330 0
M  V30 53 H 1.414342 6.088704 -2.958442 0
M  V30 54 H 1.990297 4.375386 -3.209217 0
M  V30 55 H 1.691770 7.039850 -0.847764 0
M  V30 56 H 0.385967 5.979590 -0.322540 0
M  V30 57 H 1.300792 6.027183 1.742155 0
M  V30 58 H 2.655317 7.059515 1.213550 0
M  V30 59 H 0.614706 1.959835 0.607275 0
M  V30 60 H -0.834392 -0.046234 0.718293 0
M  V30 61 H -1.309938 -2.206856 3.621345 0
M  V30 62 H -4.624850 -1.094908 -0.242977 0
M  V30 63 H -0.887581 -5.319573 0.494062 0
M  V30 64 H 0.934404 -4.955875 -1.599773 0
M  V30 65 H 1.011445 -6.244879 -0.312485 0
M  V30 66 H 0.489323 -6.676044 -3.186215 0
M  V30 67 H 0.880587 -7.827817 -1.912646 0
M  V30 68 H -1.242379 -8.564974 -1.903323 0
M  V30 69 H -1.820264 -7.261945 -2.938196 0
M  V30 70 H -2.847844 -6.488491 -0.977479 0
M  V30 71 H -1.668470 -7.457457 0.037762 0
M  V30 72 H -1.561663 -4.970279 -3.340230 0
M  V30 73 H -0.117837 -3.024511 -3.065782 0
M  V30 74 H -1.507992 -2.038611 -2.539248 0
M  V30 75 H -0.889094 -3.326830 -5.247776 0
M  V30 76 H -1.327657 -1.634416 -4.904513 0
M  V30 77 H -2.578669 -2.954169 -4.815647 0
M  V30 78 H -5.425158 -2.427568 -3.320631 0
M  V30 79 H -4.846079 -1.126202 -2.280345 0
M  V30 80 H -5.927306 -2.400880 -1.535240 0
M  V30 END ATOM
M  V30 BEGIN BOND
M  V30 1 1 1 2
M  V30 2 1 2 3
M  V30 3 1 3 4
M  V30 4 2 4 5
M  V30 5 1 5 6
M  V30 6 1 6 7
M  V30 7 2 7 8
M  V30 8 1 7 9
M  V30 9 1 9 10
M  V30 10 1 10 11
M  V30 11 1 11 12
M  V30 12 1 12 13
M  V30 13 1 13 14
M  V30 14 1 13 15
M  V30 15 1 15 16
M  V30 16 2 6 17
M  V30 17 1 17 18
M  V30 18 2 18 19
M  V30 19 1 19 20
M  V30 20 1 20 21
M  V30 21 2 21 22
M  V30 22 1 22 23
M  V30 23 2 23 24
M  V30 24 1 24 25
M  V30 25 2 25 26
M  V30 26 1 25 27
M  V30 27 1 27 28
M  V30 28 1 28 29
M  V30 29 1 29 30
M  V30 30 1 30 31
M  V30 31 1 31 32
M  V30 32 1 27 33
M  V30 33 1 33 34
M  V30 34 1 34 35
M  V30 35 1 33 36
M  V30 36 2 36 37
M  V30 37 1 36 38
M  V30 38 1 38 39
M  V30 39 1 19 4
M  V30 40 1 26 21
M  V30 41 1 32 28
M  V30 42 1 16 10
M  V30 43 1 38 24
M  V30 44 1 1 40
M  V30 45 1 1 41
M  V30 46 1 1 42
M  V30 47 1 2 43
M  V30 48 1 2 44
M  V30 49 1 5 45
M  V30 50 1 9 46
M  V30 51 1 10 47
M  V30 52 1 11 48
M  V30 53 1 11 49
M  V30 54 1 12 50
M  V30 55 1 12 51
M  V30 56 1 14 52
M  V30 57 1 14 53
M  V30 58 1 14 54
M  V30 59 1 15 55
M  V30 60 1 15 56
M  V30 61 1 16 57
M  V30 62 1 16 58
M  V30 63 1 17 59
M  V30 64 1 18 60
M  V30 65 1 20 61
M  V30 66 1 23 62
M  V30 67 1 28 63
M  V30 68 1 29 64
M  V30 69 1 29 65
M  V30 70 1 30 66
M  V30 71 1 30 67
M  V30 72 1 31 68
M  V30 73 1 31 69
M  V30 74 1 32 70
M  V30 75 1 32 71
M  V30 76 1 33 72 CFG=3
M  V30 77 1 34 73
M  V30 78 1 34 74
M  V30 79 1 35 75
M  V30 80 1 35 76
M  V30 81 1 35 77
M  V30 82 1 39 78
M  V30 83 1 39 79
M  V30 84 1 39 80
M  V30 END BOND
M  V30 END CTAB
M  END
>  <Dataset>  (78) 
ChEMBL_Kinases

>  <Ligand_Instance>  (78) 
nan

>  <PDB_ID>  (78) 
nan

>  <Standardized_SMILES>  (78) 
CCOc1cc(C(=O)NC2CCN(C)CC2)ccc1Nc1ncc2c(n1)N(C1CCCC1)[C@H](CC)C(=O)N2C

>  <Name>  (78) 
nan

>  <Pocket>  (78) 
nan

>  <ATP_Site>  (78) 
nan

>  <Peripheral>  (78) 
nan

>  <Num_H_Atoms_ProtBoundConf>  (78) 
nan

>  <Num_Resolved_Atoms>  (78) 
nan

>  <Num_Not_Resolved_Atoms>  (78) 
nan

$$$$
CHEMBL4464820
     RDKit          3D

  0  0  0  0  0  0  0  0  0  0999 V3000
M  V30 BEGIN CTAB
M  V30 COUNTS 37 40 0 0 0
M  V30 BEGIN ATOM
M  V30 1 C 0.510564 -4.944078 2.206264 0
M  V30 2 N 1.198981 -3.966872 1.392312 0
M  V30 3 C 0.347401 -3.273978 0.491001 0
M  V30 4 C 0.217654 -1.791663 0.821629 0
M  V30 5 C 1.570472 -1.195617 0.650618 0
M  V30 6 C 2.452089 -1.941389 1.309733 0
M  V30 7 S 4.009508 -1.152837 1.040221 0
M  V30 8 C 3.342996 0.196740 0.006935 0
M  V30 9 N 3.899057 1.256731 -0.619875 0
M  V30 10 C 3.154435 2.117855 -1.334407 0
M  V30 11 N 1.864093 1.838631 -1.365527 0
M  V30 12 C 1.256518 0.812210 -0.770406 0
M  V30 13 N -0.148104 0.773602 -0.984583 0
M  V30 14 C -1.243344 1.363576 -0.263803 0
M  V30 15 C -2.505921 1.115876 -0.755394 0
M  V30 16 C -3.545576 1.685811 -0.056520 0
M  V30 17 C -3.373668 2.461918 1.069286 0
M  V30 18 C -2.071187 2.649110 1.478678 0
M  V30 19 F -1.912595 3.420519 2.596260 0
M  V30 20 C -0.950331 2.121323 0.848670 0
M  V30 21 C 1.997554 -0.086320 -0.031193 0
M  V30 22 C 2.138087 -3.165942 2.089737 0
M  V30 23 H 0.101384 -5.749575 1.548531 0
M  V30 24 H 1.247148 -5.436370 2.859584 0
M  V30 25 H -0.353892 -4.512673 2.751190 0
M  V30 26 H 0.802247 -3.357076 -0.523973 0
M  V30 27 H -0.647622 -3.744525 0.483282 0
M  V30 28 H -0.535897 -1.412657 0.109053 0
M  V30 29 H -0.117781 -1.673698 1.862747 0
M  V30 30 H 3.706291 2.923448 -1.788632 0
M  V30 31 H -0.266755 0.193406 -1.828467 0
M  V30 32 H -2.636879 0.504398 -1.641698 0
M  V30 33 H -4.572200 1.527011 -0.395031 0
M  V30 34 H -4.203185 2.904053 1.609055 0
M  V30 35 H 0.048923 2.295175 1.205618 0
M  V30 36 H 1.763239 -2.938600 3.123719 0
M  V30 37 H 3.053941 -3.773949 2.248356 0
M  V30 END ATOM
M  V30 BEGIN BOND
M  V30 1 1 1 2
M  V30 2 1 2 3
M  V30 3 1 3 4
M  V30 4 1 4 5
M  V30 5 2 5 6
M  V30 6 1 6 7
M  V30 7 1 7 8
M  V30 8 2 8 9
M  V30 9 1 9 10
M  V30 10 2 10 11
M  V30 11 1 11 12
M  V30 12 1 12 13
M  V30 13 1 13 14
M  V30 14 2 14 15
M  V30 15 1 15 16
M  V30 16 2 16 17
M  V30 17 1 17 18
M  V30 18 1 18 19
M  V30 19 2 18 20
M  V30 20 2 12 21
M  V30 21 1 6 22
M  V30 22 1 22 2
M  V30 23 1 21 5
M  V30 24 1 21 8
M  V30 25 1 20 14
M  V30 26 1 1 23
M  V30 27 1 1 24
M  V30 28 1 1 25
M  V30 29 1 3 26
M  V30 30 1 3 27
M  V30 31 1 4 28
M  V30 32 1 4 29
M  V30 33 1 10 30
M  V30 34 1 13 31
M  V30 35 1 15 32
M  V30 36 1 16 33
M  V30 37 1 17 34
M  V30 38 1 20 35
M  V30 39 1 22 36
M  V30 40 1 22 37
M  V30 END BOND
M  V30 END CTAB
M  END
>  <Dataset>  (79) 
ChEMBL_Kinases

>  <Ligand_Instance>  (79) 
nan

>  <PDB_ID>  (79) 
nan

>  <Standardized_SMILES>  (79) 
CN1CCc2c(sc3ncnc(Nc4cccc(F)c4)c23)C1

>  <Name>  (79) 
nan

>  <Pocket>  (79) 
nan

>  <ATP_Site>  (79) 
nan

>  <Peripheral>  (79) 
nan

>  <Num_H_Atoms_ProtBoundConf>  (79) 
nan

>  <Num_Resolved_Atoms>  (79) 
nan

>  <Num_Not_Resolved_Atoms>  (79) 
nan

$$$$
CHEMBL4464722
     RDKit          3D

  0  0  0  0  0  0  0  0  0  0999 V3000
M  V30 BEGIN CTAB
M  V30 COUNTS 44 47 0 0 0
M  V30 BEGIN ATOM
M  V30 1 C -1.483877 -4.935888 0.572959 0
M  V30 2 C -0.702309 -3.781888 1.169299 0
M  V30 3 C -1.297171 -3.520637 2.526104 0
M  V30 4 C -0.674341 -2.588581 0.267341 0
M  V30 5 N 0.118697 -1.551698 0.897741 0
M  V30 6 C 0.065710 -0.127885 0.715228 0
M  V30 7 C 1.214166 0.445277 0.151871 0
M  V30 8 C 1.335181 1.792929 -0.105151 0
M  V30 9 C 2.519768 2.404238 -0.689322 0
M  V30 10 C 2.526821 3.766862 -0.901471 0
M  V30 11 C 3.615028 4.423509 -1.452713 0
M  V30 12 N 4.719461 3.757362 -1.807558 0
M  V30 13 C 4.737382 2.425240 -1.610429 0
M  V30 14 C 3.667559 1.744265 -1.063060 0
M  V30 15 N 0.315839 2.588047 0.194676 0
M  V30 16 C -0.808394 2.092787 0.736267 0
M  V30 17 C -1.913660 2.841519 1.081762 0
M  V30 18 N -3.024832 2.313347 1.625864 0
M  V30 19 C -3.135284 0.987663 1.875600 0
M  V30 20 C -2.065717 0.182177 1.553605 0
M  V30 21 C -0.954463 0.749052 1.003190 0
M  V30 22 C 1.153170 -1.875593 1.871635 0
M  V30 23 C 1.215543 -3.309126 2.260486 0
M  V30 24 O 0.641912 -4.174482 1.366629 0
M  V30 25 H -0.952770 -5.906114 0.724781 0
M  V30 26 H -1.682109 -4.761048 -0.506686 0
M  V30 27 H -2.473047 -5.053419 1.062830 0
M  V30 28 H -2.400298 -3.484901 2.396354 0
M  V30 29 H -0.961421 -2.570317 2.934966 0
M  V30 30 H -1.069296 -4.383001 3.193684 0
M  V30 31 H -0.061106 -2.911239 -0.633898 0
M  V30 32 H -1.659890 -2.267208 -0.083496 0
M  V30 33 H 2.062047 -0.174760 -0.104848 0
M  V30 34 H 1.674774 4.381679 -0.643207 0
M  V30 35 H 3.624748 5.487015 -1.620039 0
M  V30 36 H 5.611134 1.845441 -1.883048 0
M  V30 37 H 3.709801 0.686629 -0.918143 0
M  V30 38 H -1.876340 3.924991 0.899778 0
M  V30 39 H -4.050520 0.615657 2.314217 0
M  V30 40 H -2.153539 -0.868927 1.755687 0
M  V30 41 H 2.115051 -1.596137 1.346740 0
M  V30 42 H 1.015524 -1.242544 2.761469 0
M  V30 43 H 2.298777 -3.603198 2.325184 0
M  V30 44 H 0.840177 -3.437913 3.314709 0
M  V30 END ATOM
M  V30 BEGIN BOND
M  V30 1 1 1 2
M  V30 2 1 2 3
M  V30 3 1 2 4
M  V30 4 1 4 5
M  V30 5 1 5 6
M  V30 6 2 6 7
M  V30 7 1 7 8
M  V30 8 1 8 9
M  V30 9 2 9 10
M  V30 10 1 10 11
M  V30 11 2 11 12
M  V30 12 1 12 13
M  V30 13 2 13 14
M  V30 14 2 8 15
M  V30 15 1 15 16
M  V30 16 2 16 17
M  V30 17 1 17 18
M  V30 18 2 18 19
M  V30 19 1 19 20
M  V30 20 2 20 21
M  V30 21 1 5 22
M  V30 22 1 22 23
M  V30 23 1 23 24
M  V30 24 1 24 2
M  V30 25 1 21 6
M  V30 26 1 14 9
M  V30 27 1 21 16
M  V30 28 1 1 25
M  V30 29 1 1 26
M  V30 30 1 1 27
M  V30 31 1 3 28
M  V30 32 1 3 29
M  V30 33 1 3 30
M  V30 34 1 4 31
M  V30 35 1 4 32
M  V30 36 1 7 33
M  V30 37 1 10 34
M  V30 38 1 11 35
M  V30 39 1 13 36
M  V30 40 1 14 37
M  V30 41 1 17 38
M  V30 42 1 19 39
M  V30 43 1 20 40
M  V30 44 1 22 41
M  V30 45 1 22 42
M  V30 46 1 23 43
M  V30 47 1 23 44
M  V30 END BOND
M  V30 END CTAB
M  END
>  <Dataset>  (80) 
ChEMBL_Kinases

>  <Ligand_Instance>  (80) 
nan

>  <PDB_ID>  (80) 
nan

>  <Standardized_SMILES>  (80) 
CC1(C)CN(c2cc(-c3ccncc3)nc3cnccc23)CCO1

>  <Name>  (80) 
nan

>  <Pocket>  (80) 
nan

>  <ATP_Site>  (80) 
nan

>  <Peripheral>  (80) 
nan

>  <Num_H_Atoms_ProtBoundConf>  (80) 
nan

>  <Num_Resolved_Atoms>  (80) 
nan

>  <Num_Not_Resolved_Atoms>  (80) 
nan

$$$$
CHEMBL4740090
     RDKit          3D

  0  0  0  0  0  0  0  0  0  0999 V3000
M  V30 BEGIN CTAB
M  V30 COUNTS 34 36 0 0 0
M  V30 BEGIN ATOM
M  V30 1 C 0.791243 -6.071970 3.917407 0
M  V30 2 C 1.987532 -5.397534 3.302666 0
M  V30 3 O 3.163679 -5.891666 3.330379 0
M  V30 4 C 1.797389 -4.120768 2.641361 0
M  V30 5 C 2.796361 -3.506331 1.900134 0
M  V30 6 C 2.568390 -2.289951 1.265925 0
M  V30 7 C 1.347593 -1.716754 1.388543 0
M  V30 8 C 0.924162 -0.424695 0.775968 0
M  V30 9 C 1.671351 0.397015 -0.064196 0
M  V30 10 C 1.102332 1.529722 -0.518641 0
M  V30 11 N 1.614191 2.471391 -1.334302 0
M  V30 12 C 0.877362 3.547578 -1.682748 0
M  V30 13 N -0.401185 3.838640 -1.299334 0
M  V30 14 C -0.941086 2.889550 -0.467416 0
M  V30 15 S -2.595383 3.131336 0.133060 0
M  V30 16 C -3.836876 2.396394 -0.941016 0
M  V30 17 C -3.851923 3.044511 -2.266905 0
M  V30 18 O -3.220128 2.430451 -3.182244 0
M  V30 19 O -4.162664 4.007765 -3.213843 0
M  V30 20 C -0.216411 1.795362 -0.104432 0
M  V30 21 S -0.611137 0.414155 0.929687 0
M  V30 22 C 0.359686 -2.330699 2.124716 0
M  V30 23 N 0.584333 -3.504684 2.734868 0
M  V30 24 H 0.072104 -6.258026 3.089379 0
M  V30 25 H 1.046748 -7.028157 4.365943 0
M  V30 26 H 0.308838 -5.452243 4.695035 0
M  V30 27 H 3.759401 -3.958230 1.803712 0
M  V30 28 H 3.291207 -1.747865 0.672538 0
M  V30 29 H 2.689803 0.072870 -0.310197 0
M  V30 30 H 1.404560 4.248456 -2.356265 0
M  V30 31 H -4.826476 2.558289 -0.452145 0
M  V30 32 H -3.746441 1.290357 -1.053527 0
M  V30 33 H -5.111310 3.997060 -3.616210 0
M  V30 34 H -0.638852 -1.904813 2.250341 0
M  V30 END ATOM
M  V30 BEGIN BOND
M  V30 1 1 1 2
M  V30 2 2 2 3
M  V30 3 1 2 4
M  V30 4 2 4 5
M  V30 5 1 5 6
M  V30 6 2 6 7
M  V30 7 1 7 8
M  V30 8 2 8 9
M  V30 9 1 9 10
M  V30 10 2 10 11
M  V30 11 1 11 12
M  V30 12 2 12 13
M  V30 13 1 13 14
M  V30 14 1 14 15
M  V30 15 1 15 16
M  V30 16 1 16 17
M  V30 17 2 17 18
M  V30 18 1 17 19
M  V30 19 2 14 20
M  V30 20 1 20 21
M  V30 21 1 7 22
M  V30 22 2 22 23
M  V30 23 1 23 4
M  V30 24 1 21 8
M  V30 25 1 20 10
M  V30 26 1 1 24
M  V30 27 1 1 25
M  V30 28 1 1 26
M  V30 29 1 5 27
M  V30 30 1 6 28
M  V30 31 1 9 29
M  V30 32 1 12 30
M  V30 33 1 16 31
M  V30 34 1 16 32
M  V30 35 1 19 33
M  V30 36 1 22 34
M  V30 END BOND
M  V30 END CTAB
M  END
>  <Dataset>  (81) 
ChEMBL_Kinases

>  <Ligand_Instance>  (81) 
nan

>  <PDB_ID>  (81) 
nan

>  <Standardized_SMILES>  (81) 
CC(=O)c1ccc(-c2cc3ncnc(SCC(=O)O)c3s2)cn1

>  <Name>  (81) 
nan

>  <Pocket>  (81) 
nan

>  <ATP_Site>  (81) 
nan

>  <Peripheral>  (81) 
nan

>  <Num_H_Atoms_ProtBoundConf>  (81) 
nan

>  <Num_Resolved_Atoms>  (81) 
nan

>  <Num_Not_Resolved_Atoms>  (81) 
nan

$$$$
CHEMBL4464632
     RDKit          3D

  0  0  0  0  0  0  0  0  0  0999 V3000
M  V30 BEGIN CTAB
M  V30 COUNTS 54 57 0 0 0
M  V30 BEGIN ATOM
M  V30 1 C 3.387104 0.488436 7.181026 0
M  V30 2 C 2.224223 0.708682 6.568608 0
M  V30 3 C 1.958405 0.585465 5.135208 0
M  V30 4 O 0.883699 0.776846 4.480674 0
M  V30 5 N 2.998603 0.196060 4.245738 0
M  V30 6 C 2.571111 0.125334 2.888744 0
M  V30 7 C 2.055545 -1.042936 2.328550 0
M  V30 8 C 1.645175 -1.078424 0.993425 0
M  V30 9 C 1.754830 0.074884 0.212619 0
M  V30 10 N 1.319871 -0.059818 -1.135520 0
M  V30 11 C 0.769645 -1.211837 -1.753601 0
M  V30 12 N -0.568652 -1.271256 -1.722283 0
M  V30 13 C -1.321562 -2.253377 -2.234208 0
M  V30 14 N -2.727405 -2.282187 -2.183760 0
M  V30 15 C -3.564919 -1.332690 -1.542004 0
M  V30 16 C -4.473596 -0.572859 -2.285114 0
M  V30 17 C -5.274964 0.337247 -1.636384 0
M  V30 18 C -5.219830 0.533503 -0.273191 0
M  V30 19 C -4.324715 -0.205257 0.513954 0
M  V30 20 C -3.550356 -1.099917 -0.189823 0
M  V30 21 C -2.661921 -1.873012 0.668746 0
M  V30 22 N -2.503239 -1.755564 2.050464 0
M  V30 23 O -1.806086 -2.788265 0.676512 0
M  V30 24 C -0.681492 -3.308077 -2.853816 0
M  V30 25 C -1.033098 -4.493962 -3.499726 0
M  V30 26 C 0.139742 -5.112695 -3.901489 0
M  V30 27 N 1.198433 -4.347776 -3.524796 0
M  V30 28 C 0.694386 -3.271080 -2.899295 0
M  V30 29 N 1.377716 -2.259309 -2.367592 0
M  V30 30 C 2.265550 1.229070 0.771540 0
M  V30 31 O 2.297751 2.264487 -0.148280 0
M  V30 32 C 2.773946 3.552825 0.164259 0
M  V30 33 C 2.666475 1.249313 2.089859 0
M  V30 34 H 4.220169 0.189425 6.565486 0
M  V30 35 H 3.368525 0.634785 8.237703 0
M  V30 36 H 1.312369 1.012367 7.064393 0
M  V30 37 H 3.974865 -0.016267 4.556407 0
M  V30 38 H 1.993652 -1.907102 2.982158 0
M  V30 39 H 1.248078 -1.995006 0.577981 0
M  V30 40 H 1.337661 0.666814 -1.883248 0
M  V30 41 H -3.292237 -3.027594 -2.628326 0
M  V30 42 H -4.498207 -0.744776 -3.353582 0
M  V30 43 H -5.953051 0.886571 -2.289212 0
M  V30 44 H -5.868337 1.255317 0.166283 0
M  V30 45 H -4.280577 -0.052732 1.580781 0
M  V30 46 H -1.852058 -1.247595 2.717831 0
M  V30 47 H -2.981610 -2.136431 2.878414 0
M  V30 48 H -2.075560 -4.773256 -3.605693 0
M  V30 49 H 0.113806 -6.063908 -4.432071 0
M  V30 50 H 2.168321 -4.660350 -3.745935 0
M  V30 51 H 1.908150 4.155219 0.540277 0
M  V30 52 H 3.189215 4.070796 -0.734458 0
M  V30 53 H 3.538081 3.534297 0.963380 0
M  V30 54 H 3.049327 2.194116 2.431088 0
M  V30 END ATOM
M  V30 BEGIN BOND
M  V30 1 2 1 2
M  V30 2 1 2 3
M  V30 3 2 3 4
M  V30 4 1 3 5
M  V30 5 1 5 6
M  V30 6 2 6 7
M  V30 7 1 7 8
M  V30 8 2 8 9
M  V30 9 1 9 10
M  V30 10 1 10 11
M  V30 11 2 11 12
M  V30 12 1 12 13
M  V30 13 1 13 14
M  V30 14 1 14 15
M  V30 15 2 15 16
M  V30 16 1 16 17
M  V30 17 2 17 18
M  V30 18 1 18 19
M  V30 19 2 19 20
M  V30 20 1 20 21
M  V30 21 1 21 22
M  V30 22 2 21 23
M  V30 23 2 13 24
M  V30 24 1 24 25
M  V30 25 2 25 26
M  V30 26 1 26 27
M  V30 27 1 27 28
M  V30 28 2 28 29
M  V30 29 1 9 30
M  V30 30 1 30 31
M  V30 31 1 31 32
M  V30 32 2 30 33
M  V30 33 1 33 6
M  V30 34 1 29 11
M  V30 35 1 20 15
M  V30 36 1 28 24
M  V30 37 1 1 34
M  V30 38 1 1 35
M  V30 39 1 2 36
M  V30 40 1 5 37
M  V30 41 1 7 38
M  V30 42 1 8 39
M  V30 43 1 10 40
M  V30 44 1 14 41
M  V30 45 1 16 42
M  V30 46 1 17 43
M  V30 47 1 18 44
M  V30 48 1 19 45
M  V30 49 1 22 46
M  V30 50 1 22 47
M  V30 51 1 25 48
M  V30 52 1 26 49
M  V30 53 1 27 50
M  V30 54 1 32 51
M  V30 55 1 32 52
M  V30 56 1 32 53
M  V30 57 1 33 54
M  V30 END BOND
M  V30 END CTAB
M  END
>  <Dataset>  (82) 
ChEMBL_Kinases

>  <Ligand_Instance>  (82) 
nan

>  <PDB_ID>  (82) 
nan

>  <Standardized_SMILES>  (82) 
C=CC(=O)Nc1ccc(Nc2nc(Nc3ccccc3C(N)=O)c3cc[nH]c3n2)c(OC)c1

>  <Name>  (82) 
nan

>  <Pocket>  (82) 
nan

>  <ATP_Site>  (82) 
nan

>  <Peripheral>  (82) 
nan

>  <Num_H_Atoms_ProtBoundConf>  (82) 
nan

>  <Num_Resolved_Atoms>  (82) 
nan

>  <Num_Not_Resolved_Atoms>  (82) 
nan

$$$$
CHEMBL4464624
     RDKit          3D

  0  0  0  0  0  0  0  0  0  0999 V3000
M  V30 BEGIN CTAB
M  V30 COUNTS 37 40 0 0 0
M  V30 BEGIN ATOM
M  V30 1 C 1.573156 -3.870666 -2.644152 0
M  V30 2 C 1.705925 -4.104342 -1.186361 0
M  V30 3 C 1.474595 -5.301782 -0.586987 0
M  V30 4 Cl 0.989703 -6.663729 -1.576693 0
M  V30 5 C 1.613642 -5.461301 0.773021 0
M  V30 6 C 2.001265 -4.356949 1.533667 0
M  V30 7 C 2.240966 -3.126574 0.932951 0
M  V30 8 C 2.088626 -3.012157 -0.439006 0
M  V30 9 N 2.369325 -1.679841 -0.930199 0
M  V30 10 C 1.445797 -0.833867 -1.126482 0
M  V30 11 N 1.395598 0.515796 -1.588972 0
M  V30 12 C 0.341583 1.301878 -1.048904 0
M  V30 13 O 0.073134 2.497425 -1.297222 0
M  V30 14 C -0.491028 0.583169 -0.114963 0
M  V30 15 C -1.134634 0.809634 0.981516 0
M  V30 16 C -1.958675 -0.054307 1.808818 0
M  V30 17 O -2.164124 -1.230678 1.452657 0
M  V30 18 N -2.374001 0.708594 2.927126 0
M  V30 19 C -1.792928 2.014351 2.755470 0
M  V30 20 C -1.965877 3.027426 3.671959 0
M  V30 21 C -1.346215 4.233923 3.433877 0
M  V30 22 C -0.570460 4.384649 2.281256 0
M  V30 23 C -0.465663 3.311378 1.435137 0
M  V30 24 C -1.048211 2.099833 1.604335 0
M  V30 25 S -0.351213 -1.083626 -0.853241 0
M  V30 26 H 0.530111 -3.696099 -2.962289 0
M  V30 27 H 2.200496 -3.061911 -3.023121 0
M  V30 28 H 1.962342 -4.815300 -3.123891 0
M  V30 29 H 1.422272 -6.434173 1.234188 0
M  V30 30 H 2.114600 -4.463436 2.596152 0
M  V30 31 H 2.539751 -2.312053 1.591109 0
M  V30 32 H 2.130392 0.858955 -2.289534 0
M  V30 33 H -2.980359 0.310216 3.672199 0
M  V30 34 H -2.555563 2.951663 4.572509 0
M  V30 35 H -1.471203 5.040766 4.141904 0
M  V30 36 H -0.127164 5.365685 2.187419 0
M  V30 37 H 0.181687 3.591026 0.647716 0
M  V30 END ATOM
M  V30 BEGIN BOND
M  V30 1 1 1 2
M  V30 2 2 2 3
M  V30 3 1 3 4
M  V30 4 1 3 5
M  V30 5 2 5 6
M  V30 6 1 6 7
M  V30 7 2 7 8
M  V30 8 1 8 9
M  V30 9 2 9 10
M  V30 10 1 10 11
M  V30 11 1 11 12
M  V30 12 2 12 13
M  V30 13 1 12 14
M  V30 14 2 14 15
M  V30 15 1 15 16
M  V30 16 2 16 17
M  V30 17 1 16 18
M  V30 18 1 18 19
M  V30 19 2 19 20
M  V30 20 1 20 21
M  V30 21 2 21 22
M  V30 22 1 22 23
M  V30 23 2 23 24
M  V30 24 1 14 25
M  V30 25 1 8 2
M  V30 26 1 25 10
M  V30 27 1 24 15
M  V30 28 1 24 19
M  V30 29 1 1 26
M  V30 30 1 1 27
M  V30 31 1 1 28
M  V30 32 1 5 29
M  V30 33 1 6 30
M  V30 34 1 7 31
M  V30 35 1 11 32
M  V30 36 1 18 33
M  V30 37 1 20 34
M  V30 38 1 21 35
M  V30 39 1 22 36
M  V30 40 1 23 37
M  V30 END BOND
M  V30 END CTAB
M  END
>  <Dataset>  (83) 
ChEMBL_Kinases

>  <Ligand_Instance>  (83) 
nan

>  <PDB_ID>  (83) 
nan

>  <Standardized_SMILES>  (83) 
Cc1c(Cl)cccc1/N=C1/NC(=O)/C(=C2/C(=O)Nc3ccccc32)S1

>  <Name>  (83) 
nan

>  <Pocket>  (83) 
nan

>  <ATP_Site>  (83) 
nan

>  <Peripheral>  (83) 
nan

>  <Num_H_Atoms_ProtBoundConf>  (83) 
nan

>  <Num_Resolved_Atoms>  (83) 
nan

>  <Num_Not_Resolved_Atoms>  (83) 
nan

$$$$
CHEMBL4464585
     RDKit          3D

  0  0  0  0  0  0  0  0  0  0999 V3000
M  V30 BEGIN CTAB
M  V30 COUNTS 72 76 0 0 0
M  V30 BEGIN ATOM
M  V30 1 C 6.039292 -1.904823 3.064639 0
M  V30 2 O 4.978712 -2.833070 3.197672 0
M  V30 3 C 3.778490 -2.585742 2.555815 0
M  V30 4 C 2.807129 -3.545113 2.746836 0
M  V30 5 C 1.575776 -3.325341 2.110389 0
M  V30 6 C 1.280805 -2.220035 1.313356 0
M  V30 7 O 0.074311 -2.082023 0.736423 0
M  V30 8 C -1.101763 -1.555759 1.107858 0
M  V30 9 N -2.133278 -1.601216 0.218938 0
M  V30 10 C -3.355242 -1.109241 0.474061 0
M  V30 11 N -4.423084 -1.153250 -0.464653 0
M  V30 12 C -4.351424 -1.567187 -1.820848 0
M  V30 13 C -5.481872 -1.865595 -2.564414 0
M  V30 14 C -5.534994 -2.246656 -3.884716 0
M  V30 15 C -4.316963 -2.353208 -4.568124 0
M  V30 16 N -4.295475 -2.753473 -5.933403 0
M  V30 17 C -5.368965 -3.396616 -6.660669 0
M  V30 18 C -5.767590 -2.477607 -7.786587 0
M  V30 19 O -4.729983 -1.756921 -8.308135 0
M  V30 20 C -3.476073 -2.292373 -8.129399 0
M  V30 21 C -3.067530 -2.467151 -6.684573 0
M  V30 22 C -3.142731 -2.071334 -3.893730 0
M  V30 23 C -3.192117 -1.694931 -2.568621 0
M  V30 24 N -3.666867 -0.516002 1.663252 0
M  V30 25 C -2.689885 -0.428184 2.611012 0
M  V30 26 C -1.458365 -0.951593 2.285940 0
M  V30 27 N -0.507442 -0.807217 3.317732 0
M  V30 28 C 0.368115 0.262961 3.419925 0
M  V30 29 O -0.181408 0.743821 2.313508 0
M  V30 30 C 1.351050 1.246671 3.728777 0
M  V30 31 C 1.684390 2.351449 3.008250 0
M  V30 32 C 2.670778 3.156649 3.542859 0
M  V30 33 O 2.952360 4.260388 2.755244 0
M  V30 34 C 3.887607 5.251219 3.006737 0
M  V30 35 C 3.253945 2.834082 4.720783 0
M  V30 36 C 2.962526 1.738644 5.490161 0
M  V30 37 O 3.591235 1.456935 6.694801 0
M  V30 38 C 4.589942 2.214139 7.290649 0
M  V30 39 C 1.965976 0.927680 4.945306 0
M  V30 40 C 2.329400 -1.334227 1.199100 0
M  V30 41 C 3.580169 -1.459547 1.785322 0
M  V30 42 H 5.736136 -0.955474 3.593839 0
M  V30 43 H 6.992803 -2.288411 3.430713 0
M  V30 44 H 6.137717 -1.657970 1.990144 0
M  V30 45 H 2.901498 -4.450724 3.333074 0
M  V30 46 H 0.792723 -4.071047 2.244553 0
M  V30 47 H -5.387380 -0.860840 -0.187940 0
M  V30 48 H -6.447031 -1.801081 -2.069592 0
M  V30 49 H -6.489297 -2.444309 -4.346893 0
M  V30 50 H -5.022223 -4.360633 -7.124462 0
M  V30 51 H -6.208139 -3.628912 -5.983621 0
M  V30 52 H -6.335134 -3.029193 -8.576487 0
M  V30 53 H -6.502235 -1.759399 -7.362053 0
M  V30 54 H -3.318413 -3.263147 -8.678080 0
M  V30 55 H -2.747751 -1.574226 -8.582803 0
M  V30 56 H -2.406699 -3.349713 -6.552178 0
M  V30 57 H -2.598781 -1.539440 -6.279732 0
M  V30 58 H -2.177058 -2.153979 -4.404224 0
M  V30 59 H -2.245293 -1.484946 -2.112290 0
M  V30 60 H -2.937130 0.038345 3.538662 0
M  V30 61 H -0.099809 -1.208849 4.245031 0
M  V30 62 H 1.190763 2.568834 2.074429 0
M  V30 63 H 4.385352 5.650393 2.087837 0
M  V30 64 H 4.701573 4.835841 3.639944 0
M  V30 65 H 3.496936 6.133046 3.559520 0
M  V30 66 H 4.002578 3.540388 5.025252 0
M  V30 67 H 4.179934 2.871750 8.108809 0
M  V30 68 H 5.130733 2.798571 6.512064 0
M  V30 69 H 5.351287 1.574893 7.846414 0
M  V30 70 H 1.753277 0.052924 5.589620 0
M  V30 71 H 2.205261 -0.447330 0.609503 0
M  V30 72 H 4.367113 -0.742700 1.664107 0
M  V30 END ATOM
M  V30 BEGIN BOND
M  V30 1 1 1 2
M  V30 2 1 2 3
M  V30 3 2 3 4
M  V30 4 1 4 5
M  V30 5 2 5 6
M  V30 6 1 6 7
M  V30 7 1 7 8
M  V30 8 2 8 9
M  V30 9 1 9 10
M  V30 10 1 10 11
M  V30 11 1 11 12
M  V30 12 2 12 13
M  V30 13 1 13 14
M  V30 14 2 14 15
M  V30 15 1 15 16
M  V30 16 1 16 17
M  V30 17 1 17 18
M  V30 18 1 18 19
M  V30 19 1 19 20
M  V30 20 1 20 21
M  V30 21 1 15 22
M  V30 22 2 22 23
M  V30 23 2 10 24
M  V30 24 1 24 25
M  V30 25 2 25 26
M  V30 26 1 26 27
M  V30 27 1 27 28
M  V30 28 2 28 29
M  V30 29 1 28 30
M  V30 30 2 30 31
M  V30 31 1 31 32
M  V30 32 1 32 33
M  V30 33 1 33 34
M  V30 34 2 32 35
M  V30 35 1 35 36
M  V30 36 1 36 37
M  V30 37 1 37 38
M  V30 38 2 36 39
M  V30 39 1 6 40
M  V30 40 2 40 41
M  V30 41 1 41 3
M  V30 42 1 26 8
M  V30 43 1 39 30
M  V30 44 1 23 12
M  V30 45 1 21 16
M  V30 46 1 1 42
M  V30 47 1 1 43
M  V30 48 1 1 44
M  V30 49 1 4 45
M  V30 50 1 5 46
M  V30 51 1 11 47
M  V30 52 1 13 48
M  V30 53 1 14 49
M  V30 54 1 17 50
M  V30 55 1 17 51
M  V30 56 1 18 52
M  V30 57 1 18 53
M  V30 58 1 20 54
M  V30 59 1 20 55
M  V30 60 1 21 56
M  V30 61 1 21 57
M  V30 62 1 22 58
M  V30 63 1 23 59
M  V30 64 1 25 60
M  V30 65 1 27 61
M  V30 66 1 31 62
M  V30 67 1 34 63
M  V30 68 1 34 64
M  V30 69 1 34 65
M  V30 70 1 35 66
M  V30 71 1 38 67
M  V30 72 1 38 68
M  V30 73 1 38 69
M  V30 74 1 39 70
M  V30 75 1 40 71
M  V30 76 1 41 72
M  V30 END BOND
M  V30 END CTAB
M  END
>  <Dataset>  (84) 
ChEMBL_Kinases

>  <Ligand_Instance>  (84) 
nan

>  <PDB_ID>  (84) 
nan

>  <Standardized_SMILES>  (84) 
COc1ccc(Oc2nc(Nc3ccc(N4CCOCC4)cc3)ncc2NC(=O)c2cc(OC)cc(OC)c2)cc1

>  <Name>  (84) 
nan

>  <Pocket>  (84) 
nan

>  <ATP_Site>  (84) 
nan

>  <Peripheral>  (84) 
nan

>  <Num_H_Atoms_ProtBoundConf>  (84) 
nan

>  <Num_Resolved_Atoms>  (84) 
nan

>  <Num_Not_Resolved_Atoms>  (84) 
nan

$$$$
CHEMBL4740155
     RDKit          3D

  0  0  0  0  0  0  0  0  0  0999 V3000
M  V30 BEGIN CTAB
M  V30 COUNTS 41 43 0 0 0
M  V30 BEGIN ATOM
M  V30 1 C 3.642857 -3.398254 3.413732 0
M  V30 2 O 2.314165 -3.621183 2.912147 0
M  V30 3 C 1.569708 -2.802730 2.195475 0
M  V30 4 C 1.593137 -1.542079 1.648131 0
M  V30 5 C 0.620435 -0.901927 0.917912 0
M  V30 6 N 0.861829 0.397718 0.416207 0
M  V30 7 C 0.038244 1.542364 0.432842 0
M  V30 8 C -1.197330 1.605477 1.034133 0
M  V30 9 C -2.083537 2.686871 1.091091 0
M  V30 10 N -1.587734 3.770956 0.449363 0
M  V30 11 C -0.407295 3.836239 -0.170292 0
M  V30 12 C 0.002958 4.984759 -0.799163 0
M  V30 13 C 1.235124 5.096644 -1.469145 0
M  V30 14 I 1.616380 6.961787 -2.350030 0
M  V30 15 C 2.014043 3.947431 -1.448021 0
M  V30 16 C 1.583688 2.794941 -0.807440 0
M  V30 17 C 0.375456 2.717421 -0.161645 0
M  V30 18 C -0.546270 -1.626661 0.704087 0
M  V30 19 C -0.721027 -2.912026 1.190806 0
M  V30 20 O -1.876454 -3.638657 0.986167 0
M  V30 21 C -2.941908 -3.070725 0.276538 0
M  V30 22 C 0.342188 -3.473294 1.923844 0
M  V30 23 O 0.054547 -4.788220 2.358759 0
M  V30 24 C 0.396630 -5.885141 1.492140 0
M  V30 25 H 3.720958 -2.364120 3.809910 0
M  V30 26 H 3.826287 -4.135779 4.203875 0
M  V30 27 H 4.329922 -3.625997 2.586811 0
M  V30 28 H 2.569589 -1.100119 1.905787 0
M  V30 29 H 1.797509 0.431724 -0.012682 0
M  V30 30 H -1.591393 0.720606 1.561429 0
M  V30 31 H -3.035052 2.629787 1.591673 0
M  V30 32 H -0.694434 5.807570 -0.741849 0
M  V30 33 H 2.941302 4.103150 -1.980418 0
M  V30 34 H 2.334590 2.050600 -0.919320 0
M  V30 35 H -1.306748 -1.125559 0.127754 0
M  V30 36 H -3.034440 -2.000645 0.613322 0
M  V30 37 H -3.907427 -3.531505 0.638423 0
M  V30 38 H -2.870742 -3.074974 -0.805281 0
M  V30 39 H -0.321310 -6.017263 0.671404 0
M  V30 40 H 1.400658 -5.706074 1.028982 0
M  V30 41 H 0.493730 -6.839160 2.037621 0
M  V30 END ATOM
M  V30 BEGIN BOND
M  V30 1 1 1 2
M  V30 2 1 2 3
M  V30 3 2 3 4
M  V30 4 1 4 5
M  V30 5 1 5 6
M  V30 6 1 6 7
M  V30 7 2 7 8
M  V30 8 1 8 9
M  V30 9 2 9 10
M  V30 10 1 10 11
M  V30 11 2 11 12
M  V30 12 1 12 13
M  V30 13 1 13 14
M  V30 14 2 13 15
M  V30 15 1 15 16
M  V30 16 2 16 17
M  V30 17 2 5 18
M  V30 18 1 18 19
M  V30 19 1 19 20
M  V30 20 1 20 21
M  V30 21 2 19 22
M  V30 22 1 22 23
M  V30 23 1 23 24
M  V30 24 1 22 3
M  V30 25 1 17 7
M  V30 26 1 17 11
M  V30 27 1 1 25
M  V30 28 1 1 26
M  V30 29 1 1 27
M  V30 30 1 4 28
M  V30 31 1 6 29
M  V30 32 1 8 30
M  V30 33 1 9 31
M  V30 34 1 12 32
M  V30 35 1 15 33
M  V30 36 1 16 34
M  V30 37 1 18 35
M  V30 38 1 21 36
M  V30 39 1 21 37
M  V30 40 1 21 38
M  V30 41 1 24 39
M  V30 42 1 24 40
M  V30 43 1 24 41
M  V30 END BOND
M  V30 END CTAB
M  END
>  <Dataset>  (85) 
ChEMBL_Kinases

>  <Ligand_Instance>  (85) 
nan

>  <PDB_ID>  (85) 
nan

>  <Standardized_SMILES>  (85) 
COc1cc(Nc2ccnc3cc(I)ccc23)cc(OC)c1OC

>  <Name>  (85) 
nan

>  <Pocket>  (85) 
nan

>  <ATP_Site>  (85) 
nan

>  <Peripheral>  (85) 
nan

>  <Num_H_Atoms_ProtBoundConf>  (85) 
nan

>  <Num_Resolved_Atoms>  (85) 
nan

>  <Num_Not_Resolved_Atoms>  (85) 
nan

$$$$
CHEMBL4740156
     RDKit          3D

  0  0  0  0  0  0  0  0  0  0999 V3000
M  V30 BEGIN CTAB
M  V30 COUNTS 57 60 0 0 0
M  V30 BEGIN ATOM
M  V30 1 C 5.060769 -7.148910 1.733386 0
M  V30 2 C 4.721852 -5.719121 1.786400 0
M  V30 3 C 3.422315 -5.260526 1.780158 0
M  V30 4 C 3.072003 -3.906538 1.829759 0
M  V30 5 C 4.082590 -2.971306 1.888493 0
M  V30 6 C 3.691902 -1.566628 1.939983 0
M  V30 7 C 4.564763 -0.502035 2.001663 0
M  V30 8 C 4.160119 0.803848 2.048786 0
M  V30 9 N 2.817744 1.024043 2.032131 0
M  V30 10 C 1.936974 0.011501 1.972487 0
M  V30 11 N 0.526287 0.197236 1.953942 0
M  V30 12 C -0.242898 0.350328 0.768339 0
M  V30 13 C 0.348741 0.331040 -0.465438 0
M  V30 14 C -0.403161 0.480528 -1.634689 0
M  V30 15 C -1.772242 0.652857 -1.570188 0
M  V30 16 C -2.300430 0.663981 -0.296172 0
M  V30 17 C -1.605448 0.518658 0.912367 0
M  V30 18 N -3.702494 0.874900 -0.199702 0
M  V30 19 C -4.364797 1.569033 0.888264 0
M  V30 20 C -5.401592 2.471271 0.183885 0
M  V30 21 C -3.465925 2.559441 1.615650 0
M  V30 22 C -4.560551 0.342947 -1.278464 0 CFG=2
M  V30 23 C -4.335663 -1.144401 -1.337816 0
M  V30 24 C -4.055923 0.912795 -2.582618 0
M  V30 25 O -4.631988 1.473527 -3.566870 0
M  V30 26 N -2.623399 0.775452 -2.701448 0
M  V30 27 C -1.924572 0.753970 -3.996723 0
M  V30 28 N 2.382894 -1.256466 1.927694 0
M  V30 29 C 5.400189 -3.375235 1.897450 0
M  V30 30 C 5.681405 -4.725501 1.846620 0
M  V30 31 H 5.713041 -7.400308 0.878450 0
M  V30 32 H 4.114306 -7.731793 1.709242 0
M  V30 33 H 5.537511 -7.402136 2.710664 0
M  V30 34 H 2.650050 -6.043450 1.732477 0
M  V30 35 H 2.016594 -3.671061 1.818660 0
M  V30 36 H 5.613235 -0.712715 2.012754 0
M  V30 37 H 4.840975 1.620863 2.096421 0
M  V30 38 H 0.102494 0.211133 2.905929 0
M  V30 39 H 1.415675 0.200651 -0.595169 0
M  V30 40 H 0.059182 0.466072 -2.611046 0
M  V30 41 H -2.162991 0.535836 1.838029 0
M  V30 42 H -4.924843 0.910388 1.555053 0
M  V30 43 H -5.509969 3.407855 0.768397 0
M  V30 44 H -4.964633 2.771587 -0.783852 0
M  V30 45 H -6.372604 1.950492 0.118938 0
M  V30 46 H -3.359099 2.327146 2.698685 0
M  V30 47 H -3.941632 3.597561 1.650419 0
M  V30 48 H -2.512147 2.757370 1.093067 0
M  V30 49 H -5.608587 0.594913 -1.155286 0
M  V30 50 H -3.248241 -1.331565 -1.127474 0
M  V30 51 H -4.891529 -1.619876 -0.496708 0
M  V30 52 H -4.611625 -1.582552 -2.320268 0
M  V30 53 H -2.706813 0.587215 -4.767744 0
M  V30 54 H -1.255626 -0.119890 -4.055401 0
M  V30 55 H -1.332815 1.659595 -4.157676 0
M  V30 56 H 6.193431 -2.664240 1.942818 0
M  V30 57 H 6.729212 -5.023529 1.854381 0
M  V30 END ATOM
M  V30 BEGIN BOND
M  V30 1 1 1 2
M  V30 2 2 2 3
M  V30 3 1 3 4
M  V30 4 2 4 5
M  V30 5 1 5 6
M  V30 6 2 6 7
M  V30 7 1 7 8
M  V30 8 2 8 9
M  V30 9 1 9 10
M  V30 10 1 10 11
M  V30 11 1 11 12
M  V30 12 2 12 13
M  V30 13 1 13 14
M  V30 14 2 14 15
M  V30 15 1 15 16
M  V30 16 2 16 17
M  V30 17 1 16 18
M  V30 18 1 18 19
M  V30 19 1 19 20
M  V30 20 1 19 21
M  V30 21 1 18 22
M  V30 22 1 22 23
M  V30 23 1 22 24
M  V30 24 2 24 25
M  V30 25 1 24 26
M  V30 26 1 26 27
M  V30 27 2 10 28
M  V30 28 1 5 29
M  V30 29 2 29 30
M  V30 30 1 30 2
M  V30 31 1 28 6
M  V30 32 1 17 12
M  V30 33 1 26 15
M  V30 34 1 1 31
M  V30 35 1 1 32
M  V30 36 1 1 33
M  V30 37 1 3 34
M  V30 38 1 4 35
M  V30 39 1 7 36
M  V30 40 1 8 37
M  V30 41 1 11 38
M  V30 42 1 13 39
M  V30 43 1 14 40
M  V30 44 1 17 41
M  V30 45 1 19 42
M  V30 46 1 20 43
M  V30 47 1 20 44
M  V30 48 1 20 45
M  V30 49 1 21 46
M  V30 50 1 21 47
M  V30 51 1 21 48
M  V30 52 1 22 49 CFG=1
M  V30 53 1 23 50
M  V30 54 1 23 51
M  V30 55 1 23 52
M  V30 56 1 27 53
M  V30 57 1 27 54
M  V30 58 1 27 55
M  V30 59 1 29 56
M  V30 60 1 30 57
M  V30 END BOND
M  V30 END CTAB
M  END
>  <Dataset>  (86) 
ChEMBL_Kinases

>  <Ligand_Instance>  (86) 
nan

>  <PDB_ID>  (86) 
nan

>  <Standardized_SMILES>  (86) 
Cc1ccc(-c2ccnc(Nc3ccc4c(c3)N(C(C)C)[C@H](C)C(=O)N4C)n2)cc1

>  <Name>  (86) 
nan

>  <Pocket>  (86) 
nan

>  <ATP_Site>  (86) 
nan

>  <Peripheral>  (86) 
nan

>  <Num_H_Atoms_ProtBoundConf>  (86) 
nan

>  <Num_Resolved_Atoms>  (86) 
nan

>  <Num_Not_Resolved_Atoms>  (86) 
nan

$$$$
CHEMBL4740659
     RDKit          3D

  0  0  0  0  0  0  0  0  0  0999 V3000
M  V30 BEGIN CTAB
M  V30 COUNTS 44 47 0 0 0
M  V30 BEGIN ATOM
M  V30 1 N -0.596878 -2.741705 0.717317 0
M  V30 2 C 0.577844 -2.491838 -0.004940 0
M  V30 3 C 1.621371 -3.430849 -0.063226 0
M  V30 4 C 1.509956 -4.633584 0.601035 0
M  V30 5 C 2.580560 -5.523955 0.501625 0
M  V30 6 N 3.693812 -5.259559 -0.202317 0
M  V30 7 C 3.787855 -4.082429 -0.844770 0
M  V30 8 C 2.760188 -3.131328 -0.798044 0
M  V30 9 C 2.929096 -1.944253 -1.487202 0
M  V30 10 C 1.922397 -0.987074 -1.457168 0
M  V30 11 C 2.022899 0.213806 -2.123106 0
M  V30 12 N 0.982759 1.066119 -2.024798 0
M  V30 13 C -0.119726 0.764767 -1.304338 0
M  V30 14 N -1.269056 1.621144 -1.136584 0
M  V30 15 C -0.679575 2.668016 -0.285335 0
M  V30 16 C 0.037544 2.073036 0.881935 0
M  V30 17 N -0.887305 1.298391 1.667301 0
M  V30 18 C -0.222723 0.603794 2.760103 0
M  V30 19 C -1.283904 0.227198 3.765676 0
M  V30 20 O -1.715876 1.336173 4.497148 0
M  V30 21 C -1.441069 2.455393 3.700969 0
M  V30 22 C -1.897312 2.134377 2.285756 0
M  V30 23 N -0.187078 -0.421646 -0.664737 0
M  V30 24 C 0.813493 -1.335679 -0.712568 0
M  V30 25 H -1.032705 -3.697043 0.788267 0
M  V30 26 H -1.167331 -2.050167 1.259142 0
M  V30 27 H 0.617785 -4.858025 1.172552 0
M  V30 28 H 2.550541 -6.482466 1.002095 0
M  V30 29 H 4.700072 -3.903525 -1.400834 0
M  V30 30 H 3.827830 -1.739710 -2.050427 0
M  V30 31 H 2.901978 0.455260 -2.697985 0
M  V30 32 H -2.233897 1.528117 -1.510720 0
M  V30 33 H 0.083473 3.178788 -0.933863 0
M  V30 34 H -1.424756 3.442274 -0.050395 0
M  V30 35 H 0.483071 2.902237 1.470471 0
M  V30 36 H 0.813723 1.397492 0.483128 0
M  V30 37 H 0.646083 1.112425 3.167369 0
M  V30 38 H 0.138382 -0.372659 2.348891 0
M  V30 39 H -0.970320 -0.604559 4.420424 0
M  V30 40 H -2.152703 -0.170908 3.175940 0
M  V30 41 H -0.386789 2.737962 3.757107 0
M  V30 42 H -2.071928 3.312682 4.076150 0
M  V30 43 H -2.031873 3.121083 1.796745 0
M  V30 44 H -2.832021 1.541609 2.333800 0
M  V30 END ATOM
M  V30 BEGIN BOND
M  V30 1 1 1 2
M  V30 2 2 2 3
M  V30 3 1 3 4
M  V30 4 2 4 5
M  V30 5 1 5 6
M  V30 6 2 6 7
M  V30 7 1 7 8
M  V30 8 2 8 9
M  V30 9 1 9 10
M  V30 10 2 10 11
M  V30 11 1 11 12
M  V30 12 2 12 13
M  V30 13 1 13 14
M  V30 14 1 14 15
M  V30 15 1 15 16
M  V30 16 1 16 17
M  V30 17 1 17 18
M  V30 18 1 18 19
M  V30 19 1 19 20
M  V30 20 1 20 21
M  V30 21 1 21 22
M  V30 22 1 13 23
M  V30 23 2 23 24
M  V30 24 1 24 2
M  V30 25 1 8 3
M  V30 26 1 24 10
M  V30 27 1 22 17
M  V30 28 1 1 25
M  V30 29 1 1 26
M  V30 30 1 4 27
M  V30 31 1 5 28
M  V30 32 1 7 29
M  V30 33 1 9 30
M  V30 34 1 11 31
M  V30 35 1 14 32
M  V30 36 1 15 33
M  V30 37 1 15 34
M  V30 38 1 16 35
M  V30 39 1 16 36
M  V30 40 1 18 37
M  V30 41 1 18 38
M  V30 42 1 19 39
M  V30 43 1 19 40
M  V30 44 1 21 41
M  V30 45 1 21 42
M  V30 46 1 22 43
M  V30 47 1 22 44
M  V30 END BOND
M  V30 END CTAB
M  END
>  <Dataset>  (87) 
ChEMBL_Kinases

>  <Ligand_Instance>  (87) 
nan

>  <PDB_ID>  (87) 
nan

>  <Standardized_SMILES>  (87) 
Nc1c2ccncc2cc2cnc(NCCN3CCOCC3)nc12

>  <Name>  (87) 
nan

>  <Pocket>  (87) 
nan

>  <ATP_Site>  (87) 
nan

>  <Peripheral>  (87) 
nan

>  <Num_H_Atoms_ProtBoundConf>  (87) 
nan

>  <Num_Resolved_Atoms>  (87) 
nan

>  <Num_Not_Resolved_Atoms>  (87) 
nan

$$$$
CHEMBL4740167
     RDKit          3D

  0  0  0  0  0  0  0  0  0  0999 V3000
M  V30 BEGIN CTAB
M  V30 COUNTS 46 48 0 0 0
M  V30 BEGIN ATOM
M  V30 1 C 1.233606 -5.076403 1.570728 0
M  V30 2 C 0.438414 -4.339172 0.540301 0
M  V30 3 C -0.619797 -3.466736 1.219140 0
M  V30 4 O 1.185407 -3.598097 -0.373862 0
M  V30 5 C 2.045365 -2.566678 -0.122061 0
M  V30 6 C 3.398091 -2.788885 0.114750 0
M  V30 7 C 4.237213 -1.697178 0.366930 0
M  V30 8 C 3.768023 -0.397529 0.389528 0
M  V30 9 C 2.433783 -0.134370 0.159925 0
M  V30 10 C 1.816617 1.189279 0.148980 0
M  V30 11 C 2.440711 2.350931 -0.258550 0
M  V30 12 N 1.799467 3.532469 -0.233403 0
M  V30 13 C 0.529016 3.659038 0.183491 0
M  V30 14 N -0.183449 4.891116 0.224594 0
M  V30 15 C -0.180048 2.545493 0.612660 0
M  V30 16 C -1.556982 2.511915 1.094792 0
M  V30 17 C -1.725156 1.756070 2.262546 0
M  V30 18 C -2.935275 1.579225 2.901023 0
M  V30 19 C -4.031202 2.195710 2.333582 0
M  V30 20 Cl -5.586112 1.993264 3.117595 0
M  V30 21 C -3.904345 2.947291 1.185331 0
M  V30 22 C -2.682506 3.109258 0.564902 0
M  V30 23 C 0.506158 1.326072 0.578104 0
M  V30 24 C 1.612794 -1.235422 -0.089682 0
M  V30 25 C -0.330369 -5.367230 -0.250117 0
M  V30 26 O -1.092741 -6.166219 0.380868 0
M  V30 27 O -0.684937 -5.969491 -1.436297 0
M  V30 28 H 1.345589 -6.145579 1.281294 0
M  V30 29 H 2.236718 -4.596593 1.755671 0
M  V30 30 H 0.656269 -5.065084 2.539072 0
M  V30 31 H -1.212091 -2.939610 0.433154 0
M  V30 32 H -1.328337 -4.127492 1.751439 0
M  V30 33 H -0.188198 -2.766942 1.952543 0
M  V30 34 H 3.823273 -3.782622 0.110082 0
M  V30 35 H 5.290680 -1.811566 0.556071 0
M  V30 36 H 4.405101 0.455125 0.582713 0
M  V30 37 H 3.460899 2.263752 -0.595672 0
M  V30 38 H -0.781333 5.403944 -0.477766 0
M  V30 39 H 0.012008 5.254598 1.203817 0
M  V30 40 H -0.883761 1.244142 2.756002 0
M  V30 41 H -3.025674 0.988052 3.802466 0
M  V30 42 H -4.754255 3.434763 0.730728 0
M  V30 43 H -2.481240 3.674922 -0.332804 0
M  V30 44 H -0.020597 0.419146 0.911272 0
M  V30 45 H 0.537176 -1.124324 -0.284993 0
M  V30 46 H -0.135674 -6.608826 -1.972986 0
M  V30 END ATOM
M  V30 BEGIN BOND
M  V30 1 1 1 2
M  V30 2 1 2 3
M  V30 3 1 2 4
M  V30 4 1 4 5
M  V30 5 2 5 6
M  V30 6 1 6 7
M  V30 7 2 7 8
M  V30 8 1 8 9
M  V30 9 1 9 10
M  V30 10 2 10 11
M  V30 11 1 11 12
M  V30 12 2 12 13
M  V30 13 1 13 14
M  V30 14 1 13 15
M  V30 15 1 15 16
M  V30 16 2 16 17
M  V30 17 1 17 18
M  V30 18 2 18 19
M  V30 19 1 19 20
M  V30 20 1 19 21
M  V30 21 2 21 22
M  V30 22 2 15 23
M  V30 23 2 9 24
M  V30 24 1 2 25
M  V30 25 2 25 26
M  V30 26 1 25 27
M  V30 27 1 24 5
M  V30 28 1 23 10
M  V30 29 1 22 16
M  V30 30 1 1 28
M  V30 31 1 1 29
M  V30 32 1 1 30
M  V30 33 1 3 31
M  V30 34 1 3 32
M  V30 35 1 3 33
M  V30 36 1 6 34
M  V30 37 1 7 35
M  V30 38 1 8 36
M  V30 39 1 11 37
M  V30 40 1 14 38
M  V30 41 1 14 39
M  V30 42 1 17 40
M  V30 43 1 18 41
M  V30 44 1 21 42
M  V30 45 1 22 43
M  V30 46 1 23 44
M  V30 47 1 24 45
M  V30 48 1 27 46
M  V30 END BOND
M  V30 END CTAB
M  END
>  <Dataset>  (88) 
ChEMBL_Kinases

>  <Ligand_Instance>  (88) 
nan

>  <PDB_ID>  (88) 
nan

>  <Standardized_SMILES>  (88) 
CC(C)(Oc1cccc(-c2cnc(N)c(-c3ccc(Cl)cc3)c2)c1)C(=O)O

>  <Name>  (88) 
nan

>  <Pocket>  (88) 
nan

>  <ATP_Site>  (88) 
nan

>  <Peripheral>  (88) 
nan

>  <Num_H_Atoms_ProtBoundConf>  (88) 
nan

>  <Num_Resolved_Atoms>  (88) 
nan

>  <Num_Not_Resolved_Atoms>  (88) 
nan

$$$$
CHEMBL4740170
     RDKit          3D

  0  0  0  0  0  0  0  0  0  0999 V3000
M  V30 BEGIN CTAB
M  V30 COUNTS 55 58 0 0 0
M  V30 BEGIN ATOM
M  V30 1 C 0.199762 -1.762455 7.633051 0
M  V30 2 C 0.715098 -1.833802 6.195204 0
M  V30 3 O -0.038479 -2.767473 5.487515 0
M  V30 4 C 0.045137 -3.129891 4.180563 0
M  V30 5 N 0.862203 -2.687326 3.238814 0
M  V30 6 C 0.811153 -3.163982 1.959452 0
M  V30 7 N 1.559043 -2.875890 0.795296 0
M  V30 8 C 1.393759 -1.694008 0.026114 0
M  V30 9 C 0.547194 -0.699310 0.504434 0
M  V30 10 C 0.377991 0.475499 -0.205474 0
M  V30 11 C 1.068580 0.642306 -1.402923 0
M  V30 12 C 0.893481 1.871179 -2.151516 0
M  V30 13 O 1.908313 2.542852 -2.474698 0
M  V30 14 N -0.339961 2.426165 -2.577579 0
M  V30 15 C -0.356915 3.667430 -3.325777 0
M  V30 16 C -1.021013 4.656361 -2.363206 0
M  V30 17 O -2.292934 4.218946 -2.069055 0
M  V30 18 C -2.386419 2.971565 -1.515215 0
M  V30 19 C -1.686685 1.886533 -2.343045 0 CFG=1
M  V30 20 C -2.449666 1.801452 -3.648548 0
M  V30 21 C 1.930442 -0.312777 -1.937546 0
M  V30 22 C 2.033039 -1.445111 -1.162204 0
M  V30 23 O 2.877112 -2.456702 -1.626319 0
M  V30 24 C 3.608852 -2.384219 -2.815118 0
M  V30 25 N -0.120602 -4.121638 1.684595 0
M  V30 26 C -0.977111 -4.611559 2.596696 0
M  V30 27 N -1.952351 -5.559924 2.476121 0
M  V30 28 C -2.533517 -5.691927 3.699920 0
M  V30 29 C -1.898127 -4.818612 4.539547 0
M  V30 30 C -0.897960 -4.104969 3.886784 0
M  V30 31 H 0.147914 -2.788712 8.043129 0
M  V30 32 H -0.826332 -1.328295 7.625828 0
M  V30 33 H 0.907405 -1.117953 8.215540 0
M  V30 34 H 1.790038 -2.178202 6.256484 0
M  V30 35 H 0.709579 -0.816410 5.745083 0
M  V30 36 H 2.283544 -3.530275 0.430459 0
M  V30 37 H 0.032777 -0.866280 1.434203 0
M  V30 38 H -0.280306 1.248745 0.175694 0
M  V30 39 H 0.643884 4.021381 -3.623939 0
M  V30 40 H -1.068743 3.546810 -4.170256 0
M  V30 41 H -0.392768 4.754503 -1.446905 0
M  V30 42 H -1.087995 5.659157 -2.816709 0
M  V30 43 H -2.081790 2.881066 -0.461482 0
M  V30 44 H -3.469164 2.686453 -1.537024 0
M  V30 45 H -1.624969 0.961705 -1.783369 0
M  V30 46 H -3.199761 0.995415 -3.647766 0
M  V30 47 H -1.733679 1.634637 -4.508778 0
M  V30 48 H -2.954719 2.766303 -3.886657 0
M  V30 49 H 2.455697 -0.168725 -2.867300 0
M  V30 50 H 4.434596 -3.139788 -2.762455 0
M  V30 51 H 3.004009 -2.660621 -3.711585 0
M  V30 52 H 4.059457 -1.403514 -3.035855 0
M  V30 53 H -2.213645 -6.087802 1.624660 0
M  V30 54 H -3.340586 -6.369486 3.930796 0
M  V30 55 H -2.128784 -4.679759 5.599567 0
M  V30 END ATOM
M  V30 BEGIN BOND
M  V30 1 1 1 2
M  V30 2 1 2 3
M  V30 3 1 3 4
M  V30 4 2 4 5
M  V30 5 1 5 6
M  V30 6 1 6 7
M  V30 7 1 7 8
M  V30 8 2 8 9
M  V30 9 1 9 10
M  V30 10 2 10 11
M  V30 11 1 11 12
M  V30 12 2 12 13
M  V30 13 1 12 14
M  V30 14 1 14 15
M  V30 15 1 15 16
M  V30 16 1 16 17
M  V30 17 1 17 18
M  V30 18 1 18 19
M  V30 19 1 19 20
M  V30 20 1 11 21
M  V30 21 2 21 22
M  V30 22 1 22 23
M  V30 23 1 23 24
M  V30 24 2 6 25
M  V30 25 1 25 26
M  V30 26 1 26 27
M  V30 27 1 27 28
M  V30 28 2 28 29
M  V30 29 1 29 30
M  V30 30 1 30 4
M  V30 31 1 22 8
M  V30 32 2 30 26
M  V30 33 1 19 14
M  V30 34 1 1 31
M  V30 35 1 1 32
M  V30 36 1 1 33
M  V30 37 1 2 34
M  V30 38 1 2 35
M  V30 39 1 7 36
M  V30 40 1 9 37
M  V30 41 1 10 38
M  V30 42 1 15 39
M  V30 43 1 15 40
M  V30 44 1 16 41
M  V30 45 1 16 42
M  V30 46 1 18 43
M  V30 47 1 18 44
M  V30 48 1 19 45 CFG=1
M  V30 49 1 20 46
M  V30 50 1 20 47
M  V30 51 1 20 48
M  V30 52 1 21 49
M  V30 53 1 24 50
M  V30 54 1 24 51
M  V30 55 1 24 52
M  V30 56 1 27 53
M  V30 57 1 28 54
M  V30 58 1 29 55
M  V30 END BOND
M  V30 END CTAB
M  END
>  <Dataset>  (89) 
ChEMBL_Kinases

>  <Ligand_Instance>  (89) 
nan

>  <PDB_ID>  (89) 
nan

>  <Standardized_SMILES>  (89) 
CCOc1nc(Nc2ccc(C(=O)N3CCOC[C@H]3C)cc2OC)nc2[nH]ccc12

>  <Name>  (89) 
nan

>  <Pocket>  (89) 
nan

>  <ATP_Site>  (89) 
nan

>  <Peripheral>  (89) 
nan

>  <Num_H_Atoms_ProtBoundConf>  (89) 
nan

>  <Num_Resolved_Atoms>  (89) 
nan

>  <Num_Not_Resolved_Atoms>  (89) 
nan

$$$$
CHEMBL4740226
     RDKit          3D

  0  0  0  0  0  0  0  0  0  0999 V3000
M  V30 BEGIN CTAB
M  V30 COUNTS 43 46 0 0 0
M  V30 BEGIN ATOM
M  V30 1 C 0.518978 -5.200339 2.693061 0
M  V30 2 O 1.324976 -4.099380 3.036016 0
M  V30 3 C 1.709087 -3.147629 2.077729 0
M  V30 4 C 2.510423 -2.075931 2.478832 0
M  V30 5 C 2.895336 -1.133459 1.548134 0
M  V30 6 C 2.454527 -1.317351 0.262043 0
M  V30 7 N 2.840967 -0.349207 -0.729949 0
M  V30 8 N 3.891934 -0.274148 -1.516269 0
M  V30 9 N 3.823107 0.804341 -2.274380 0
M  V30 10 C 2.701111 1.463868 -1.987648 0
M  V30 11 C 2.055785 2.612505 -2.397612 0
M  V30 12 N 0.882925 3.009422 -1.879290 0
M  V30 13 C 0.264564 2.280044 -0.904590 0
M  V30 14 N -0.948250 2.536805 -0.253755 0
M  V30 15 C -1.567427 1.756115 0.759810 0 CFG=2
M  V30 16 C -0.774444 1.566157 2.020534 0
M  V30 17 C -1.270367 0.293226 2.660688 0
M  V30 18 C -1.745386 -0.536690 1.517757 0 CFG=1
M  V30 19 N -3.018362 -1.155430 1.900465 0
M  V30 20 C -1.901785 0.346935 0.324849 0
M  V30 21 N 0.892861 1.159288 -0.503630 0
M  V30 22 C 2.069516 0.732405 -1.002196 0
M  V30 23 C 1.663631 -2.355828 -0.184420 0
M  V30 24 C 1.297272 -3.278770 0.769452 0
M  V30 25 H 0.168663 -5.644968 3.659024 0
M  V30 26 H -0.342954 -4.870617 2.065569 0
M  V30 27 H 1.104478 -5.955825 2.154710 0
M  V30 28 H 2.853602 -1.935920 3.488335 0
M  V30 29 H 3.504486 -0.288003 1.772174 0
M  V30 30 H 2.516313 3.211578 -3.165265 0
M  V30 31 H -1.386152 3.434340 -0.620165 0
M  V30 32 H -2.521214 2.241619 1.051613 0
M  V30 33 H 0.312315 1.436439 1.853435 0
M  V30 34 H -0.868613 2.408723 2.742744 0
M  V30 35 H -0.425951 -0.275864 3.138903 0
M  V30 36 H -2.005198 0.463143 3.466435 0
M  V30 37 H -1.055419 -1.385577 1.264115 0
M  V30 38 H -3.528121 -0.570887 2.601763 0
M  V30 39 H -2.843055 -2.075164 2.366696 0
M  V30 40 H -1.205202 0.035336 -0.485827 0
M  V30 41 H -2.914870 0.278069 -0.106651 0
M  V30 42 H 1.361166 -2.419266 -1.231663 0
M  V30 43 H 0.679714 -4.103485 0.457215 0
M  V30 END ATOM
M  V30 BEGIN BOND
M  V30 1 1 1 2
M  V30 2 1 2 3
M  V30 3 2 3 4
M  V30 4 1 4 5
M  V30 5 2 5 6
M  V30 6 1 6 7
M  V30 7 1 7 8
M  V30 8 2 8 9
M  V30 9 1 9 10
M  V30 10 2 10 11
M  V30 11 1 11 12
M  V30 12 2 12 13
M  V30 13 1 13 14
M  V30 14 1 14 15
M  V30 15 1 15 16
M  V30 16 1 16 17
M  V30 17 1 17 18
M  V30 18 1 18 19
M  V30 19 1 18 20
M  V30 20 1 13 21
M  V30 21 2 21 22
M  V30 22 1 6 23
M  V30 23 2 23 24
M  V30 24 1 24 3
M  V30 25 1 22 7
M  V30 26 1 22 10
M  V30 27 1 20 15
M  V30 28 1 1 25
M  V30 29 1 1 26
M  V30 30 1 1 27
M  V30 31 1 4 28
M  V30 32 1 5 29
M  V30 33 1 11 30
M  V30 34 1 14 31
M  V30 35 1 15 32 CFG=1
M  V30 36 1 16 33
M  V30 37 1 16 34
M  V30 38 1 17 35
M  V30 39 1 17 36
M  V30 40 1 18 37 CFG=3
M  V30 41 1 19 38
M  V30 42 1 19 39
M  V30 43 1 20 40
M  V30 44 1 20 41
M  V30 45 1 23 42
M  V30 46 1 24 43
M  V30 END BOND
M  V30 END CTAB
M  END
>  <Dataset>  (90) 
ChEMBL_Kinases

>  <Ligand_Instance>  (90) 
nan

>  <PDB_ID>  (90) 
nan

>  <Standardized_SMILES>  (90) 
COc1ccc(-n2nnc3cnc(N[C@@H]4CC[C@@H](N)C4)nc32)cc1

>  <Name>  (90) 
nan

>  <Pocket>  (90) 
nan

>  <ATP_Site>  (90) 
nan

>  <Peripheral>  (90) 
nan

>  <Num_H_Atoms_ProtBoundConf>  (90) 
nan

>  <Num_Resolved_Atoms>  (90) 
nan

>  <Num_Not_Resolved_Atoms>  (90) 
nan

$$$$
CHEMBL4740241
     RDKit          3D

  0  0  0  0  0  0  0  0  0  0999 V3000
M  V30 BEGIN CTAB
M  V30 COUNTS 61 63 0 0 0
M  V30 BEGIN ATOM
M  V30 1 C 6.045205 -6.302302 4.095158 0
M  V30 2 N 5.139121 -5.308977 4.610024 0
M  V30 3 C 4.883639 -4.090813 3.929644 0
M  V30 4 N 5.542604 -2.920969 4.061307 0
M  V30 5 C 5.165143 -1.851291 3.330964 0
M  V30 6 C 4.099626 -2.027245 2.472233 0
M  V30 7 C 3.727292 -0.922998 1.733329 0
M  V30 8 C 2.681087 -1.021067 0.862046 0
M  V30 9 C 2.092463 -0.017625 -0.026662 0
M  V30 10 C 1.063840 0.781257 0.419380 0
M  V30 11 C 0.499813 1.739639 -0.425654 0
M  V30 12 N -0.562462 2.480613 0.210966 0
M  V30 13 C -1.853214 1.879720 0.034486 0
M  V30 14 O -1.802120 0.821072 -0.643534 0
M  V30 15 N -3.055987 2.390715 0.547763 0
M  V30 16 C -4.315895 1.703605 0.311856 0
M  V30 17 C -4.656286 1.570618 -1.147437 0
M  V30 18 C -5.974999 0.849478 -1.331426 0
M  V30 19 C -7.113639 1.574342 -0.669834 0
M  V30 20 C -5.934216 -0.541255 -0.739993 0
M  V30 21 C -6.325819 0.692798 -2.793580 0
M  V30 22 C 0.962877 1.900073 -1.715527 0
M  V30 23 F 0.348034 2.851033 -2.440347 0
M  V30 24 C 2.000162 1.082815 -2.140933 0
M  V30 25 C 2.551619 0.143129 -1.309159 0
M  V30 26 C 3.666422 -0.691633 -1.857595 0
M  V30 27 C 2.007927 -2.237825 0.735724 0
M  V30 28 O 1.017177 -2.481558 -0.032583 0
M  V30 29 N 2.366746 -3.321403 1.455116 0
M  V30 30 C 1.719229 -4.608636 1.377594 0
M  V30 31 C 3.399912 -3.203270 2.307523 0
M  V30 32 N 3.848504 -4.218965 3.079292 0
M  V30 33 H 6.887401 -5.876740 3.542140 0
M  V30 34 H 6.456115 -6.954406 4.889045 0
M  V30 35 H 5.481089 -6.957292 3.396351 0
M  V30 36 H 4.604197 -5.385754 5.497608 0
M  V30 37 H 5.682626 -0.916317 3.428221 0
M  V30 38 H 4.167560 0.064691 1.743712 0
M  V30 39 H 0.731715 0.614291 1.453198 0
M  V30 40 H -0.518003 3.380533 0.773436 0
M  V30 41 H -2.990113 3.287779 1.105055 0
M  V30 42 H -4.178819 0.652255 0.701887 0
M  V30 43 H -5.139380 2.112685 0.895757 0
M  V30 44 H -3.866350 1.042897 -1.717726 0
M  V30 45 H -4.762673 2.592825 -1.563982 0
M  V30 46 H -7.299632 1.198370 0.374971 0
M  V30 47 H -7.033453 2.673263 -0.722545 0
M  V30 48 H -8.064373 1.324450 -1.224621 0
M  V30 49 H -5.789259 -0.562044 0.351239 0
M  V30 50 H -5.165582 -1.110127 -1.307674 0
M  V30 51 H -6.961332 -0.966555 -0.903305 0
M  V30 52 H -6.871038 1.578618 -3.200930 0
M  V30 53 H -7.031281 -0.163594 -2.864970 0
M  V30 54 H -5.400350 0.505326 -3.387310 0
M  V30 55 H 2.312766 1.269511 -3.175858 0
M  V30 56 H 4.471801 -0.067725 -2.311495 0
M  V30 57 H 4.083602 -1.363728 -1.059289 0
M  V30 58 H 3.284614 -1.373166 -2.638757 0
M  V30 59 H 2.457544 -5.415032 1.629947 0
M  V30 60 H 0.871900 -4.718322 2.072031 0
M  V30 61 H 1.317085 -4.820381 0.359152 0
M  V30 END ATOM
M  V30 BEGIN BOND
M  V30 1 1 1 2
M  V30 2 1 2 3
M  V30 3 2 3 4
M  V30 4 1 4 5
M  V30 5 2 5 6
M  V30 6 1 6 7
M  V30 7 2 7 8
M  V30 8 1 8 9
M  V30 9 2 9 10
M  V30 10 1 10 11
M  V30 11 1 11 12
M  V30 12 1 12 13
M  V30 13 2 13 14
M  V30 14 1 13 15
M  V30 15 1 15 16
M  V30 16 1 16 17
M  V30 17 1 17 18
M  V30 18 1 18 19
M  V30 19 1 18 20
M  V30 20 1 18 21
M  V30 21 2 11 22
M  V30 22 1 22 23
M  V30 23 1 22 24
M  V30 24 2 24 25
M  V30 25 1 25 26
M  V30 26 1 8 27
M  V30 27 2 27 28
M  V30 28 1 27 29
M  V30 29 1 29 30
M  V30 30 1 29 31
M  V30 31 2 31 32
M  V30 32 1 32 3
M  V30 33 1 31 6
M  V30 34 1 25 9
M  V30 35 1 1 33
M  V30 36 1 1 34
M  V30 37 1 1 35
M  V30 38 1 2 36
M  V30 39 1 5 37
M  V30 40 1 7 38
M  V30 41 1 10 39
M  V30 42 1 12 40
M  V30 43 1 15 41
M  V30 44 1 16 42
M  V30 45 1 16 43
M  V30 46 1 17 44
M  V30 47 1 17 45
M  V30 48 1 19 46
M  V30 49 1 19 47
M  V30 50 1 19 48
M  V30 51 1 20 49
M  V30 52 1 20 50
M  V30 53 1 20 51
M  V30 54 1 21 52
M  V30 55 1 21 53
M  V30 56 1 21 54
M  V30 57 1 24 55
M  V30 58 1 26 56
M  V30 59 1 26 57
M  V30 60 1 26 58
M  V30 61 1 30 59
M  V30 62 1 30 60
M  V30 63 1 30 61
M  V30 END BOND
M  V30 END CTAB
M  END
>  <Dataset>  (91) 
ChEMBL_Kinases

>  <Ligand_Instance>  (91) 
nan

>  <PDB_ID>  (91) 
nan

>  <Standardized_SMILES>  (91) 
CNc1ncc2cc(-c3cc(NC(=O)NCCC(C)(C)C)c(F)cc3C)c(=O)n(C)c2n1

>  <Name>  (91) 
nan

>  <Pocket>  (91) 
nan

>  <ATP_Site>  (91) 
nan

>  <Peripheral>  (91) 
nan

>  <Num_H_Atoms_ProtBoundConf>  (91) 
nan

>  <Num_Resolved_Atoms>  (91) 
nan

>  <Num_Not_Resolved_Atoms>  (91) 
nan

$$$$
CHEMBL4740254
     RDKit          3D

  0  0  0  0  0  0  0  0  0  0999 V3000
M  V30 BEGIN CTAB
M  V30 COUNTS 46 49 0 0 0
M  V30 BEGIN ATOM
M  V30 1 C -1.368458 -5.419151 2.512839 0
M  V30 2 C -1.701822 -3.964264 2.288141 0
M  V30 3 C -1.288862 -3.098835 3.446639 0
M  V30 4 C -1.155392 -3.457839 0.969735 0
M  V30 5 C -2.049994 -2.272731 0.737544 0
M  V30 6 C -2.183993 -1.024952 0.117487 0
M  V30 7 C -1.062981 -0.500688 -0.690361 0
M  V30 8 C -0.065585 0.283281 -0.122370 0
M  V30 9 C 0.926044 0.711762 -0.979946 0
M  V30 10 N 1.938698 1.521105 -0.349100 0
M  V30 11 C 3.142298 1.098456 0.258786 0
M  V30 12 O 3.476363 -0.115648 0.315092 0
M  V30 13 C 4.008161 2.158661 0.835925 0 CFG=1
M  V30 14 C 4.501084 3.199850 -0.115484 0
M  V30 15 C 3.803125 4.277730 0.688259 0 CFG=1
M  V30 16 O 2.854257 4.928119 -0.103642 0
M  V30 17 C 3.259869 3.220972 1.608832 0
M  V30 18 N 0.953348 0.403890 -2.299057 0
M  V30 19 C -0.040388 -0.367990 -2.827628 0
M  V30 20 C -1.081529 -0.842507 -2.027091 0
M  V30 21 Cl -2.342972 -1.823627 -2.703250 0
M  V30 22 C -3.445281 -0.523919 0.429852 0
M  V30 23 N -4.038075 -1.461855 1.218348 0
M  V30 24 N -3.209904 -2.479009 1.389578 0
M  V30 25 C -3.188776 -3.757190 2.078725 0
M  V30 26 H -2.135407 -6.033532 2.028690 0
M  V30 27 H -0.381676 -5.581850 2.042307 0
M  V30 28 H -1.237331 -5.571575 3.589654 0
M  V30 29 H -1.917502 -3.414977 4.321282 0
M  V30 30 H -0.232649 -3.232760 3.734527 0
M  V30 31 H -1.562465 -2.052417 3.185362 0
M  V30 32 H -1.370595 -4.189796 0.187109 0
M  V30 33 H -0.096504 -3.151263 1.036194 0
M  V30 34 H -0.089925 0.526489 0.926918 0
M  V30 35 H 1.586363 2.500028 -0.439385 0
M  V30 36 H 4.796223 1.712570 1.467072 0
M  V30 37 H 4.136451 3.097016 -1.176552 0
M  V30 38 H 5.609753 3.378948 -0.081069 0
M  V30 39 H 4.483372 5.017938 1.164945 0
M  V30 40 H 2.039961 5.164819 0.413672 0
M  V30 41 H 2.156210 3.120974 1.611485 0
M  V30 42 H 3.587239 3.346278 2.662827 0
M  V30 43 H -0.009153 -0.608807 -3.885274 0
M  V30 44 H -3.729546 0.442248 0.033671 0
M  V30 45 H -3.761173 -3.722418 3.029539 0
M  V30 46 H -3.622586 -4.488008 1.357075 0
M  V30 END ATOM
M  V30 BEGIN BOND
M  V30 1 1 1 2
M  V30 2 1 2 3
M  V30 3 1 2 4
M  V30 4 1 4 5
M  V30 5 2 5 6
M  V30 6 1 6 7
M  V30 7 2 7 8
M  V30 8 1 8 9
M  V30 9 1 9 10
M  V30 10 1 10 11
M  V30 11 2 11 12
M  V30 12 1 11 13
M  V30 13 1 13 14
M  V30 14 1 14 15
M  V30 15 1 15 16
M  V30 16 1 15 17
M  V30 17 2 9 18
M  V30 18 1 18 19
M  V30 19 2 19 20
M  V30 20 1 20 21
M  V30 21 1 6 22
M  V30 22 2 22 23
M  V30 23 1 23 24
M  V30 24 1 24 25
M  V30 25 1 25 2
M  V30 26 1 24 5
M  V30 27 1 20 7
M  V30 28 1 17 13
M  V30 29 1 1 26
M  V30 30 1 1 27
M  V30 31 1 1 28
M  V30 32 1 3 29
M  V30 33 1 3 30
M  V30 34 1 3 31
M  V30 35 1 4 32
M  V30 36 1 4 33
M  V30 37 1 8 34
M  V30 38 1 10 35
M  V30 39 1 13 36 CFG=1
M  V30 40 1 14 37
M  V30 41 1 14 38
M  V30 42 1 15 39 CFG=1
M  V30 43 1 16 40
M  V30 44 1 17 41
M  V30 45 1 17 42
M  V30 46 1 19 43
M  V30 47 1 22 44
M  V30 48 1 25 45
M  V30 49 1 25 46
M  V30 END BOND
M  V30 END CTAB
M  END
>  <Dataset>  (92) 
ChEMBL_Kinases

>  <Ligand_Instance>  (92) 
nan

>  <PDB_ID>  (92) 
nan

>  <Standardized_SMILES>  (92) 
CC1(C)Cc2c(-c3cc(NC(=O)[C@H]4C[C@@H](O)C4)ncc3Cl)cnn2C1

>  <Name>  (92) 
nan

>  <Pocket>  (92) 
nan

>  <ATP_Site>  (92) 
nan

>  <Peripheral>  (92) 
nan

>  <Num_H_Atoms_ProtBoundConf>  (92) 
nan

>  <Num_Resolved_Atoms>  (92) 
nan

>  <Num_Not_Resolved_Atoms>  (92) 
nan

$$$$
CHEMBL4740315
     RDKit          3D

  0  0  0  0  0  0  0  0  0  0999 V3000
M  V30 BEGIN CTAB
M  V30 COUNTS 45 47 0 0 0
M  V30 BEGIN ATOM
M  V30 1 C 5.402485 -1.539810 3.387975 0
M  V30 2 C 4.091607 -1.417232 2.608042 0
M  V30 3 C 3.222492 -0.401122 3.283342 0
M  V30 4 C 3.407923 -2.770945 2.775130 0
M  V30 5 O 2.186234 -2.767305 2.096337 0
M  V30 6 C 4.405639 -1.131181 1.173980 0
M  V30 7 N 3.237798 -0.994257 0.332140 0
M  V30 8 C 2.374293 0.139036 0.502344 0
M  V30 9 N 2.784527 1.337449 0.747100 0
M  V30 10 C 1.780354 2.292503 0.877137 0
M  V30 11 O 2.185335 3.478523 1.118605 0
M  V30 12 C 0.393443 1.868205 0.730524 0
M  V30 13 C -0.624089 2.665403 0.833032 0
M  V30 14 C -1.961824 2.054402 0.654212 0
M  V30 15 C -3.074739 2.600887 1.525473 0
M  V30 16 S -4.472295 1.588536 0.972585 0
M  V30 17 C -3.418733 0.629133 -0.280118 0
M  V30 18 C -4.131594 -0.375762 -1.038233 0
M  V30 19 C -5.474902 -0.658098 -0.920133 0
M  V30 20 C -6.094168 -1.623776 -1.663974 0
M  V30 21 C -5.340928 -2.359533 -2.584516 0
M  V30 22 F -5.971957 -3.324228 -3.323312 0
M  V30 23 C -3.978752 -2.084869 -2.715414 0
M  V30 24 C -3.393386 -1.085003 -1.929185 0
M  V30 25 O -2.046514 -0.854473 -2.097669 0
M  V30 26 N -2.299131 1.083077 -0.183787 0
M  V30 27 S 0.560355 0.113851 0.405353 0
M  V30 28 H 5.104215 -1.933943 4.401179 0
M  V30 29 H 5.873540 -0.559054 3.563044 0
M  V30 30 H 6.109743 -2.242707 2.896416 0
M  V30 31 H 3.676820 0.610106 3.321042 0
M  V30 32 H 2.190877 -0.395922 2.866883 0
M  V30 33 H 3.055513 -0.662338 4.371910 0
M  V30 34 H 4.066464 -3.615210 2.471048 0
M  V30 35 H 3.144245 -2.868706 3.860559 0
M  V30 36 H 2.237647 -3.266419 1.240188 0
M  V30 37 H 4.993600 -0.195241 1.060531 0
M  V30 38 H 5.070941 -1.959788 0.814607 0
M  V30 39 H 2.964485 -1.683592 -0.414964 0
M  V30 40 H -0.501938 3.717408 1.037973 0
M  V30 41 H -2.863300 3.441569 2.275425 0
M  V30 42 H -6.072475 -0.100155 -0.214836 0
M  V30 43 H -7.170480 -1.805732 -1.527098 0
M  V30 44 H -3.435909 -2.689104 -3.449269 0
M  V30 45 H -1.364626 -1.627586 -2.141462 0
M  V30 END ATOM
M  V30 BEGIN BOND
M  V30 1 1 1 2
M  V30 2 1 2 3
M  V30 3 1 2 4
M  V30 4 1 4 5
M  V30 5 1 2 6
M  V30 6 1 6 7
M  V30 7 1 7 8
M  V30 8 2 8 9
M  V30 9 1 9 10
M  V30 10 2 10 11
M  V30 11 1 10 12
M  V30 12 2 12 13
M  V30 13 1 13 14
M  V30 14 2 14 15
M  V30 15 1 15 16
M  V30 16 1 16 17
M  V30 17 1 17 18
M  V30 18 2 18 19
M  V30 19 1 19 20
M  V30 20 2 20 21
M  V30 21 1 21 22
M  V30 22 1 21 23
M  V30 23 2 23 24
M  V30 24 1 24 25
M  V30 25 2 17 26
M  V30 26 1 12 27
M  V30 27 1 27 8
M  V30 28 1 26 14
M  V30 29 1 24 18
M  V30 30 1 1 28
M  V30 31 1 1 29
M  V30 32 1 1 30
M  V30 33 1 3 31
M  V30 34 1 3 32
M  V30 35 1 3 33
M  V30 36 1 4 34
M  V30 37 1 4 35
M  V30 38 1 5 36
M  V30 39 1 6 37
M  V30 40 1 6 38
M  V30 41 1 7 39
M  V30 42 1 13 40
M  V30 43 1 15 41
M  V30 44 1 19 42
M  V30 45 1 20 43
M  V30 46 1 23 44
M  V30 47 1 25 45
M  V30 END BOND
M  V30 END CTAB
M  END
>  <Dataset>  (93) 
ChEMBL_Kinases

>  <Ligand_Instance>  (93) 
nan

>  <PDB_ID>  (93) 
nan

>  <Standardized_SMILES>  (93) 
CC(C)(CO)CNC1=NC(=O)/C(=C/c2csc(-c3ccc(F)cc3O)n2)S1

>  <Name>  (93) 
nan

>  <Pocket>  (93) 
nan

>  <ATP_Site>  (93) 
nan

>  <Peripheral>  (93) 
nan

>  <Num_H_Atoms_ProtBoundConf>  (93) 
nan

>  <Num_Resolved_Atoms>  (93) 
nan

>  <Num_Not_Resolved_Atoms>  (93) 
nan

$$$$
CHEMBL4464441
     RDKit          3D

  0  0  0  0  0  0  0  0  0  0999 V3000
M  V30 BEGIN CTAB
M  V30 COUNTS 40 43 0 0 0
M  V30 BEGIN ATOM
M  V30 1 F 1.321955 -3.542146 4.525312 0
M  V30 2 C 0.409019 -3.556448 3.494325 0
M  V30 3 F -0.893458 -3.657946 3.944963 0
M  V30 4 F 0.721170 -4.637125 2.668416 0
M  V30 5 C 0.579670 -2.289729 2.633991 0
M  V30 6 N -0.328502 -2.220890 1.539210 0
M  V30 7 C -0.488330 -1.253716 0.540971 0
M  V30 8 C 0.259426 -0.102091 0.420336 0
M  V30 9 C 0.129904 0.869536 -0.546305 0
M  V30 10 C 0.948918 2.069725 -0.626757 0
M  V30 11 C 1.966687 2.424488 0.231708 0
M  V30 12 C 2.688122 3.589663 0.069825 0
M  V30 13 N 2.431284 4.442423 -0.941315 0
M  V30 14 C 1.445334 4.131442 -1.800515 0
M  V30 15 C 0.718654 2.969827 -1.647592 0
M  V30 16 N -0.842093 0.651425 -1.467938 0
M  V30 17 C -1.619141 -0.443922 -1.428107 0
M  V30 18 C -2.573914 -0.561538 -2.414900 0
M  V30 19 N -3.404519 -1.644964 -2.446026 0
M  V30 20 C -3.270475 -2.603528 -1.485234 0
M  V30 21 C -2.302328 -2.440513 -0.521515 0
M  V30 22 C -1.448104 -1.387115 -0.438208 0
M  V30 23 C 2.051595 -2.160529 2.312625 0
M  V30 24 C 2.162968 -1.142752 3.422850 0
M  V30 25 C 0.653401 -1.107482 3.569282 0
M  V30 26 H -0.954598 -3.050307 1.524126 0
M  V30 27 H 1.032045 0.119694 1.111402 0
M  V30 28 H 2.191052 1.766684 1.041539 0
M  V30 29 H 3.483457 3.851311 0.753817 0
M  V30 30 H 1.247311 4.820288 -2.606548 0
M  V30 31 H -0.065484 2.791767 -2.389330 0
M  V30 32 H -2.702776 0.185041 -3.191045 0
M  V30 33 H -3.949580 -3.447194 -1.546215 0
M  V30 34 H -2.285482 -3.240040 0.171896 0
M  V30 35 H 2.326566 -1.853913 1.306930 0
M  V30 36 H 2.683120 -3.049344 2.590861 0
M  V30 37 H 2.590938 -0.155683 3.079822 0
M  V30 38 H 2.730831 -1.449441 4.319184 0
M  V30 39 H 0.410258 -1.344399 4.646351 0
M  V30 40 H 0.148577 -0.189002 3.283636 0
M  V30 END ATOM
M  V30 BEGIN BOND
M  V30 1 1 1 2
M  V30 2 1 2 3
M  V30 3 1 2 4
M  V30 4 1 2 5
M  V30 5 1 5 6
M  V30 6 1 6 7
M  V30 7 2 7 8
M  V30 8 1 8 9
M  V30 9 1 9 10
M  V30 10 2 10 11
M  V30 11 1 11 12
M  V30 12 2 12 13
M  V30 13 1 13 14
M  V30 14 2 14 15
M  V30 15 2 9 16
M  V30 16 1 16 17
M  V30 17 2 17 18
M  V30 18 1 18 19
M  V30 19 2 19 20
M  V30 20 1 20 21
M  V30 21 2 21 22
M  V30 22 1 5 23
M  V30 23 1 23 24
M  V30 24 1 24 25
M  V30 25 1 25 5
M  V30 26 1 22 7
M  V30 27 1 15 10
M  V30 28 1 22 17
M  V30 29 1 6 26
M  V30 30 1 8 27
M  V30 31 1 11 28
M  V30 32 1 12 29
M  V30 33 1 14 30
M  V30 34 1 15 31
M  V30 35 1 18 32
M  V30 36 1 20 33
M  V30 37 1 21 34
M  V30 38 1 23 35
M  V30 39 1 23 36
M  V30 40 1 24 37
M  V30 41 1 24 38
M  V30 42 1 25 39
M  V30 43 1 25 40
M  V30 END BOND
M  V30 END CTAB
M  END
>  <Dataset>  (94) 
ChEMBL_Kinases

>  <Ligand_Instance>  (94) 
nan

>  <PDB_ID>  (94) 
nan

>  <Standardized_SMILES>  (94) 
FC(F)(F)C1(Nc2cc(-c3ccncc3)nc3cnccc23)CCC1

>  <Name>  (94) 
nan

>  <Pocket>  (94) 
nan

>  <ATP_Site>  (94) 
nan

>  <Peripheral>  (94) 
nan

>  <Num_H_Atoms_ProtBoundConf>  (94) 
nan

>  <Num_Resolved_Atoms>  (94) 
nan

>  <Num_Not_Resolved_Atoms>  (94) 
nan

$$$$
CHEMBL4464290
     RDKit          3D

  0  0  0  0  0  0  0  0  0  0999 V3000
M  V30 BEGIN CTAB
M  V30 COUNTS 59 64 0 0 0
M  V30 BEGIN ATOM
M  V30 1 C 0.145926 -0.752392 2.868749 0
M  V30 2 C 0.438334 -1.855753 1.873354 0
M  V30 3 C 0.907327 -3.019682 2.796015 0
M  V30 4 N 1.577317 -1.521357 1.070146 0
M  V30 5 C 1.840442 -0.252439 0.491612 0
M  V30 6 N 1.099067 0.833415 0.633354 0
M  V30 7 C 1.313770 2.049206 0.132791 0
M  V30 8 C 0.414643 3.174235 0.362011 0
M  V30 9 C -0.728742 3.047973 1.120176 0
M  V30 10 C -1.570444 4.132345 1.325258 0
M  V30 11 N -1.254627 5.319387 0.770343 0
M  V30 12 C -0.145286 5.491605 0.019840 0
M  V30 13 C 0.687735 4.408922 -0.180280 0
M  V30 14 N 2.415599 2.230073 -0.616776 0
M  V30 15 C 3.275767 1.198560 -0.849834 0
M  V30 16 C 4.388083 1.397587 -1.611919 0
M  V30 17 N 5.254017 0.398613 -1.858894 0
M  V30 18 C 5.006721 -0.832809 -1.333192 0
M  V30 19 C 3.875660 -1.000106 -0.568781 0
M  V30 20 C 2.956411 -0.016020 -0.283619 0
M  V30 21 C -0.711205 -2.286970 1.045806 0
M  V30 22 C -1.865632 -2.817121 1.875927 0
M  V30 23 C -3.020774 -3.159812 0.987071 0
M  V30 24 C -2.631023 -4.313239 0.116591 0
M  V30 25 C -1.424108 -3.875182 -0.696094 0
M  V30 26 C -1.905222 -2.775365 -1.601902 0
M  V30 27 C -2.349939 -1.618249 -0.748071 0
M  V30 28 C -3.450724 -1.940348 0.207913 0
M  V30 29 C -1.131109 -1.211956 0.104700 0
M  V30 30 C -0.263988 -3.465058 0.188153 0
M  V30 31 H -0.271206 -1.159056 3.789521 0
M  V30 32 H -0.620164 -0.086399 2.424427 0
M  V30 33 H 1.104467 -0.266009 3.105225 0
M  V30 34 H 1.694753 -2.620422 3.480249 0
M  V30 35 H 1.340084 -3.827336 2.193706 0
M  V30 36 H 0.108031 -3.408460 3.413017 0
M  V30 37 H 2.247313 -2.300844 0.913017 0
M  V30 38 H -1.004967 2.121221 1.572009 0
M  V30 39 H -2.468051 4.001549 1.929962 0
M  V30 40 H 0.065889 6.466229 -0.405463 0
M  V30 41 H 1.577947 4.536992 -0.779494 0
M  V30 42 H 4.563508 2.395493 -2.022169 0
M  V30 43 H 5.720789 -1.614974 -1.549364 0
M  V30 44 H 3.774719 -2.006795 -0.203619 0
M  V30 45 H -2.224807 -2.114295 2.637571 0
M  V30 46 H -1.554328 -3.805244 2.327433 0
M  V30 47 H -3.873402 -3.478773 1.642610 0
M  V30 48 H -2.460595 -5.192965 0.735199 0
M  V30 49 H -3.441027 -4.476770 -0.625867 0
M  V30 50 H -1.102288 -4.737237 -1.333953 0
M  V30 51 H -2.770085 -3.169311 -2.149424 0
M  V30 52 H -1.091257 -2.409525 -2.247627 0
M  V30 53 H -2.618693 -0.738776 -1.355885 0
M  V30 54 H -3.516845 -1.106019 0.936306 0
M  V30 55 H -4.438658 -2.075892 -0.262744 0
M  V30 56 H -0.311106 -1.109399 -0.665016 0
M  V30 57 H -1.431456 -0.259720 0.560938 0
M  V30 58 H 0.558883 -3.176775 -0.494118 0
M  V30 59 H -0.032578 -4.363490 0.802649 0
M  V30 END ATOM
M  V30 BEGIN BOND
M  V30 1 1 1 2
M  V30 2 1 2 3
M  V30 3 1 2 4
M  V30 4 1 4 5
M  V30 5 2 5 6
M  V30 6 1 6 7
M  V30 7 1 7 8
M  V30 8 2 8 9
M  V30 9 1 9 10
M  V30 10 2 10 11
M  V30 11 1 11 12
M  V30 12 2 12 13
M  V30 13 2 7 14
M  V30 14 1 14 15
M  V30 15 2 15 16
M  V30 16 1 16 17
M  V30 17 2 17 18
M  V30 18 1 18 19
M  V30 19 2 19 20
M  V30 20 1 2 21
M  V30 21 1 21 22
M  V30 22 1 22 23
M  V30 23 1 23 24
M  V30 24 1 24 25
M  V30 25 1 25 26
M  V30 26 1 26 27
M  V30 27 1 27 28
M  V30 28 1 27 29
M  V30 29 1 25 30
M  V30 30 1 20 5
M  V30 31 1 29 21
M  V30 32 1 13 8
M  V30 33 1 20 15
M  V30 34 1 30 21
M  V30 35 1 28 23
M  V30 36 1 1 31
M  V30 37 1 1 32
M  V30 38 1 1 33
M  V30 39 1 3 34
M  V30 40 1 3 35
M  V30 41 1 3 36
M  V30 42 1 4 37
M  V30 43 1 9 38
M  V30 44 1 10 39
M  V30 45 1 12 40
M  V30 46 1 13 41
M  V30 47 1 16 42
M  V30 48 1 18 43
M  V30 49 1 19 44
M  V30 50 1 22 45
M  V30 51 1 22 46
M  V30 52 1 23 47
M  V30 53 1 24 48
M  V30 54 1 24 49
M  V30 55 1 25 50
M  V30 56 1 26 51
M  V30 57 1 26 52
M  V30 58 1 27 53
M  V30 59 1 28 54
M  V30 60 1 28 55
M  V30 61 1 29 56
M  V30 62 1 29 57
M  V30 63 1 30 58
M  V30 64 1 30 59
M  V30 END BOND
M  V30 END CTAB
M  END
>  <Dataset>  (95) 
ChEMBL_Kinases

>  <Ligand_Instance>  (95) 
nan

>  <PDB_ID>  (95) 
nan

>  <Standardized_SMILES>  (95) 
CC(C)(Nc1nc(-c2ccncc2)nc2cnccc12)C12CC3CC(CC(C3)C1)C2

>  <Name>  (95) 
nan

>  <Pocket>  (95) 
nan

>  <ATP_Site>  (95) 
nan

>  <Peripheral>  (95) 
nan

>  <Num_H_Atoms_ProtBoundConf>  (95) 
nan

>  <Num_Resolved_Atoms>  (95) 
nan

>  <Num_Not_Resolved_Atoms>  (95) 
nan

$$$$
CHEMBL4464276
     RDKit          3D

  0  0  0  0  0  0  0  0  0  0999 V3000
M  V30 BEGIN CTAB
M  V30 COUNTS 52 55 0 0 0
M  V30 BEGIN ATOM
M  V30 1 C 6.575935 -2.974799 -1.638368 0
M  V30 2 C 6.971648 -1.625218 -1.080278 0
M  V30 3 N 6.100990 -1.318082 0.019115 0
M  V30 4 C 4.683241 -1.231059 -0.226613 0
M  V30 5 O 4.267031 -1.425543 -1.380767 0
M  V30 6 C 3.700087 -0.916460 0.852471 0
M  V30 7 C 2.368983 -0.924129 0.185039 0
M  V30 8 N 1.732832 0.247823 -0.105713 0
M  V30 9 N 0.549720 0.238274 -0.698737 0
M  V30 10 C -0.190419 1.450550 -1.041003 0
M  V30 11 C -1.043039 1.741167 0.180557 0
M  V30 12 N -2.076188 1.476657 0.586589 0
M  V30 13 C -2.626622 1.875887 1.738123 0
M  V30 14 C -3.962107 1.485080 2.177165 0
M  V30 15 C -4.801538 0.663843 1.456345 0
M  V30 16 C -6.069823 0.247357 1.793821 0
M  V30 17 C -6.560452 0.708358 3.000825 0
M  V30 18 C -7.924938 0.289682 3.414616 0
M  V30 19 C -5.779994 1.535947 3.781826 0
M  V30 20 C -4.515968 1.907056 3.369561 0
M  V30 21 C -1.837672 2.722643 2.544589 0
M  V30 22 S -0.279936 2.865718 1.489610 0
M  V30 23 C -0.078746 -0.916088 -1.041110 0
M  V30 24 O -1.208142 -0.936369 -1.607411 0
M  V30 25 C 0.558017 -2.119431 -0.750803 0
M  V30 26 C -0.088852 -3.285667 -1.102978 0
M  V30 27 C 0.461117 -4.526122 -0.857444 0
M  V30 28 C 1.693459 -4.492555 -0.239318 0
M  V30 29 C 2.383767 -3.358449 0.133853 0
M  V30 30 C 1.782998 -2.130059 -0.137383 0
M  V30 31 H 7.365172 -3.734478 -1.417955 0
M  V30 32 H 6.440784 -2.866334 -2.753406 0
M  V30 33 H 5.635782 -3.314456 -1.197763 0
M  V30 34 H 6.955282 -0.853331 -1.876412 0
M  V30 35 H 7.999386 -1.723614 -0.635126 0
M  V30 36 H 6.398530 -1.142689 1.025469 0
M  V30 37 H 3.824313 -1.681943 1.624384 0
M  V30 38 H 3.921379 0.071247 1.311252 0
M  V30 39 H 0.501095 2.301739 -1.210854 0
M  V30 40 H -0.815368 1.332751 -1.925518 0
M  V30 41 H -4.446364 0.279539 0.494739 0
M  V30 42 H -6.649335 -0.395198 1.165810 0
M  V30 43 H -8.069869 0.301005 4.512110 0
M  V30 44 H -8.141810 -0.749128 3.056103 0
M  V30 45 H -8.637029 0.927144 2.851610 0
M  V30 46 H -6.155457 1.910038 4.742222 0
M  V30 47 H -3.949436 2.560087 4.027560 0
M  V30 48 H -2.076304 3.142005 3.470423 0
M  V30 49 H -1.071901 -3.265520 -1.594936 0
M  V30 50 H -0.000195 -5.471002 -1.111415 0
M  V30 51 H 2.206469 -5.415202 -0.004757 0
M  V30 52 H 3.343826 -3.385211 0.613970 0
M  V30 END ATOM
M  V30 BEGIN BOND
M  V30 1 1 1 2
M  V30 2 1 2 3
M  V30 3 1 3 4
M  V30 4 2 4 5
M  V30 5 1 4 6
M  V30 6 1 6 7
M  V30 7 2 7 8
M  V30 8 1 8 9
M  V30 9 1 9 10
M  V30 10 1 10 11
M  V30 11 2 11 12
M  V30 12 1 12 13
M  V30 13 1 13 14
M  V30 14 2 14 15
M  V30 15 1 15 16
M  V30 16 2 16 17
M  V30 17 1 17 18
M  V30 18 1 17 19
M  V30 19 2 19 20
M  V30 20 2 13 21
M  V30 21 1 21 22
M  V30 22 1 9 23
M  V30 23 2 23 24
M  V30 24 1 23 25
M  V30 25 2 25 26
M  V30 26 1 26 27
M  V30 27 2 27 28
M  V30 28 1 28 29
M  V30 29 2 29 30
M  V30 30 1 30 7
M  V30 31 1 22 11
M  V30 32 1 30 25
M  V30 33 1 20 14
M  V30 34 1 1 31
M  V30 35 1 1 32
M  V30 36 1 1 33
M  V30 37 1 2 34
M  V30 38 1 2 35
M  V30 39 1 3 36
M  V30 40 1 6 37
M  V30 41 1 6 38
M  V30 42 1 10 39
M  V30 43 1 10 40
M  V30 44 1 15 41
M  V30 45 1 16 42
M  V30 46 1 18 43
M  V30 47 1 18 44
M  V30 48 1 18 45
M  V30 49 1 19 46
M  V30 50 1 20 47
M  V30 51 1 21 48
M  V30 52 1 26 49
M  V30 53 1 27 50
M  V30 54 1 28 51
M  V30 55 1 29 52
M  V30 END BOND
M  V30 END CTAB
M  END
>  <Dataset>  (96) 
ChEMBL_Kinases

>  <Ligand_Instance>  (96) 
nan

>  <PDB_ID>  (96) 
nan

>  <Standardized_SMILES>  (96) 
CCNC(=O)Cc1nn(Cc2nc(-c3ccc(C)cc3)cs2)c(=O)c2ccccc12

>  <Name>  (96) 
nan

>  <Pocket>  (96) 
nan

>  <ATP_Site>  (96) 
nan

>  <Peripheral>  (96) 
nan

>  <Num_H_Atoms_ProtBoundConf>  (96) 
nan

>  <Num_Resolved_Atoms>  (96) 
nan

>  <Num_Not_Resolved_Atoms>  (96) 
nan

$$$$
CHEMBL4464254
     RDKit          3D

  0  0  0  0  0  0  0  0  0  0999 V3000
M  V30 BEGIN CTAB
M  V30 COUNTS 29 31 0 0 0
M  V30 BEGIN ATOM
M  V30 1 C -3.065126 -1.107459 1.552854 0
M  V30 2 N -2.049839 -0.343316 2.265240 0
M  V30 3 C -0.691672 -0.204732 1.859366 0
M  V30 4 N -0.380980 -0.854803 0.718064 0
M  V30 5 C 0.839400 -0.846403 0.174760 0
M  V30 6 C 1.112719 -1.571226 -1.064439 0
M  V30 7 C 2.382252 -1.547741 -1.607094 0
M  V30 8 C 2.538093 -2.263478 -2.778774 0
M  V30 9 N 1.522485 -2.943436 -3.361384 0
M  V30 10 C 0.280897 -2.944518 -2.797019 0
M  V30 11 C 0.050155 -2.251464 -1.626072 0
M  V30 12 N 1.836519 -0.147693 0.794798 0
M  V30 13 C 1.569553 0.515819 1.936838 0
M  V30 14 C 2.490589 1.253790 2.651931 0
M  V30 15 N 2.164433 1.899181 3.793093 0
M  V30 16 C 0.912588 1.865199 4.311391 0
M  V30 17 C -0.060162 1.144333 3.646165 0
M  V30 18 C 0.304247 0.498454 2.486823 0
M  V30 19 H -3.418340 -1.995477 2.107029 0
M  V30 20 H -2.655751 -1.520222 0.591718 0
M  V30 21 H -3.951048 -0.491690 1.304493 0
M  V30 22 H -2.529324 0.057833 3.100637 0
M  V30 23 H 3.168651 -0.995962 -1.117090 0
M  V30 24 H 3.533029 -2.259766 -3.226641 0
M  V30 25 H -0.426078 -3.525518 -3.368158 0
M  V30 26 H -0.941859 -2.290943 -1.234525 0
M  V30 27 H 3.506228 1.306270 2.269738 0
M  V30 28 H 0.729669 2.409302 5.231507 0
M  V30 29 H -1.048430 1.103267 4.033445 0
M  V30 END ATOM
M  V30 BEGIN BOND
M  V30 1 1 1 2
M  V30 2 1 2 3
M  V30 3 2 3 4
M  V30 4 1 4 5
M  V30 5 1 5 6
M  V30 6 2 6 7
M  V30 7 1 7 8
M  V30 8 2 8 9
M  V30 9 1 9 10
M  V30 10 2 10 11
M  V30 11 2 5 12
M  V30 12 1 12 13
M  V30 13 2 13 14
M  V30 14 1 14 15
M  V30 15 2 15 16
M  V30 16 1 16 17
M  V30 17 2 17 18
M  V30 18 1 18 3
M  V30 19 1 11 6
M  V30 20 1 18 13
M  V30 21 1 1 19
M  V30 22 1 1 20
M  V30 23 1 1 21
M  V30 24 1 2 22
M  V30 25 1 7 23
M  V30 26 1 8 24
M  V30 27 1 10 25
M  V30 28 1 11 26
M  V30 29 1 14 27
M  V30 30 1 16 28
M  V30 31 1 17 29
M  V30 END BOND
M  V30 END CTAB
M  END
>  <Dataset>  (97) 
ChEMBL_Kinases

>  <Ligand_Instance>  (97) 
nan

>  <PDB_ID>  (97) 
nan

>  <Standardized_SMILES>  (97) 
CNc1nc(-c2ccncc2)nc2cnccc12

>  <Name>  (97) 
nan

>  <Pocket>  (97) 
nan

>  <ATP_Site>  (97) 
nan

>  <Peripheral>  (97) 
nan

>  <Num_H_Atoms_ProtBoundConf>  (97) 
nan

>  <Num_Resolved_Atoms>  (97) 
nan

>  <Num_Not_Resolved_Atoms>  (97) 
nan

$$$$
CHEMBL4464014
     RDKit          3D

  0  0  0  0  0  0  0  0  0  0999 V3000
M  V30 BEGIN CTAB
M  V30 COUNTS 46 49 0 0 0
M  V30 BEGIN ATOM
M  V30 1 C 6.123950 -1.016200 -2.359531 0
M  V30 2 C 5.105332 -1.810912 -3.092547 0
M  V30 3 C 3.776044 -1.611286 -2.811008 0
M  V30 4 C 2.746491 -2.311448 -3.448616 0
M  V30 5 C 1.333524 -2.101589 -3.150610 0
M  V30 6 N 0.285624 -1.963896 -4.012764 0
M  V30 7 N -0.845423 -1.789642 -3.351593 0
M  V30 8 C -0.611656 -1.802217 -2.030483 0
M  V30 9 C -1.277678 -1.686842 -0.831421 0
M  V30 10 C -0.740336 -1.743834 0.439327 0
M  V30 11 N -1.578266 -1.654815 1.578769 0
M  V30 12 S -3.162429 -1.399866 2.091359 0
M  V30 13 O -3.227799 -1.499844 3.618226 0
M  V30 14 O -4.104687 -2.485624 1.582436 0
M  V30 15 N -3.744513 0.143578 1.695381 0
M  V30 16 C -3.810605 0.472197 0.333146 0
M  V30 17 C -4.374201 1.884411 0.219690 0
M  V30 18 C -5.754554 2.065277 0.114368 0
M  V30 19 C -6.234381 3.372415 0.012256 0
M  V30 20 C -5.362813 4.441418 0.016453 0
M  V30 21 C -3.997414 4.269691 0.120280 0
M  V30 22 C -3.514823 2.969212 0.222242 0
M  V30 23 N 0.613481 -1.939717 0.456543 0
M  V30 24 C 1.320265 -2.060064 -0.667740 0
M  V30 25 C 0.746667 -1.996733 -1.908942 0
M  V30 26 C 3.146988 -3.246414 -4.409220 0
M  V30 27 C 4.493848 -3.397964 -4.643754 0
M  V30 28 N 5.467124 -2.715309 -4.020158 0
M  V30 29 H 6.258736 -1.354097 -1.304849 0
M  V30 30 H 5.836915 0.066860 -2.289342 0
M  V30 31 H 7.115340 -1.034272 -2.856756 0
M  V30 32 H 3.517537 -0.876803 -2.060782 0
M  V30 33 H -1.810133 -1.656121 -3.728828 0
M  V30 34 H -2.335482 -1.552751 -1.028491 0
M  V30 35 H -0.931880 -1.814263 2.419197 0
M  V30 36 H -4.496037 0.506999 2.302991 0
M  V30 37 H -2.756762 0.549969 -0.052584 0
M  V30 38 H -4.422145 -0.216876 -0.271698 0
M  V30 39 H -6.438933 1.224388 0.111155 0
M  V30 40 H -7.287199 3.563967 -0.070962 0
M  V30 41 H -5.690211 5.483669 -0.061192 0
M  V30 42 H -3.263832 5.072453 0.128899 0
M  V30 43 H -2.469537 2.750614 0.306277 0
M  V30 44 H 2.365576 -2.208186 -0.434175 0
M  V30 45 H 2.417787 -3.833713 -4.952396 0
M  V30 46 H 4.864124 -4.113775 -5.383108 0
M  V30 END ATOM
M  V30 BEGIN BOND
M  V30 1 1 1 2
M  V30 2 2 2 3
M  V30 3 1 3 4
M  V30 4 1 4 5
M  V30 5 2 5 6
M  V30 6 1 6 7
M  V30 7 1 7 8
M  V30 8 2 8 9
M  V30 9 1 9 10
M  V30 10 1 10 11
M  V30 11 1 11 12
M  V30 12 2 12 13
M  V30 13 2 12 14
M  V30 14 1 12 15
M  V30 15 1 15 16
M  V30 16 1 16 17
M  V30 17 2 17 18
M  V30 18 1 18 19
M  V30 19 2 19 20
M  V30 20 1 20 21
M  V30 21 2 21 22
M  V30 22 2 10 23
M  V30 23 1 23 24
M  V30 24 2 24 25
M  V30 25 2 4 26
M  V30 26 1 26 27
M  V30 27 2 27 28
M  V30 28 1 28 2
M  V30 29 1 25 5
M  V30 30 1 25 8
M  V30 31 1 22 17
M  V30 32 1 1 29
M  V30 33 1 1 30
M  V30 34 1 1 31
M  V30 35 1 3 32
M  V30 36 1 7 33
M  V30 37 1 9 34
M  V30 38 1 11 35
M  V30 39 1 15 36
M  V30 40 1 16 37
M  V30 41 1 16 38
M  V30 42 1 18 39
M  V30 43 1 19 40
M  V30 44 1 20 41
M  V30 45 1 21 42
M  V30 46 1 22 43
M  V30 47 1 24 44
M  V30 48 1 26 45
M  V30 49 1 27 46
M  V30 END BOND
M  V30 END CTAB
M  END
>  <Dataset>  (98) 
ChEMBL_Kinases

>  <Ligand_Instance>  (98) 
nan

>  <PDB_ID>  (98) 
nan

>  <Standardized_SMILES>  (98) 
Cc1cc(-c2n[nH]c3cc(NS(=O)(=O)NCc4ccccc4)ncc23)ccn1

>  <Name>  (98) 
nan

>  <Pocket>  (98) 
nan

>  <ATP_Site>  (98) 
nan

>  <Peripheral>  (98) 
nan

>  <Num_H_Atoms_ProtBoundConf>  (98) 
nan

>  <Num_Resolved_Atoms>  (98) 
nan

>  <Num_Not_Resolved_Atoms>  (98) 
nan

$$$$
CHEMBL4464579
     RDKit          3D

  0  0  0  0  0  0  0  0  0  0999 V3000
M  V30 BEGIN CTAB
M  V30 COUNTS 57 61 0 0 0
M  V30 BEGIN ATOM
M  V30 1 C 5.765368 -1.759518 6.606082 0
M  V30 2 O 5.916084 -1.195209 5.311873 0
M  V30 3 C 5.138311 -0.195569 4.860947 0
M  V30 4 C 4.127272 0.249325 5.800562 0
M  V30 5 C 3.108553 1.247185 5.769378 0
M  V30 6 C 3.283623 1.795206 4.492890 0
M  V30 7 C 4.109852 1.581887 3.459540 0
M  V30 8 C 4.078360 2.336216 2.205983 0
M  V30 9 C 3.217923 1.748499 1.148853 0
M  V30 10 O 3.293807 0.630496 0.525524 0
M  V30 11 N 2.090572 2.424386 0.653475 0
M  V30 12 C 0.964925 2.556042 -0.164500 0
M  V30 13 C -0.281514 2.151186 0.285207 0
M  V30 14 C -1.476495 2.179439 -0.355256 0
M  V30 15 O -2.580329 1.715065 0.305854 0
M  V30 16 C -3.206396 0.527395 0.173412 0
M  V30 17 C -4.201293 -0.236271 0.814828 0
M  V30 18 C -4.632482 -1.462406 0.374763 0
M  V30 19 C -4.116415 -2.087166 -0.776387 0
M  V30 20 N -4.569979 -3.249183 -1.171976 0
M  V30 21 C -4.124025 -3.768703 -2.187444 0
M  V30 22 N -4.121303 -4.834021 -3.180561 0
M  V30 23 C -3.412068 -6.100499 -3.124349 0
M  V30 24 O -3.004925 -5.680368 -1.989750 0
M  V30 25 C -3.700463 -6.841155 -4.358184 0
M  V30 26 C -3.479315 -6.017352 -5.636644 0
M  V30 27 C -4.833180 -6.570259 -5.248815 0
M  V30 28 S -2.841769 -2.469727 -2.735032 0
M  V30 29 C -3.189278 -1.353338 -1.347593 0
M  V30 30 C -2.714420 -0.103936 -0.943566 0
M  V30 31 C -1.382326 2.697511 -1.636243 0
M  V30 32 C -0.199267 3.132270 -2.188982 0
M  V30 33 C 0.948872 3.054791 -1.447124 0
M  V30 34 F 2.125801 3.471434 -1.972414 0
M  V30 35 C 4.972508 0.579811 3.764870 0
M  V30 36 H 4.742800 -2.183074 6.697869 0
M  V30 37 H 6.519847 -2.566670 6.724058 0
M  V30 38 H 5.883475 -0.965842 7.384931 0
M  V30 39 H 4.075889 -0.269416 6.791180 0
M  V30 40 H 2.436439 1.455120 6.552968 0
M  V30 41 H 2.537395 2.619321 4.317706 0
M  V30 42 H 5.098516 2.540775 1.797101 0
M  V30 43 H 3.674993 3.353131 2.459936 0
M  V30 44 H 1.921733 3.381034 1.101121 0
M  V30 45 H -0.271397 1.764164 1.306350 0
M  V30 46 H -4.510487 0.339373 1.677777 0
M  V30 47 H -5.400963 -1.808308 1.067302 0
M  V30 48 H -4.770320 -4.466985 -3.982383 0
M  V30 49 H -3.165428 -7.832042 -4.419531 0
M  V30 50 H -2.902150 -6.436409 -6.459340 0
M  V30 51 H -3.413686 -4.917090 -5.536830 0
M  V30 52 H -5.120514 -7.461947 -5.884360 0
M  V30 53 H -5.668599 -5.947430 -4.948112 0
M  V30 54 H -1.943056 0.197465 -1.674600 0
M  V30 55 H -2.285461 2.740881 -2.201695 0
M  V30 56 H -0.183139 3.521353 -3.195760 0
M  V30 57 H 5.731535 0.275379 3.026184 0
M  V30 END ATOM
M  V30 BEGIN BOND
M  V30 1 1 1 2
M  V30 2 1 2 3
M  V30 3 2 3 4
M  V30 4 1 4 5
M  V30 5 2 5 6
M  V30 6 1 6 7
M  V30 7 1 7 8
M  V30 8 1 8 9
M  V30 9 2 9 10
M  V30 10 1 9 11
M  V30 11 1 11 12
M  V30 12 2 12 13
M  V30 13 1 13 14
M  V30 14 1 14 15
M  V30 15 1 15 16
M  V30 16 2 16 17
M  V30 17 1 17 18
M  V30 18 2 18 19
M  V30 19 1 19 20
M  V30 20 2 20 21
M  V30 21 1 21 22
M  V30 22 1 22 23
M  V30 23 2 23 24
M  V30 24 1 23 25
M  V30 25 1 25 26
M  V30 26 1 26 27
M  V30 27 1 21 28
M  V30 28 1 28 29
M  V30 29 2 29 30
M  V30 30 2 14 31
M  V30 31 1 31 32
M  V30 32 2 32 33
M  V30 33 1 33 34
M  V30 34 2 7 35
M  V30 35 1 35 3
M  V30 36 1 33 12
M  V30 37 1 30 16
M  V30 38 1 29 19
M  V30 39 1 27 25
M  V30 40 1 1 36
M  V30 41 1 1 37
M  V30 42 1 1 38
M  V30 43 1 4 39
M  V30 44 1 5 40
M  V30 45 1 6 41
M  V30 46 1 8 42
M  V30 47 1 8 43
M  V30 48 1 11 44
M  V30 49 1 13 45
M  V30 50 1 17 46
M  V30 51 1 18 47
M  V30 52 1 22 48
M  V30 53 1 25 49
M  V30 54 1 26 50
M  V30 55 1 26 51
M  V30 56 1 27 52
M  V30 57 1 27 53
M  V30 58 1 30 54
M  V30 59 1 31 55
M  V30 60 1 32 56
M  V30 61 1 35 57
M  V30 END BOND
M  V30 END CTAB
M  END
>  <Dataset>  (99) 
ChEMBL_Kinases

>  <Ligand_Instance>  (99) 
nan

>  <PDB_ID>  (99) 
nan

>  <Standardized_SMILES>  (99) 
COc1cccc(CC(=O)Nc2cc(Oc3ccc4nc(NC(=O)C5CC5)sc4c3)ccc2F)c1

>  <Name>  (99) 
nan

>  <Pocket>  (99) 
nan

>  <ATP_Site>  (99) 
nan

>  <Peripheral>  (99) 
nan

>  <Num_H_Atoms_ProtBoundConf>  (99) 
nan

>  <Num_Resolved_Atoms>  (99) 
nan

>  <Num_Not_Resolved_Atoms>  (99) 
nan

$$$$
CHEMBL4466123
     RDKit          3D

  0  0  0  0  0  0  0  0  0  0999 V3000
M  V30 BEGIN CTAB
M  V30 COUNTS 45 48 0 0 0
M  V30 BEGIN ATOM
M  V30 1 C 1.149788 -4.483271 2.394263 0
M  V30 2 O 1.000835 -3.375212 1.549547 0
M  V30 3 C 1.111320 -2.092837 1.997460 0
M  V30 4 C 1.368584 -1.569268 3.252693 0
M  V30 5 C 1.436013 -0.211809 3.476081 0
M  V30 6 C 1.251247 0.705773 2.463337 0
M  V30 7 N 1.347838 2.077731 2.832358 0
M  V30 8 C 2.546738 2.604921 3.218212 0
M  V30 9 C 2.300952 3.935411 3.504659 0
M  V30 10 C 0.982856 4.232177 3.303117 0
M  V30 11 C 0.146898 5.342505 3.409547 0
M  V30 12 N -1.171066 5.246425 3.108149 0
M  V30 13 C -1.700813 4.076115 2.699438 0
M  V30 14 N -3.096808 4.029192 2.393864 0
M  V30 15 N -0.886626 3.005942 2.598603 0
M  V30 16 C 0.415133 3.046021 2.882376 0
M  V30 17 C 0.993202 0.211432 1.202151 0
M  V30 18 C 0.926272 -1.146453 0.981166 0
M  V30 19 C 0.643954 -1.517534 -0.398237 0
M  V30 20 C 0.401251 -1.836728 -1.534789 0
M  V30 21 C 0.084461 -2.231004 -2.909393 0
M  V30 22 C 1.357886 -2.455858 -3.719747 0
M  V30 23 O -0.670122 -1.247108 -3.565789 0
M  V30 24 C -0.669930 -3.461729 -2.869685 0
M  V30 25 N -0.533483 -4.810232 -3.381939 0
M  V30 26 C -1.601526 -5.495839 -2.986924 0
M  V30 27 C -2.824040 -5.030130 -2.132554 0
M  V30 28 S -2.171760 -3.262116 -1.939944 0
M  V30 29 H 1.455375 -4.256276 3.419225 0
M  V30 30 H 1.915628 -5.210632 1.998950 0
M  V30 31 H 0.145458 -4.991003 2.405533 0
M  V30 32 H 1.504093 -2.330594 4.005769 0
M  V30 33 H 1.646644 0.074670 4.517279 0
M  V30 34 H 3.530497 2.131254 3.304648 0
M  V30 35 H 3.028087 4.664848 3.842837 0
M  V30 36 H 0.626720 6.271838 3.746528 0
M  V30 37 H -3.755657 3.807350 3.161170 0
M  V30 38 H -2.991431 4.260404 1.379215 0
M  V30 39 H 0.852560 0.945437 0.427070 0
M  V30 40 H 1.911238 -1.518766 -3.896294 0
M  V30 41 H 1.049515 -2.934601 -4.679612 0
M  V30 42 H 1.962079 -3.223775 -3.184856 0
M  V30 43 H -1.428328 -0.935867 -3.022805 0
M  V30 44 H -1.339649 -6.467990 -3.451083 0
M  V30 45 H -3.423049 -5.945818 -2.081450 0
M  V30 END ATOM
M  V30 BEGIN BOND
M  V30 1 1 1 2
M  V30 2 1 2 3
M  V30 3 2 3 4
M  V30 4 1 4 5
M  V30 5 2 5 6
M  V30 6 1 6 7
M  V30 7 1 7 8
M  V30 8 2 8 9
M  V30 9 1 9 10
M  V30 10 2 10 11
M  V30 11 1 11 12
M  V30 12 2 12 13
M  V30 13 1 13 14
M  V30 14 1 13 15
M  V30 15 2 15 16
M  V30 16 1 6 17
M  V30 17 2 17 18
M  V30 18 1 18 19
M  V30 19 3 19 20
M  V30 20 1 20 21
M  V30 21 1 21 22
M  V30 22 1 21 23
M  V30 23 1 21 24
M  V30 24 2 24 25
M  V30 25 1 25 26
M  V30 26 2 26 27
M  V30 27 1 27 28
M  V30 28 1 18 3
M  V30 29 1 28 24
M  V30 30 1 16 7
M  V30 31 1 16 10
M  V30 32 1 1 29
M  V30 33 1 1 30
M  V30 34 1 1 31
M  V30 35 1 4 32
M  V30 36 1 5 33
M  V30 37 1 8 34
M  V30 38 1 9 35
M  V30 39 1 11 36
M  V30 40 1 14 37
M  V30 41 1 14 38
M  V30 42 1 17 39
M  V30 43 1 22 40
M  V30 44 1 22 41
M  V30 45 1 22 42
M  V30 46 1 23 43
M  V30 47 1 26 44
M  V30 48 1 27 45
M  V30 END BOND
M  V30 END CTAB
M  END
>  <Dataset>  (100) 
ChEMBL_Kinases

>  <Ligand_Instance>  (100) 
nan

>  <PDB_ID>  (100) 
nan

>  <Standardized_SMILES>  (100) 
COc1ccc(-n2ccc3cnc(N)nc32)cc1C#CC(C)(O)c1nccs1

>  <Name>  (100) 
nan

>  <Pocket>  (100) 
nan

>  <ATP_Site>  (100) 
nan

>  <Peripheral>  (100) 
nan

>  <Num_H_Atoms_ProtBoundConf>  (100) 
nan

>  <Num_Resolved_Atoms>  (100) 
nan

>  <Num_Not_Resolved_Atoms>  (100) 
nan

$$$$
CHEMBL4466113
     RDKit          3D

  0  0  0  0  0  0  0  0  0  0999 V3000
M  V30 BEGIN CTAB
M  V30 COUNTS 37 41 0 0 0
M  V30 BEGIN ATOM
M  V30 1 O -1.011216 -5.644153 1.664140 0
M  V30 2 C 0.094820 -5.093319 1.441506 0
M  V30 3 N 1.387384 -5.650399 1.268473 0
M  V30 4 C 2.296741 -4.585021 1.039691 0
M  V30 5 C 3.650510 -4.627797 0.802885 0
M  V30 6 C 4.367075 -3.472705 0.581027 0
M  V30 7 C 3.710618 -2.240111 0.596163 0
M  V30 8 C 2.359104 -2.241639 0.836809 0
M  V30 9 C 1.642038 -3.377069 1.059130 0
M  V30 10 C 0.250838 -3.656928 1.311561 0
M  V30 11 C -0.636431 -2.699469 1.349035 0
M  V30 12 C -0.578461 -1.265140 1.240719 0
M  V30 13 C -1.332576 -0.798882 0.149923 0
M  V30 14 C -1.516092 0.537791 -0.158215 0
M  V30 15 C -0.927331 1.464669 0.648516 0
M  V30 16 C -0.845767 2.861896 0.717096 0
M  V30 17 C -1.526677 3.721040 -0.281094 0
M  V30 18 N -2.231719 3.428769 -1.277925 0
M  V30 19 C -2.742964 4.378201 -2.034960 0
M  V30 20 C -2.455078 5.790036 -1.665995 0
M  V30 21 S -1.388286 5.467869 -0.135228 0
M  V30 22 N -0.103901 3.193574 1.763368 0
M  V30 23 N 0.327470 2.126456 2.414781 0
M  V30 24 C -0.174261 1.082833 1.735152 0
M  V30 25 C -0.007063 -0.249406 2.019822 0
M  V30 26 H 1.508013 -6.684289 1.324591 0
M  V30 27 H 4.150827 -5.584400 0.792698 0
M  V30 28 H 5.423815 -3.587859 0.402973 0
M  V30 29 H 4.392452 -1.423096 0.407371 0
M  V30 30 H 2.033568 -1.233481 0.786872 0
M  V30 31 H -1.665292 -3.074058 1.502887 0
M  V30 32 H -1.853346 -1.454246 -0.569197 0
M  V30 33 H -2.096789 0.883707 -0.997658 0
M  V30 34 H -3.324533 3.914259 -2.850524 0
M  V30 35 H -3.056669 6.428970 -2.542717 0
M  V30 36 H 0.924474 2.125497 3.265815 0
M  V30 37 H 0.552353 -0.718522 2.833479 0
M  V30 END ATOM
M  V30 BEGIN BOND
M  V30 1 2 1 2
M  V30 2 1 2 3
M  V30 3 1 3 4
M  V30 4 2 4 5
M  V30 5 1 5 6
M  V30 6 2 6 7
M  V30 7 1 7 8
M  V30 8 2 8 9
M  V30 9 1 9 10
M  V30 10 2 10 11
M  V30 11 1 11 12
M  V30 12 2 12 13
M  V30 13 1 13 14
M  V30 14 2 14 15
M  V30 15 1 15 16
M  V30 16 1 16 17
M  V30 17 2 17 18
M  V30 18 1 18 19
M  V30 19 2 19 20
M  V30 20 1 20 21
M  V30 21 2 16 22
M  V30 22 1 22 23
M  V30 23 1 23 24
M  V30 24 2 24 25
M  V30 25 1 10 2
M  V30 26 1 25 12
M  V30 27 1 9 4
M  V30 28 1 24 15
M  V30 29 1 21 17
M  V30 30 1 3 26
M  V30 31 1 5 27
M  V30 32 1 6 28
M  V30 33 1 7 29
M  V30 34 1 8 30
M  V30 35 1 11 31
M  V30 36 1 13 32
M  V30 37 1 14 33
M  V30 38 1 19 34
M  V30 39 1 20 35
M  V30 40 1 23 36
M  V30 41 1 25 37
M  V30 END BOND
M  V30 END CTAB
M  END
>  <Dataset>  (101) 
ChEMBL_Kinases

>  <Ligand_Instance>  (101) 
nan

>  <PDB_ID>  (101) 
nan

>  <Standardized_SMILES>  (101) 
O=C1Nc2ccccc2/C1=C\c1ccc2c(-c3nccs3)n[nH]c2c1

>  <Name>  (101) 
nan

>  <Pocket>  (101) 
nan

>  <ATP_Site>  (101) 
nan

>  <Peripheral>  (101) 
nan

>  <Num_H_Atoms_ProtBoundConf>  (101) 
nan

>  <Num_Resolved_Atoms>  (101) 
nan

>  <Num_Not_Resolved_Atoms>  (101) 
nan

$$$$
CHEMBL4466051
     RDKit          3D

  0  0  0  0  0  0  0  0  0  0999 V3000
M  V30 BEGIN CTAB
M  V30 COUNTS 44 47 0 0 0
M  V30 BEGIN ATOM
M  V30 1 C 1.243214 -5.844894 -0.729363 0
M  V30 2 C -0.045268 -5.118439 -0.502457 0
M  V30 3 C -0.896972 -5.269885 -1.771113 0
M  V30 4 C 0.163200 -3.692470 -0.212832 0
M  V30 5 N -0.392431 -3.080875 0.837130 0
M  V30 6 N -0.000257 -1.827499 0.794950 0
M  V30 7 C 0.781862 -1.540052 -0.206892 0
M  V30 8 C 1.546328 -0.523902 -0.909738 0
M  V30 9 N 2.315863 -0.645602 -2.032046 0
M  V30 10 N 2.855588 0.472504 -2.394368 0
M  V30 11 C 2.503770 1.448747 -1.557162 0
M  V30 12 C 2.802204 2.785113 -1.514287 0
M  V30 13 C 2.202919 3.463269 -0.447410 0
M  V30 14 N 1.400135 2.826214 0.451360 0
M  V30 15 C 1.134647 1.490275 0.362997 0
M  V30 16 O 0.394003 1.437212 1.371826 0
M  V30 17 C -0.383537 1.380941 2.430718 0
M  V30 18 C 0.380838 1.814249 3.722603 0
M  V30 19 C -0.558436 1.509501 4.834296 0
M  V30 20 O -1.654953 2.325575 4.843666 0
M  V30 21 C -2.264192 2.566782 3.663637 0
M  V30 22 C -1.570053 2.358600 2.394742 0
M  V30 23 C 1.697928 0.794819 -0.658378 0
M  V30 24 N 0.839531 -2.729769 -0.782874 0
M  V30 25 H 1.257267 -6.741950 -0.106166 0
M  V30 26 H 2.134136 -5.215948 -0.483351 0
M  V30 27 H 1.356624 -6.138672 -1.791724 0
M  V30 28 H -0.623780 -5.579339 0.328204 0
M  V30 29 H -1.979880 -5.218799 -1.499920 0
M  V30 30 H -0.731319 -6.254950 -2.223297 0
M  V30 31 H -0.586246 -4.495225 -2.473075 0
M  V30 32 H -0.224391 -1.101322 1.426704 0
M  V30 33 H 3.453068 0.461966 -3.236460 0
M  V30 34 H 3.448527 3.184620 -2.277268 0
M  V30 35 H 2.522952 4.525561 -0.528132 0
M  V30 36 H -0.826547 0.421059 2.733736 0
M  V30 37 H 1.277398 1.194774 3.743178 0
M  V30 38 H 0.567498 2.891413 3.665397 0
M  V30 39 H -0.012336 1.650056 5.808541 0
M  V30 40 H -0.888854 0.465115 4.804560 0
M  V30 41 H -3.202525 1.948040 3.660822 0
M  V30 42 H -2.671238 3.620524 3.716857 0
M  V30 43 H -1.137392 3.317773 2.038958 0
M  V30 44 H -2.231008 1.994074 1.581018 0
M  V30 END ATOM
M  V30 BEGIN BOND
M  V30 1 1 1 2
M  V30 2 1 2 3
M  V30 3 1 2 4
M  V30 4 2 4 5
M  V30 5 1 5 6
M  V30 6 1 6 7
M  V30 7 1 7 8
M  V30 8 2 8 9
M  V30 9 1 9 10
M  V30 10 1 10 11
M  V30 11 2 11 12
M  V30 12 1 12 13
M  V30 13 2 13 14
M  V30 14 1 14 15
M  V30 15 1 15 16
M  V30 16 1 16 17
M  V30 17 1 17 18
M  V30 18 1 18 19
M  V30 19 1 19 20
M  V30 20 1 20 21
M  V30 21 1 21 22
M  V30 22 2 15 23
M  V30 23 2 7 24
M  V30 24 1 24 4
M  V30 25 1 23 8
M  V30 26 1 23 11
M  V30 27 1 22 17
M  V30 28 1 1 25
M  V30 29 1 1 26
M  V30 30 1 1 27
M  V30 31 1 2 28
M  V30 32 1 3 29
M  V30 33 1 3 30
M  V30 34 1 3 31
M  V30 35 1 6 32
M  V30 36 1 10 33
M  V30 37 1 12 34
M  V30 38 1 13 35
M  V30 39 1 17 36
M  V30 40 1 18 37
M  V30 41 1 18 38
M  V30 42 1 19 39
M  V30 43 1 19 40
M  V30 44 1 21 41
M  V30 45 1 21 42
M  V30 46 1 22 43
M  V30 47 1 22 44
M  V30 END BOND
M  V30 END CTAB
M  END
>  <Dataset>  (102) 
ChEMBL_Kinases

>  <Ligand_Instance>  (102) 
nan

>  <PDB_ID>  (102) 
nan

>  <Standardized_SMILES>  (102) 
CC(C)c1n[nH]c(-c2n[nH]c3ccnc(OC4CCOCC4)c23)n1

>  <Name>  (102) 
nan

>  <Pocket>  (102) 
nan

>  <ATP_Site>  (102) 
nan

>  <Peripheral>  (102) 
nan

>  <Num_H_Atoms_ProtBoundConf>  (102) 
nan

>  <Num_Resolved_Atoms>  (102) 
nan

>  <Num_Not_Resolved_Atoms>  (102) 
nan

$$$$
CHEMBL4465957
     RDKit          3D

  0  0  0  0  0  0  0  0  0  0999 V3000
M  V30 BEGIN CTAB
M  V30 COUNTS 70 74 0 0 0
M  V30 BEGIN ATOM
M  V30 1 N -1.314221 6.411115 2.803853 0
M  V30 2 C -0.028110 5.823903 2.834200 0
M  V30 3 O 0.769843 6.419031 3.594209 0
M  V30 4 C 0.421928 4.662682 2.109694 0
M  V30 5 C 1.713104 4.211719 2.294657 0
M  V30 6 C 2.125055 3.078433 1.585704 0
M  V30 7 C 3.500520 2.641521 1.802108 0
M  V30 8 C 4.169498 2.792608 2.997569 0
M  V30 9 C 5.474377 2.333796 3.044092 0
M  V30 10 C 6.174174 1.735635 2.000160 0
M  V30 11 C 5.481318 1.596405 0.816276 0
M  V30 12 C 4.159947 2.049952 0.733823 0
M  V30 13 C 1.265741 2.433921 0.728939 0
M  V30 14 C -0.001368 2.910794 0.572241 0
M  V30 15 C -0.940004 2.356633 -0.266074 0
M  V30 16 C -1.180678 1.254095 -1.173596 0
M  V30 17 C -2.399355 0.463850 -0.648827 0
M  V30 18 C -2.291551 -1.000134 -0.905409 0
M  V30 19 N -1.166845 -1.599875 -0.184766 0
M  V30 20 S -1.670113 -2.073100 1.403392 0
M  V30 21 O -2.044957 -0.875264 2.195592 0
M  V30 22 O -0.434716 -2.679352 2.052781 0
M  V30 23 C -2.938731 -3.277876 1.317357 0
M  V30 24 C -2.577771 -4.564880 0.666025 0
M  V30 25 C -2.125048 -4.504952 -0.751474 0
M  V30 26 N -1.836533 -5.851919 -1.213020 0
M  V30 27 C -1.497008 -5.848447 -2.643353 0
M  V30 28 C -1.423775 -7.340659 -3.006757 0
M  V30 29 O -0.492158 -8.028625 -2.267933 0
M  V30 30 C -0.740385 -7.948903 -0.893263 0
M  V30 31 C -0.674916 -6.444477 -0.582316 0
M  V30 32 C -0.080480 -0.627874 -0.090846 0
M  V30 33 C -0.124642 0.224139 -1.330114 0
M  V30 34 C -2.037863 3.200328 -0.082338 0
M  V30 35 N -1.702195 4.159094 0.813163 0
M  V30 36 C -0.441989 4.021758 1.252031 0
M  V30 37 H -1.773097 5.658006 3.394629 0
M  V30 38 H -1.567423 7.302613 2.315861 0
M  V30 39 H 2.384024 4.726230 2.972585 0
M  V30 40 H 3.689697 3.242568 3.832532 0
M  V30 41 H 6.026999 2.443938 3.968632 0
M  V30 42 H 7.171632 1.414808 2.115298 0
M  V30 43 H 5.934942 1.136441 -0.068996 0
M  V30 44 H 3.648810 1.923841 -0.215204 0
M  V30 45 H 1.657256 1.590383 0.233176 0
M  V30 46 H -1.394052 1.675128 -2.183566 0
M  V30 47 H -3.271757 0.841971 -1.216969 0
M  V30 48 H -2.528111 0.620682 0.429574 0
M  V30 49 H -3.193045 -1.471573 -0.467872 0
M  V30 50 H -2.282273 -1.312899 -1.961365 0
M  V30 51 H -3.214952 -3.527073 2.391610 0
M  V30 52 H -3.877418 -2.873137 0.838729 0
M  V30 53 H -3.437722 -5.295866 0.685989 0
M  V30 54 H -1.813686 -5.078352 1.318302 0
M  V30 55 H -1.239271 -3.845665 -0.893769 0
M  V30 56 H -2.916480 -4.093542 -1.408108 0
M  V30 57 H -0.536778 -5.375464 -2.858867 0
M  V30 58 H -2.322327 -5.420953 -3.204460 0
M  V30 59 H -2.455105 -7.725216 -2.867448 0
M  V30 60 H -1.156011 -7.405939 -4.061912 0
M  V30 61 H -1.751321 -8.335672 -0.646699 0
M  V30 62 H 0.062117 -8.507978 -0.383228 0
M  V30 63 H 0.257243 -6.108421 -1.124265 0
M  V30 64 H -0.533392 -6.252563 0.466856 0
M  V30 65 H -0.306380 0.049795 0.787386 0
M  V30 66 H 0.906109 -1.058868 0.019519 0
M  V30 67 H -0.478049 -0.458141 -2.159188 0
M  V30 68 H 0.859112 0.571718 -1.692483 0
M  V30 69 H -3.062135 3.246002 -0.490906 0
M  V30 70 H -2.295479 4.953799 1.175352 0
M  V30 END ATOM
M  V30 BEGIN BOND
M  V30 1 1 1 2
M  V30 2 2 2 3
M  V30 3 1 2 4
M  V30 4 2 4 5
M  V30 5 1 5 6
M  V30 6 1 6 7
M  V30 7 2 7 8
M  V30 8 1 8 9
M  V30 9 2 9 10
M  V30 10 1 10 11
M  V30 11 2 11 12
M  V30 12 2 6 13
M  V30 13 1 13 14
M  V30 14 1 14 15
M  V30 15 1 15 16
M  V30 16 1 16 17
M  V30 17 1 17 18
M  V30 18 1 18 19
M  V30 19 1 19 20
M  V30 20 2 20 21
M  V30 21 2 20 22
M  V30 22 1 20 23
M  V30 23 1 23 24
M  V30 24 1 24 25
M  V30 25 1 25 26
M  V30 26 1 26 27
M  V30 27 1 27 28
M  V30 28 1 28 29
M  V30 29 1 29 30
M  V30 30 1 30 31
M  V30 31 1 19 32
M  V30 32 1 32 33
M  V30 33 2 15 34
M  V30 34 1 34 35
M  V30 35 1 35 36
M  V30 36 1 36 4
M  V30 37 1 12 7
M  V30 38 2 36 14
M  V30 39 1 33 16
M  V30 40 1 31 26
M  V30 41 1 1 37
M  V30 42 1 1 38
M  V30 43 1 5 39
M  V30 44 1 8 40
M  V30 45 1 9 41
M  V30 46 1 10 42
M  V30 47 1 11 43
M  V30 48 1 12 44
M  V30 49 1 13 45
M  V30 50 1 16 46
M  V30 51 1 17 47
M  V30 52 1 17 48
M  V30 53 1 18 49
M  V30 54 1 18 50
M  V30 55 1 23 51
M  V30 56 1 23 52
M  V30 57 1 24 53
M  V30 58 1 24 54
M  V30 59 1 25 55
M  V30 60 1 25 56
M  V30 61 1 27 57
M  V30 62 1 27 58
M  V30 63 1 28 59
M  V30 64 1 28 60
M  V30 65 1 30 61
M  V30 66 1 30 62
M  V30 67 1 31 63
M  V30 68 1 31 64
M  V30 69 1 32 65
M  V30 70 1 32 66
M  V30 71 1 33 67
M  V30 72 1 33 68
M  V30 73 1 34 69
M  V30 74 1 35 70
M  V30 END BOND
M  V30 END CTAB
M  END
>  <Dataset>  (103) 
ChEMBL_Kinases

>  <Ligand_Instance>  (103) 
nan

>  <PDB_ID>  (103) 
nan

>  <Standardized_SMILES>  (103) 
NC(=O)c1cc(-c2ccccc2)cc2c(C3CCN(S(=O)(=O)CCCN4CCOCC4)CC3)c[nH]c12

>  <Name>  (103) 
nan

>  <Pocket>  (103) 
nan

>  <ATP_Site>  (103) 
nan

>  <Peripheral>  (103) 
nan

>  <Num_H_Atoms_ProtBoundConf>  (103) 
nan

>  <Num_Resolved_Atoms>  (103) 
nan

>  <Num_Not_Resolved_Atoms>  (103) 
nan

$$$$
CHEMBL4465956
     RDKit          3D

  0  0  0  0  0  0  0  0  0  0999 V3000
M  V30 BEGIN CTAB
M  V30 COUNTS 56 60 0 0 0
M  V30 BEGIN ATOM
M  V30 1 C 5.694890 -5.429483 2.335029 0
M  V30 2 O 4.329422 -5.220437 2.033706 0
M  V30 3 C 3.834733 -4.059432 1.456332 0
M  V30 4 C 4.476042 -2.915134 1.061583 0
M  V30 5 C 3.735899 -1.888473 0.504358 0
M  V30 6 C 2.369960 -1.976781 0.331489 0
M  V30 7 C 1.713573 -0.817533 -0.269455 0
M  V30 8 N 0.774564 -0.002501 0.249572 0
M  V30 9 N 0.432761 0.934332 -0.608734 0
M  V30 10 C -0.559774 1.847356 -0.144059 0
M  V30 11 C -0.317700 3.163894 0.185671 0
M  V30 12 C -1.316313 4.005148 0.632209 0
M  V30 13 C -2.604899 3.468964 0.741321 0
M  V30 14 C -2.840777 2.146769 0.408727 0
M  V30 15 N -4.182451 1.629844 0.534921 0
M  V30 16 C -4.327826 1.095354 1.861073 0
M  V30 17 O -3.247728 1.234062 2.520662 0
M  V30 18 C -5.550912 0.481010 2.368665 0
M  V30 19 C -6.686394 0.355693 1.630591 0
M  V30 20 C -7.770838 -0.249547 2.243320 0
M  V30 21 C -7.711135 -0.710928 3.552250 0
M  V30 22 Cl -9.114689 -1.475360 4.293850 0
M  V30 23 C -6.560347 -0.580068 4.289865 0
M  V30 24 Cl -6.468035 -1.156510 5.941182 0
M  V30 25 C -5.468933 0.028811 3.673666 0
M  V30 26 C -1.848511 1.316943 -0.033299 0
M  V30 27 C 1.130000 0.791669 -1.750837 0
M  V30 28 C 1.932651 -0.309085 -1.533464 0
M  V30 29 C 2.855265 -0.797737 -2.553277 0
M  V30 30 C 2.532746 -2.089443 -2.968412 0
M  V30 31 C 3.313929 -2.707863 -3.939810 0
M  V30 32 N 4.378278 -2.055059 -4.474337 0
M  V30 33 C 4.686995 -0.813244 -4.074175 0
M  V30 34 C 3.943496 -0.156325 -3.113655 0
M  V30 35 C 1.718189 -3.128171 0.727539 0
M  V30 36 C 2.463955 -4.165890 1.290581 0
M  V30 37 Cl 1.458498 -5.548493 1.732495 0
M  V30 38 H 5.818102 -5.799669 3.387693 0
M  V30 39 H 6.140228 -6.249519 1.716086 0
M  V30 40 H 6.310385 -4.509848 2.290767 0
M  V30 41 H 5.537047 -2.946719 1.238858 0
M  V30 42 H 4.348560 -1.025986 0.226853 0
M  V30 43 H 0.712023 3.494144 0.070187 0
M  V30 44 H -1.100518 5.043339 0.887151 0
M  V30 45 H -3.372496 4.141356 1.092303 0
M  V30 46 H -5.026104 1.569279 -0.110532 0
M  V30 47 H -6.726113 0.713817 0.621390 0
M  V30 48 H -8.702909 -0.385383 1.727078 0
M  V30 49 H -4.580332 0.113980 4.285357 0
M  V30 50 H -2.065188 0.278867 -0.287986 0
M  V30 51 H 0.975394 1.478719 -2.569113 0
M  V30 52 H 1.720266 -2.720463 -2.630666 0
M  V30 53 H 3.163770 -3.705526 -4.342201 0
M  V30 54 H 5.512463 -0.253707 -4.460152 0
M  V30 55 H 4.100596 0.836064 -2.719817 0
M  V30 56 H 0.659750 -3.124962 0.562445 0
M  V30 END ATOM
M  V30 BEGIN BOND
M  V30 1 1 1 2
M  V30 2 1 2 3
M  V30 3 2 3 4
M  V30 4 1 4 5
M  V30 5 2 5 6
M  V30 6 1 6 7
M  V30 7 2 7 8
M  V30 8 1 8 9
M  V30 9 1 9 10
M  V30 10 2 10 11
M  V30 11 1 11 12
M  V30 12 2 12 13
M  V30 13 1 13 14
M  V30 14 1 14 15
M  V30 15 1 15 16
M  V30 16 2 16 17
M  V30 17 1 16 18
M  V30 18 2 18 19
M  V30 19 1 19 20
M  V30 20 2 20 21
M  V30 21 1 21 22
M  V30 22 1 21 23
M  V30 23 1 23 24
M  V30 24 2 23 25
M  V30 25 2 14 26
M  V30 26 1 9 27
M  V30 27 2 27 28
M  V30 28 1 28 29
M  V30 29 2 29 30
M  V30 30 1 30 31
M  V30 31 2 31 32
M  V30 32 1 32 33
M  V30 33 2 33 34
M  V30 34 1 6 35
M  V30 35 2 35 36
M  V30 36 1 36 37
M  V30 37 1 36 3
M  V30 38 1 28 7
M  V30 39 1 34 29
M  V30 40 1 26 10
M  V30 41 1 25 18
M  V30 42 1 1 38
M  V30 43 1 1 39
M  V30 44 1 1 40
M  V30 45 1 4 41
M  V30 46 1 5 42
M  V30 47 1 11 43
M  V30 48 1 12 44
M  V30 49 1 13 45
M  V30 50 1 15 46
M  V30 51 1 19 47
M  V30 52 1 20 48
M  V30 53 1 25 49
M  V30 54 1 26 50
M  V30 55 1 27 51
M  V30 56 1 30 52
M  V30 57 1 31 53
M  V30 58 1 33 54
M  V30 59 1 34 55
M  V30 60 1 35 56
M  V30 END BOND
M  V30 END CTAB
M  END
>  <Dataset>  (104) 
ChEMBL_Kinases

>  <Ligand_Instance>  (104) 
nan

>  <PDB_ID>  (104) 
nan

>  <Standardized_SMILES>  (104) 
COc1ccc(-c2nn(-c3cccc(NC(=O)c4ccc(Cl)c(Cl)c4)c3)cc2-c2ccncc2)cc1Cl

>  <Name>  (104) 
nan

>  <Pocket>  (104) 
nan

>  <ATP_Site>  (104) 
nan

>  <Peripheral>  (104) 
nan

>  <Num_H_Atoms_ProtBoundConf>  (104) 
nan

>  <Num_Resolved_Atoms>  (104) 
nan

>  <Num_Not_Resolved_Atoms>  (104) 
nan

$$$$
CHEMBL4465944
     RDKit          3D

  0  0  0  0  0  0  0  0  0  0999 V3000
M  V30 BEGIN CTAB
M  V30 COUNTS 29 31 0 0 0
M  V30 BEGIN ATOM
M  V30 1 C 0.170688 -0.972797 3.454219 0
M  V30 2 C 1.344161 -1.550316 2.782697 0
M  V30 3 N 2.333927 -2.192460 3.429540 0
M  V30 4 N 3.243010 -2.594711 2.556324 0
M  V30 5 C 2.838530 -2.206925 1.311134 0
M  V30 6 C 3.380731 -2.351556 0.044951 0
M  V30 7 C 2.721250 -1.837745 -1.058431 0
M  V30 8 N 1.544133 -1.192685 -0.899600 0
M  V30 9 C 0.986439 -1.033095 0.318080 0
M  V30 10 O -0.203545 -0.381687 0.484145 0
M  V30 11 C -1.008338 0.196743 -0.483181 0 CFG=2
M  V30 12 C -1.238756 1.676872 -0.260457 0
M  V30 13 C -2.596561 1.660535 0.393395 0
M  V30 14 O -3.291145 0.589586 -0.122939 0
M  V30 15 C -2.401702 -0.381589 -0.504996 0
M  V30 16 C 1.626622 -1.537372 1.432236 0
M  V30 17 H 0.508191 -0.343796 4.329485 0
M  V30 18 H -0.492169 -0.408801 2.803469 0
M  V30 19 H -0.419880 -1.831770 3.879486 0
M  V30 20 H 4.111560 -3.110609 2.751565 0
M  V30 21 H 4.324422 -2.878954 -0.002185 0
M  V30 22 H 3.188328 -1.978185 -2.025100 0
M  V30 23 H -0.523894 0.049300 -1.473514 0
M  V30 24 H -0.460136 2.124504 0.393490 0
M  V30 25 H -1.284064 2.254705 -1.205604 0
M  V30 26 H -3.161165 2.591368 0.203868 0
M  V30 27 H -2.447500 1.570577 1.498107 0
M  V30 28 H -2.395543 -1.272447 0.147611 0
M  V30 29 H -2.674698 -0.709090 -1.529101 0
M  V30 END ATOM
M  V30 BEGIN BOND
M  V30 1 1 1 2
M  V30 2 2 2 3
M  V30 3 1 3 4
M  V30 4 1 4 5
M  V30 5 2 5 6
M  V30 6 1 6 7
M  V30 7 2 7 8
M  V30 8 1 8 9
M  V30 9 1 9 10
M  V30 10 1 10 11
M  V30 11 1 11 12
M  V30 12 1 12 13
M  V30 13 1 13 14
M  V30 14 1 14 15
M  V30 15 2 9 16
M  V30 16 1 16 2
M  V30 17 1 16 5
M  V30 18 1 15 11
M  V30 19 1 1 17
M  V30 20 1 1 18
M  V30 21 1 1 19
M  V30 22 1 4 20
M  V30 23 1 6 21
M  V30 24 1 7 22
M  V30 25 1 11 23 CFG=3
M  V30 26 1 12 24
M  V30 27 1 12 25
M  V30 28 1 13 26
M  V30 29 1 13 27
M  V30 30 1 15 28
M  V30 31 1 15 29
M  V30 END BOND
M  V30 END CTAB
M  END
>  <Dataset>  (105) 
ChEMBL_Kinases

>  <Ligand_Instance>  (105) 
nan

>  <PDB_ID>  (105) 
nan

>  <Standardized_SMILES>  (105) 
Cc1n[nH]c2ccnc(O[C@@H]3CCOC3)c12

>  <Name>  (105) 
nan

>  <Pocket>  (105) 
nan

>  <ATP_Site>  (105) 
nan

>  <Peripheral>  (105) 
nan

>  <Num_H_Atoms_ProtBoundConf>  (105) 
nan

>  <Num_Resolved_Atoms>  (105) 
nan

>  <Num_Not_Resolved_Atoms>  (105) 
nan

$$$$
CHEMBL4465905
     RDKit          3D

  0  0  0  0  0  0  0  0  0  0999 V3000
M  V30 BEGIN CTAB
M  V30 COUNTS 48 51 0 0 0
M  V30 BEGIN ATOM
M  V30 1 C 3.544807 -3.907189 0.193667 0
M  V30 2 N 4.148627 -3.827859 -1.121877 0
M  V30 3 N 5.029020 -4.728699 -1.573925 0
M  V30 4 C 5.407341 -4.385024 -2.822244 0
M  V30 5 C 4.705670 -3.228843 -3.094034 0
M  V30 6 Br 4.954985 -2.397376 -4.789342 0
M  V30 7 C 3.909915 -2.869825 -2.028835 0
M  V30 8 C 3.040652 -1.709531 -1.973152 0
M  V30 9 C 2.834665 -0.753342 -2.942590 0
M  V30 10 O 1.975692 0.147528 -2.533105 0
M  V30 11 C 1.555862 -0.110343 -1.325880 0
M  V30 12 C 0.597415 0.650893 -0.517065 0
M  V30 13 O 0.122181 1.680796 -1.056999 0
M  V30 14 N 0.283352 0.178850 0.788493 0
M  V30 15 C -0.658480 0.890049 1.636434 0 CFG=2
M  V30 16 C 0.166542 1.490891 2.771878 0
M  V30 17 N -0.699529 2.042234 3.797139 0
M  V30 18 C -1.517112 1.059721 4.429397 0
M  V30 19 C -1.575952 -0.188374 3.629195 0
M  V30 20 C -1.745791 0.041222 2.166883 0 CFG=1
M  V30 21 C -3.123896 0.419438 1.790537 0
M  V30 22 C -3.675766 1.659455 1.995523 0
M  V30 23 C -4.962747 2.019948 1.652121 0
M  V30 24 C -5.782383 1.084243 1.055051 0
M  V30 25 Cl -7.431280 1.422145 0.574830 0
M  V30 26 C -5.313084 -0.181149 0.812076 0
M  V30 27 C -4.017407 -0.472921 1.181001 0
M  V30 28 C 2.216013 -1.275891 -0.958020 0
M  V30 29 H 3.839082 -3.064580 0.861975 0
M  V30 30 H 3.923007 -4.818628 0.745922 0
M  V30 31 H 2.439937 -4.077039 0.159537 0
M  V30 32 H 6.117213 -4.969295 -3.391687 0
M  V30 33 H 3.250603 -0.654721 -3.912358 0
M  V30 34 H 0.730943 -0.696403 1.160362 0
M  V30 35 H -0.993173 1.762459 1.044192 0
M  V30 36 H 0.935000 0.807553 3.159140 0
M  V30 37 H 0.735328 2.361679 2.363427 0
M  V30 38 H -0.075468 2.523567 4.470212 0
M  V30 39 H -1.115151 0.780132 5.439730 0
M  V30 40 H -2.563954 1.466552 4.549623 0
M  V30 41 H -2.296806 -0.940463 4.038586 0
M  V30 42 H -0.580339 -0.706445 3.761988 0
M  V30 43 H -1.596523 -0.984481 1.694333 0
M  V30 44 H -3.108025 2.433963 2.445425 0
M  V30 45 H -5.357647 3.020272 1.835636 0
M  V30 46 H -5.920469 -0.945432 0.346522 0
M  V30 47 H -3.668716 -1.486475 0.976642 0
M  V30 48 H 2.059871 -1.730475 0.008365 0
M  V30 END ATOM
M  V30 BEGIN BOND
M  V30 1 1 1 2
M  V30 2 1 2 3
M  V30 3 2 3 4
M  V30 4 1 4 5
M  V30 5 1 5 6
M  V30 6 2 5 7
M  V30 7 1 7 8
M  V30 8 2 8 9
M  V30 9 1 9 10
M  V30 10 1 10 11
M  V30 11 1 11 12
M  V30 12 2 12 13
M  V30 13 1 12 14
M  V30 14 1 14 15
M  V30 15 1 15 16
M  V30 16 1 16 17
M  V30 17 1 17 18
M  V30 18 1 18 19
M  V30 19 1 19 20
M  V30 20 1 20 21
M  V30 21 2 21 22
M  V30 22 1 22 23
M  V30 23 2 23 24
M  V30 24 1 24 25
M  V30 25 1 24 26
M  V30 26 2 26 27
M  V30 27 2 11 28
M  V30 28 1 7 2
M  V30 29 1 28 8
M  V30 30 1 20 15
M  V30 31 1 27 21
M  V30 32 1 1 29
M  V30 33 1 1 30
M  V30 34 1 1 31
M  V30 35 1 4 32
M  V30 36 1 9 33
M  V30 37 1 14 34
M  V30 38 1 15 35 CFG=3
M  V30 39 1 16 36
M  V30 40 1 16 37
M  V30 41 1 17 38
M  V30 42 1 18 39
M  V30 43 1 18 40
M  V30 44 1 19 41
M  V30 45 1 19 42
M  V30 46 1 20 43 CFG=3
M  V30 47 1 22 44
M  V30 48 1 23 45
M  V30 49 1 26 46
M  V30 50 1 27 47
M  V30 51 1 28 48
M  V30 END BOND
M  V30 END CTAB
M  END
>  <Dataset>  (106) 
ChEMBL_Kinases

>  <Ligand_Instance>  (106) 
nan

>  <PDB_ID>  (106) 
nan

>  <Standardized_SMILES>  (106) 
Cn1ncc(Br)c1-c1coc(C(=O)N[C@@H]2CNCC[C@H]2c2ccc(Cl)cc2)c1

>  <Name>  (106) 
nan

>  <Pocket>  (106) 
nan

>  <ATP_Site>  (106) 
nan

>  <Peripheral>  (106) 
nan

>  <Num_H_Atoms_ProtBoundConf>  (106) 
nan

>  <Num_Resolved_Atoms>  (106) 
nan

>  <Num_Not_Resolved_Atoms>  (106) 
nan

$$$$
CHEMBL4465888
     RDKit          3D

  0  0  0  0  0  0  0  0  0  0999 V3000
M  V30 BEGIN CTAB
M  V30 COUNTS 51 54 0 0 0
M  V30 BEGIN ATOM
M  V30 1 C 1.284074 -2.725087 1.800798 0
M  V30 2 C -0.141294 -2.302399 2.039001 0
M  V30 3 C -0.610246 -3.210884 3.199216 0
M  V30 4 N -0.297210 -0.938840 2.455148 0
M  V30 5 C 0.284519 0.197096 1.829225 0
M  V30 6 N 1.098222 0.145449 0.763791 0
M  V30 7 C 1.680499 1.178787 0.154594 0
M  V30 8 C 2.559109 1.034790 -1.000658 0
M  V30 9 C 3.127804 2.118652 -1.603881 0
M  V30 10 C 3.959417 1.971270 -2.701293 0
M  V30 11 N 4.240825 0.758082 -3.217225 0
M  V30 12 C 3.698529 -0.356860 -2.652071 0
M  V30 13 C 2.882922 -0.177807 -1.571451 0
M  V30 14 N 1.453578 2.418060 0.626778 0
M  V30 15 C 0.653447 2.598966 1.693015 0
M  V30 16 C 0.422125 3.868908 2.175155 0
M  V30 17 N -0.382092 4.070070 3.249369 0
M  V30 18 C -0.974123 3.005396 3.866894 0
M  V30 19 C -0.719350 1.750674 3.356445 0
M  V30 20 C 0.085811 1.486109 2.271980 0
M  V30 21 C -1.051232 -2.614696 0.888926 0
M  V30 22 C -2.463463 -2.137171 1.241136 0
M  V30 23 C -3.277872 -1.928817 -0.025064 0
M  V30 24 C -2.914293 -2.904471 -1.095149 0
M  V30 25 C -1.475536 -2.814424 -1.483255 0
M  V30 26 C -0.705222 -2.005170 -0.418676 0
M  V30 27 H 1.408131 -3.309619 0.873267 0
M  V30 28 H 1.712508 -3.326443 2.627132 0
M  V30 29 H 1.971261 -1.859644 1.692835 0
M  V30 30 H 0.090335 -3.128126 4.044534 0
M  V30 31 H -1.645682 -3.015201 3.473404 0
M  V30 32 H -0.551252 -4.248427 2.811594 0
M  V30 33 H -0.896846 -0.800200 3.291095 0
M  V30 34 H 2.928250 3.116197 -1.220968 0
M  V30 35 H 4.371447 2.872414 -3.123945 0
M  V30 36 H 3.936616 -1.309630 -3.079424 0
M  V30 37 H 2.476316 -1.087379 -1.154552 0
M  V30 38 H 0.863040 4.743322 1.726881 0
M  V30 39 H -1.607412 3.206881 4.718939 0
M  V30 40 H -1.230642 0.981436 3.910806 0
M  V30 41 H -1.133874 -3.727273 0.722108 0
M  V30 42 H -2.991771 -2.880619 1.864566 0
M  V30 43 H -2.453860 -1.171375 1.776282 0
M  V30 44 H -4.341765 -2.096719 0.237735 0
M  V30 45 H -3.219144 -0.866711 -0.378333 0
M  V30 46 H -3.111614 -3.927186 -0.663128 0
M  V30 47 H -3.600158 -2.705731 -1.954352 0
M  V30 48 H -1.020763 -3.822518 -1.605890 0
M  V30 49 H -1.395077 -2.232737 -2.425778 0
M  V30 50 H 0.333222 -2.056826 -0.735592 0
M  V30 51 H -1.062511 -0.960273 -0.547306 0
M  V30 END ATOM
M  V30 BEGIN BOND
M  V30 1 1 1 2
M  V30 2 1 2 3
M  V30 3 1 2 4
M  V30 4 1 4 5
M  V30 5 2 5 6
M  V30 6 1 6 7
M  V30 7 1 7 8
M  V30 8 2 8 9
M  V30 9 1 9 10
M  V30 10 2 10 11
M  V30 11 1 11 12
M  V30 12 2 12 13
M  V30 13 2 7 14
M  V30 14 1 14 15
M  V30 15 2 15 16
M  V30 16 1 16 17
M  V30 17 2 17 18
M  V30 18 1 18 19
M  V30 19 2 19 20
M  V30 20 1 2 21
M  V30 21 1 21 22
M  V30 22 1 22 23
M  V30 23 1 23 24
M  V30 24 1 24 25
M  V30 25 1 25 26
M  V30 26 1 20 5
M  V30 27 1 26 21
M  V30 28 1 13 8
M  V30 29 1 20 15
M  V30 30 1 1 27
M  V30 31 1 1 28
M  V30 32 1 1 29
M  V30 33 1 3 30
M  V30 34 1 3 31
M  V30 35 1 3 32
M  V30 36 1 4 33
M  V30 37 1 9 34
M  V30 38 1 10 35
M  V30 39 1 12 36
M  V30 40 1 13 37
M  V30 41 1 16 38
M  V30 42 1 18 39
M  V30 43 1 19 40
M  V30 44 1 21 41
M  V30 45 1 22 42
M  V30 46 1 22 43
M  V30 47 1 23 44
M  V30 48 1 23 45
M  V30 49 1 24 46
M  V30 50 1 24 47
M  V30 51 1 25 48
M  V30 52 1 25 49
M  V30 53 1 26 50
M  V30 54 1 26 51
M  V30 END BOND
M  V30 END CTAB
M  END
>  <Dataset>  (107) 
ChEMBL_Kinases

>  <Ligand_Instance>  (107) 
nan

>  <PDB_ID>  (107) 
nan

>  <Standardized_SMILES>  (107) 
CC(C)(Nc1nc(-c2ccncc2)nc2cnccc12)C1CCCCC1

>  <Name>  (107) 
nan

>  <Pocket>  (107) 
nan

>  <ATP_Site>  (107) 
nan

>  <Peripheral>  (107) 
nan

>  <Num_H_Atoms_ProtBoundConf>  (107) 
nan

>  <Num_Resolved_Atoms>  (107) 
nan

>  <Num_Not_Resolved_Atoms>  (107) 
nan

$$$$
CHEMBL472940
     RDKit          3D

  0  0  0  0  0  0  0  0  0  0999 V3000
M  V30 BEGIN CTAB
M  V30 COUNTS 38 41 0 0 0
M  V30 BEGIN ATOM
M  V30 1 O -1.260143 -1.644889 -0.435560 0
M  V30 2 C 0.104526 -1.953291 -0.462043 0
M  V30 3 C 0.472674 -3.204591 0.033720 0
M  V30 4 C 1.832179 -3.521962 0.011720 0
M  V30 5 C 2.733040 -2.608657 -0.486576 0
M  V30 6 C 4.089845 -2.880170 -0.528000 0
M  V30 7 C 5.030081 -1.978985 -1.025681 0
M  V30 8 C 4.583506 -0.769477 -1.494308 0
M  V30 9 C 3.229416 -0.424446 -1.484874 0
M  V30 10 C 2.370205 -1.371465 -0.976897 0
M  V30 11 C 1.012235 -1.037985 -0.962008 0
M  V30 12 S 0.362607 0.535248 -1.563424 0
M  V30 13 S 0.300566 1.963071 0.031892 0
M  V30 14 C -1.292270 1.841422 0.845662 0
M  V30 15 C -2.431686 2.543978 0.511809 0
M  V30 16 O -2.308599 3.414252 -0.549195 0
M  V30 17 C -3.596981 2.348379 1.230423 0
M  V30 18 C -3.687810 1.467671 2.290116 0
M  V30 19 C -2.540656 0.771970 2.612738 0
M  V30 20 C -2.555830 -0.126225 3.660551 0
M  V30 21 C -1.439307 -0.850066 4.028604 0
M  V30 22 C -0.235019 -0.693205 3.338472 0
M  V30 23 C -0.285650 0.216591 2.304927 0
M  V30 24 C -1.366217 0.948509 1.912336 0
M  V30 25 H -1.949106 -2.361094 -0.451431 0
M  V30 26 H -0.288716 -3.873979 0.410814 0
M  V30 27 H 2.156988 -4.482639 0.387450 0
M  V30 28 H 4.420633 -3.843127 -0.152091 0
M  V30 29 H 6.066769 -2.291552 -1.011964 0
M  V30 30 H 5.326041 -0.081702 -1.877018 0
M  V30 31 H 2.882548 0.531280 -1.855693 0
M  V30 32 H -1.629955 4.171771 -0.504391 0
M  V30 33 H -4.475569 2.904384 0.956415 0
M  V30 34 H -4.602347 1.317106 2.850702 0
M  V30 35 H -3.453925 -0.320828 4.265210 0
M  V30 36 H -1.427838 -1.565750 4.853352 0
M  V30 37 H 0.659598 -1.242587 3.598057 0
M  V30 38 H 0.668887 0.331907 1.768363 0
M  V30 END ATOM
M  V30 BEGIN BOND
M  V30 1 1 1 2
M  V30 2 2 2 3
M  V30 3 1 3 4
M  V30 4 2 4 5
M  V30 5 1 5 6
M  V30 6 2 6 7
M  V30 7 1 7 8
M  V30 8 2 8 9
M  V30 9 1 9 10
M  V30 10 2 10 11
M  V30 11 1 11 12
M  V30 12 1 12 13
M  V30 13 1 13 14
M  V30 14 2 14 15
M  V30 15 1 15 16
M  V30 16 1 15 17
M  V30 17 2 17 18
M  V30 18 1 18 19
M  V30 19 2 19 20
M  V30 20 1 20 21
M  V30 21 2 21 22
M  V30 22 1 22 23
M  V30 23 2 23 24
M  V30 24 1 11 2
M  V30 25 1 24 14
M  V30 26 1 10 5
M  V30 27 1 24 19
M  V30 28 1 1 25
M  V30 29 1 3 26
M  V30 30 1 4 27
M  V30 31 1 6 28
M  V30 32 1 7 29
M  V30 33 1 8 30
M  V30 34 1 9 31
M  V30 35 1 16 32
M  V30 36 1 17 33
M  V30 37 1 18 34
M  V30 38 1 20 35
M  V30 39 1 21 36
M  V30 40 1 22 37
M  V30 41 1 23 38
M  V30 END BOND
M  V30 END CTAB
M  END
>  <Dataset>  (108) 
ChEMBL_Kinases

>  <Ligand_Instance>  (108) 
nan

>  <PDB_ID>  (108) 
nan

>  <Standardized_SMILES>  (108) 
Oc1ccc2ccccc2c1SSc1c(O)ccc2ccccc12

>  <Name>  (108) 
nan

>  <Pocket>  (108) 
nan

>  <ATP_Site>  (108) 
nan

>  <Peripheral>  (108) 
nan

>  <Num_H_Atoms_ProtBoundConf>  (108) 
nan

>  <Num_Resolved_Atoms>  (108) 
nan

>  <Num_Not_Resolved_Atoms>  (108) 
nan

$$$$
CHEMBL47302
     RDKit          3D

  0  0  0  0  0  0  0  0  0  0999 V3000
M  V30 BEGIN CTAB
M  V30 COUNTS 24 25 0 0 0
M  V30 BEGIN ATOM
M  V30 1 C 0.402957 -0.001788 5.481297 0
M  V30 2 C 0.440663 -0.074510 3.958466 0
M  V30 3 N 0.353982 -0.977273 3.260047 0
M  V30 4 C 0.388428 -1.027021 1.941570 0
M  V30 5 C 0.267053 -2.260043 1.084085 0
M  V30 6 C 0.552571 0.188526 1.333983 0
M  V30 7 C 0.638077 0.536187 -0.098122 0
M  V30 8 C 0.806968 1.858646 -0.442187 0
M  V30 9 C 0.878792 2.107293 -1.815003 0
M  V30 10 N 0.783728 1.089479 -2.690148 0
M  V30 11 C 0.618133 -0.196328 -2.310405 0
M  V30 12 N 0.521657 -1.246174 -3.264762 0
M  V30 13 N 0.546636 -0.450422 -0.969699 0
M  V30 14 S 0.645533 1.308399 2.675531 0
M  V30 15 H 1.175478 -0.743131 5.764665 0
M  V30 16 H -0.607862 -0.214794 5.858977 0
M  V30 17 H 0.818271 0.976790 5.807010 0
M  V30 18 H 0.315294 -3.193018 1.682672 0
M  V30 19 H -0.725506 -2.258091 0.580990 0
M  V30 20 H 1.097585 -2.348159 0.356671 0
M  V30 21 H 0.873517 2.610777 0.325361 0
M  V30 22 H 1.011568 3.135174 -2.131653 0
M  V30 23 H -0.332772 -1.850556 -3.415986 0
M  V30 24 H 1.381387 -1.378218 -3.819350 0
M  V30 END ATOM
M  V30 BEGIN BOND
M  V30 1 1 1 2
M  V30 2 2 2 3
M  V30 3 1 3 4
M  V30 4 1 4 5
M  V30 5 2 4 6
M  V30 6 1 6 7
M  V30 7 2 7 8
M  V30 8 1 8 9
M  V30 9 2 9 10
M  V30 10 1 10 11
M  V30 11 1 11 12
M  V30 12 2 11 13
M  V30 13 1 6 14
M  V30 14 1 14 2
M  V30 15 1 13 7
M  V30 16 1 1 15
M  V30 17 1 1 16
M  V30 18 1 1 17
M  V30 19 1 5 18
M  V30 20 1 5 19
M  V30 21 1 5 20
M  V30 22 1 8 21
M  V30 23 1 9 22
M  V30 24 1 12 23
M  V30 25 1 12 24
M  V30 END BOND
M  V30 END CTAB
M  END
>  <Dataset>  (109) 
ChEMBL_Kinases

>  <Ligand_Instance>  (109) 
nan

>  <PDB_ID>  (109) 
nan

>  <Standardized_SMILES>  (109) 
Cc1nc(C)c(-c2ccnc(N)n2)s1

>  <Name>  (109) 
nan

>  <Pocket>  (109) 
nan

>  <ATP_Site>  (109) 
nan

>  <Peripheral>  (109) 
nan

>  <Num_H_Atoms_ProtBoundConf>  (109) 
nan

>  <Num_Resolved_Atoms>  (109) 
nan

>  <Num_Not_Resolved_Atoms>  (109) 
nan

$$$$
CHEMBL4465820
     RDKit          3D

  0  0  0  0  0  0  0  0  0  0999 V3000
M  V30 BEGIN CTAB
M  V30 COUNTS 52 54 0 0 0
M  V30 BEGIN ATOM
M  V30 1 C 3.175756 -2.164736 4.104281 0
M  V30 2 N 2.357488 -2.613393 3.029511 0
M  V30 3 C 2.136096 -4.035735 3.169660 0
M  V30 4 C 2.668495 -2.282471 1.709276 0
M  V30 5 C 2.527013 -0.908105 1.198449 0
M  V30 6 C 3.496366 -0.042357 2.071260 0
M  V30 7 C 3.215958 -0.841847 -0.170332 0
M  V30 8 C 1.248598 -0.205394 1.291326 0
M  V30 9 N 0.041214 -0.698317 0.696351 0
M  V30 10 C -0.426999 -1.911688 1.374087 0
M  V30 11 C -0.867551 -0.378710 -0.355210 0
M  V30 12 N -1.928915 0.303262 0.191490 0
M  V30 13 C -2.920702 0.766508 -0.624073 0
M  V30 14 C -4.081835 1.496118 -0.122600 0
M  V30 15 C -4.141340 1.716289 1.250237 0
M  V30 16 C -5.270235 2.414457 1.667214 0
M  V30 17 N -6.272512 2.877532 0.882555 0
M  V30 18 C -6.192483 2.652550 -0.442505 0
M  V30 19 C -5.106086 1.970327 -0.919565 0
M  V30 20 N -2.895351 0.575863 -1.965322 0
M  V30 21 C -1.880956 -0.085739 -2.552308 0
M  V30 22 C -1.718008 -0.370289 -3.889150 0
M  V30 23 N -0.638601 -1.066515 -4.336143 0
M  V30 24 C 0.323570 -1.513512 -3.501440 0
M  V30 25 C 0.177359 -1.239180 -2.170712 0
M  V30 26 C -0.906351 -0.535385 -1.701407 0
M  V30 27 H 3.407331 -3.025039 4.829523 0
M  V30 28 H 4.193840 -1.822725 3.831896 0
M  V30 29 H 2.607265 -1.440171 4.734461 0
M  V30 30 H 1.257924 -4.248182 3.825049 0
M  V30 31 H 1.864390 -4.419288 2.148155 0
M  V30 32 H 3.012593 -4.585518 3.541211 0
M  V30 33 H 3.800625 -2.489486 1.618174 0
M  V30 34 H 2.297516 -3.064201 0.969022 0
M  V30 35 H 3.526685 0.990318 1.598278 0
M  V30 36 H 4.519199 -0.403537 2.000662 0
M  V30 37 H 3.078554 0.137388 3.066880 0
M  V30 38 H 2.705323 -0.141855 -0.850351 0
M  V30 39 H 3.160232 -1.857751 -0.664386 0
M  V30 40 H 4.303226 -0.654052 -0.092122 0
M  V30 41 H 1.080795 0.022007 2.401380 0
M  V30 42 H 1.470456 0.857178 0.922838 0
M  V30 43 H -0.247678 -1.876054 2.477770 0
M  V30 44 H -1.551064 -2.024787 1.326091 0
M  V30 45 H -0.054126 -2.835107 0.889682 0
M  V30 46 H -3.417689 1.404313 1.984269 0
M  V30 47 H -5.453311 2.661847 2.721578 0
M  V30 48 H -6.927864 2.966851 -1.199089 0
M  V30 49 H -4.986825 1.758718 -1.975163 0
M  V30 50 H -2.513988 0.004086 -4.539157 0
M  V30 51 H 1.161823 -2.067008 -3.937674 0
M  V30 52 H 0.949124 -1.624018 -1.530220 0
M  V30 END ATOM
M  V30 BEGIN BOND
M  V30 1 1 1 2
M  V30 2 1 2 3
M  V30 3 1 2 4
M  V30 4 1 4 5
M  V30 5 1 5 6
M  V30 6 1 5 7
M  V30 7 1 5 8
M  V30 8 1 8 9
M  V30 9 1 9 10
M  V30 10 1 9 11
M  V30 11 2 11 12
M  V30 12 1 12 13
M  V30 13 1 13 14
M  V30 14 2 14 15
M  V30 15 1 15 16
M  V30 16 2 16 17
M  V30 17 1 17 18
M  V30 18 2 18 19
M  V30 19 2 13 20
M  V30 20 1 20 21
M  V30 21 2 21 22
M  V30 22 1 22 23
M  V30 23 2 23 24
M  V30 24 1 24 25
M  V30 25 2 25 26
M  V30 26 1 26 11
M  V30 27 1 19 14
M  V30 28 1 26 21
M  V30 29 1 1 27
M  V30 30 1 1 28
M  V30 31 1 1 29
M  V30 32 1 3 30
M  V30 33 1 3 31
M  V30 34 1 3 32
M  V30 35 1 4 33
M  V30 36 1 4 34
M  V30 37 1 6 35
M  V30 38 1 6 36
M  V30 39 1 6 37
M  V30 40 1 7 38
M  V30 41 1 7 39
M  V30 42 1 7 40
M  V30 43 1 8 41
M  V30 44 1 8 42
M  V30 45 1 10 43
M  V30 46 1 10 44
M  V30 47 1 10 45
M  V30 48 1 15 46
M  V30 49 1 16 47
M  V30 50 1 18 48
M  V30 51 1 19 49
M  V30 52 1 22 50
M  V30 53 1 24 51
M  V30 54 1 25 52
M  V30 END BOND
M  V30 END CTAB
M  END
>  <Dataset>  (110) 
ChEMBL_Kinases

>  <Ligand_Instance>  (110) 
nan

>  <PDB_ID>  (110) 
nan

>  <Standardized_SMILES>  (110) 
CN(C)CC(C)(C)CN(C)c1nc(-c2ccncc2)nc2cnccc12

>  <Name>  (110) 
nan

>  <Pocket>  (110) 
nan

>  <ATP_Site>  (110) 
nan

>  <Peripheral>  (110) 
nan

>  <Num_H_Atoms_ProtBoundConf>  (110) 
nan

>  <Num_Resolved_Atoms>  (110) 
nan

>  <Num_Not_Resolved_Atoms>  (110) 
nan

$$$$
CHEMBL4465007
     RDKit          3D

  0  0  0  0  0  0  0  0  0  0999 V3000
M  V30 BEGIN CTAB
M  V30 COUNTS 42 44 0 0 0
M  V30 BEGIN ATOM
M  V30 1 O 2.238596 1.805624 1.804258 0
M  V30 2 C 1.693865 0.887064 1.124258 0
M  V30 3 N 2.636950 -0.150094 0.996577 0
M  V30 4 C 3.916742 0.008201 1.600954 0
M  V30 5 C 4.100775 -0.426344 2.912599 0
M  V30 6 C 5.311598 -0.307512 3.567236 0
M  V30 7 C 6.335708 0.278783 2.819914 0
M  V30 8 N 6.170101 0.702780 1.551323 0
M  V30 9 C 4.974002 0.584981 0.905751 0
M  V30 10 C 0.335564 0.957213 0.601080 0
M  V30 11 C -0.294186 2.163409 0.941468 0
M  V30 12 C -1.580430 2.452895 0.556838 0
M  V30 13 C -2.236906 3.731110 0.922137 0
M  V30 14 F -3.610366 3.579614 0.901205 0
M  V30 15 F -1.822174 4.660206 -0.039136 0
M  V30 16 F -1.792948 4.178845 2.151555 0
M  V30 17 C -2.312787 1.556152 -0.189535 0
M  V30 18 C -1.661597 0.384809 -0.503899 0
M  V30 19 C -0.378007 0.042676 -0.146299 0
M  V30 20 O 0.297910 -1.091527 -0.432509 0
M  V30 21 C 0.026161 -2.244058 -1.112306 0
M  V30 22 C -1.075074 -3.086913 -0.638601 0
M  V30 23 C -0.678062 -3.961803 0.384085 0
M  V30 24 C -1.526403 -4.864317 0.985909 0
M  V30 25 C -2.846683 -4.950554 0.596980 0
M  V30 26 C -3.248127 -4.095472 -0.407729 0
M  V30 27 C -2.398326 -3.200855 -1.001383 0
M  V30 28 H 2.348748 -0.993355 0.459371 0
M  V30 29 H 3.277348 -0.866991 3.431100 0
M  V30 30 H 5.476908 -0.637753 4.584499 0
M  V30 31 H 7.317392 0.397635 3.290387 0
M  V30 32 H 4.796867 0.906618 -0.097969 0
M  V30 33 H 0.175835 2.955571 1.528020 0
M  V30 34 H -3.326608 1.750678 -0.509420 0
M  V30 35 H -2.219470 -0.325379 -1.091154 0
M  V30 36 H 0.990403 -2.841188 -1.155508 0
M  V30 37 H -0.132708 -1.996732 -2.213407 0
M  V30 38 H 0.341913 -4.008481 0.798470 0
M  V30 39 H -1.224882 -5.536491 1.770385 0
M  V30 40 H -3.613331 -5.592271 0.966241 0
M  V30 41 H -4.257643 -4.080047 -0.786971 0
M  V30 42 H -2.661774 -2.519274 -1.795062 0
M  V30 END ATOM
M  V30 BEGIN BOND
M  V30 1 2 1 2
M  V30 2 1 2 3
M  V30 3 1 3 4
M  V30 4 2 4 5
M  V30 5 1 5 6
M  V30 6 2 6 7
M  V30 7 1 7 8
M  V30 8 2 8 9
M  V30 9 1 2 10
M  V30 10 2 10 11
M  V30 11 1 11 12
M  V30 12 1 12 13
M  V30 13 1 13 14
M  V30 14 1 13 15
M  V30 15 1 13 16
M  V30 16 2 12 17
M  V30 17 1 17 18
M  V30 18 2 18 19
M  V30 19 1 19 20
M  V30 20 1 20 21
M  V30 21 1 21 22
M  V30 22 2 22 23
M  V30 23 1 23 24
M  V30 24 2 24 25
M  V30 25 1 25 26
M  V30 26 2 26 27
M  V30 27 1 9 4
M  V30 28 1 19 10
M  V30 29 1 27 22
M  V30 30 1 3 28
M  V30 31 1 5 29
M  V30 32 1 6 30
M  V30 33 1 7 31
M  V30 34 1 9 32
M  V30 35 1 11 33
M  V30 36 1 17 34
M  V30 37 1 18 35
M  V30 38 1 21 36
M  V30 39 1 21 37
M  V30 40 1 23 38
M  V30 41 1 24 39
M  V30 42 1 25 40
M  V30 43 1 26 41
M  V30 44 1 27 42
M  V30 END BOND
M  V30 END CTAB
M  END
>  <Dataset>  (111) 
ChEMBL_Kinases

>  <Ligand_Instance>  (111) 
nan

>  <PDB_ID>  (111) 
nan

>  <Standardized_SMILES>  (111) 
O=C(Nc1cccnc1)c1cc(C(F)(F)F)ccc1OCc1ccccc1

>  <Name>  (111) 
nan

>  <Pocket>  (111) 
nan

>  <ATP_Site>  (111) 
nan

>  <Peripheral>  (111) 
nan

>  <Num_H_Atoms_ProtBoundConf>  (111) 
nan

>  <Num_Resolved_Atoms>  (111) 
nan

>  <Num_Not_Resolved_Atoms>  (111) 
nan

$$$$
CHEMBL4465653
     RDKit          3D

  0  0  0  0  0  0  0  0  0  0999 V3000
M  V30 BEGIN CTAB
M  V30 COUNTS 48 51 0 0 0
M  V30 BEGIN ATOM
M  V30 1 C 0.334272 -5.831795 0.382157 0
M  V30 2 C 0.188574 -4.418689 0.908756 0
M  V30 3 C -1.273232 -4.145708 1.064640 0
M  V30 4 N 0.809322 -3.456027 0.048431 0
M  V30 5 C 0.275983 -2.265452 -0.234179 0
M  V30 6 C 1.016273 -1.470877 -1.081571 0
M  V30 7 C 1.024742 -0.174264 -1.727586 0
M  V30 8 N 1.210085 -0.107332 -3.084726 0
M  V30 9 N 1.181334 1.148020 -3.489479 0
M  V30 10 C 0.979957 1.962662 -2.439215 0
M  V30 11 C 0.876330 3.327279 -2.352793 0
M  V30 12 C 0.669238 3.808313 -1.078017 0
M  V30 13 N 0.580129 2.986038 -0.018768 0
M  V30 14 C 0.682138 1.649736 -0.105299 0
M  V30 15 N 0.597180 0.883561 1.082437 0
M  V30 16 C 0.350528 1.494744 2.370044 0
M  V30 17 C 0.462509 0.541679 3.539077 0
M  V30 18 C -0.721373 -0.366663 3.673124 0
M  V30 19 C -2.050949 0.228207 3.405873 0
M  V30 20 C -2.109275 1.221838 2.271357 0
M  V30 21 C -0.993545 2.203701 2.398367 0
M  V30 22 C 0.885365 1.138761 -1.353514 0
M  V30 23 C 2.110159 -2.337337 -1.300114 0
M  V30 24 N 1.947362 -3.499916 -0.613278 0
M  V30 25 H -0.173816 -6.502623 1.127502 0
M  V30 26 H -0.194995 -5.964308 -0.582668 0
M  V30 27 H 1.380650 -6.161358 0.293326 0
M  V30 28 H 0.667507 -4.414651 1.921263 0
M  V30 29 H -1.490078 -3.471262 1.939458 0
M  V30 30 H -1.724235 -3.666841 0.171842 0
M  V30 31 H -1.876072 -5.062782 1.269900 0
M  V30 32 H -0.666444 -1.796245 0.094515 0
M  V30 33 H 1.304361 1.397388 -4.494913 0
M  V30 34 H 0.951250 3.974429 -3.216862 0
M  V30 35 H 0.571375 4.889350 -0.899215 0
M  V30 36 H 0.690697 -0.113070 1.262176 0
M  V30 37 H 1.121517 2.275543 2.513685 0
M  V30 38 H 0.632091 1.137185 4.458299 0
M  V30 39 H 1.357890 -0.088035 3.360383 0
M  V30 40 H -0.592802 -1.287363 3.031813 0
M  V30 41 H -0.732167 -0.749799 4.715671 0
M  V30 42 H -2.740012 -0.600877 3.094957 0
M  V30 43 H -2.530418 0.666060 4.306913 0
M  V30 44 H -2.153432 0.723617 1.282769 0
M  V30 45 H -3.069308 1.770008 2.378269 0
M  V30 46 H -1.059796 2.641110 3.424167 0
M  V30 47 H -0.999718 2.994726 1.662996 0
M  V30 48 H 3.036873 -2.277897 -1.887247 0
M  V30 END ATOM
M  V30 BEGIN BOND
M  V30 1 1 1 2
M  V30 2 1 2 3
M  V30 3 1 2 4
M  V30 4 1 4 5
M  V30 5 2 5 6
M  V30 6 1 6 7
M  V30 7 2 7 8
M  V30 8 1 8 9
M  V30 9 1 9 10
M  V30 10 2 10 11
M  V30 11 1 11 12
M  V30 12 2 12 13
M  V30 13 1 13 14
M  V30 14 1 14 15
M  V30 15 1 15 16
M  V30 16 1 16 17
M  V30 17 1 17 18
M  V30 18 1 18 19
M  V30 19 1 19 20
M  V30 20 1 20 21
M  V30 21 2 14 22
M  V30 22 1 6 23
M  V30 23 2 23 24
M  V30 24 1 24 4
M  V30 25 1 22 7
M  V30 26 1 22 10
M  V30 27 1 21 16
M  V30 28 1 1 25
M  V30 29 1 1 26
M  V30 30 1 1 27
M  V30 31 1 2 28
M  V30 32 1 3 29
M  V30 33 1 3 30
M  V30 34 1 3 31
M  V30 35 1 5 32
M  V30 36 1 9 33
M  V30 37 1 11 34
M  V30 38 1 12 35
M  V30 39 1 15 36
M  V30 40 1 16 37
M  V30 41 1 17 38
M  V30 42 1 17 39
M  V30 43 1 18 40
M  V30 44 1 18 41
M  V30 45 1 19 42
M  V30 46 1 19 43
M  V30 47 1 20 44
M  V30 48 1 20 45
M  V30 49 1 21 46
M  V30 50 1 21 47
M  V30 51 1 23 48
M  V30 END BOND
M  V30 END CTAB
M  END
>  <Dataset>  (112) 
ChEMBL_Kinases

>  <Ligand_Instance>  (112) 
nan

>  <PDB_ID>  (112) 
nan

>  <Standardized_SMILES>  (112) 
CC(C)n1cc(-c2n[nH]c3ccnc(NC4CCCCC4)c23)cn1

>  <Name>  (112) 
nan

>  <Pocket>  (112) 
nan

>  <ATP_Site>  (112) 
nan

>  <Peripheral>  (112) 
nan

>  <Num_H_Atoms_ProtBoundConf>  (112) 
nan

>  <Num_Resolved_Atoms>  (112) 
nan

>  <Num_Not_Resolved_Atoms>  (112) 
nan

$$$$
CHEMBL4465651
     RDKit          3D

  0  0  0  0  0  0  0  0  0  0999 V3000
M  V30 BEGIN CTAB
M  V30 COUNTS 25 27 0 0 0
M  V30 BEGIN ATOM
M  V30 1 O 2.116297 -1.782102 3.400733 0
M  V30 2 C 1.513295 -1.373130 2.377977 0
M  V30 3 O 1.571890 -2.046989 1.253743 0
M  V30 4 C 0.958101 -1.657555 0.160866 0
M  V30 5 C 1.117635 -2.478075 -0.943084 0
M  V30 6 Br 2.155518 -4.061636 -0.880115 0
M  V30 7 C 0.465877 -2.062889 -2.100363 0
M  V30 8 O 0.599896 -2.862063 -3.239793 0
M  V30 9 C -0.304998 -0.905759 -2.183877 0
M  V30 10 C -0.433062 -0.116000 -1.044720 0
M  V30 11 C 0.201882 -0.505812 0.110999 0
M  V30 12 C 0.092644 0.245297 1.232126 0
M  V30 13 C -0.642450 1.394545 1.240909 0
M  V30 14 C -0.715593 2.116493 2.414206 0
M  V30 15 C -0.056554 1.674673 3.541960 0
M  V30 16 O -0.146226 2.423017 4.716527 0
M  V30 17 C 0.692397 0.500492 3.526706 0
M  V30 18 C 0.764101 -0.226271 2.339793 0
M  V30 19 H 0.604932 -3.864580 -3.103871 0
M  V30 20 H -0.782553 -0.657097 -3.139025 0
M  V30 21 H -1.041547 0.757913 -1.186791 0
M  V30 22 H -1.180331 1.812441 0.431063 0
M  V30 23 H -1.287940 3.048875 2.493543 0
M  V30 24 H 0.645562 3.004361 4.975198 0
M  V30 25 H 1.176675 0.217213 4.435256 0
M  V30 END ATOM
M  V30 BEGIN BOND
M  V30 1 2 1 2
M  V30 2 1 2 3
M  V30 3 1 3 4
M  V30 4 2 4 5
M  V30 5 1 5 6
M  V30 6 1 5 7
M  V30 7 1 7 8
M  V30 8 2 7 9
M  V30 9 1 9 10
M  V30 10 2 10 11
M  V30 11 1 11 12
M  V30 12 2 12 13
M  V30 13 1 13 14
M  V30 14 2 14 15
M  V30 15 1 15 16
M  V30 16 1 15 17
M  V30 17 2 17 18
M  V30 18 1 18 2
M  V30 19 1 11 4
M  V30 20 1 18 12
M  V30 21 1 8 19
M  V30 22 1 9 20
M  V30 23 1 10 21
M  V30 24 1 13 22
M  V30 25 1 14 23
M  V30 26 1 16 24
M  V30 27 1 17 25
M  V30 END BOND
M  V30 END CTAB
M  END
>  <Dataset>  (113) 
ChEMBL_Kinases

>  <Ligand_Instance>  (113) 
nan

>  <PDB_ID>  (113) 
nan

>  <Standardized_SMILES>  (113) 
O=c1oc2c(Br)c(O)ccc2c2ccc(O)cc12

>  <Name>  (113) 
nan

>  <Pocket>  (113) 
nan

>  <ATP_Site>  (113) 
nan

>  <Peripheral>  (113) 
nan

>  <Num_H_Atoms_ProtBoundConf>  (113) 
nan

>  <Num_Resolved_Atoms>  (113) 
nan

>  <Num_Not_Resolved_Atoms>  (113) 
nan

$$$$
CHEMBL4465572
     RDKit          3D

  0  0  0  0  0  0  0  0  0  0999 V3000
M  V30 BEGIN CTAB
M  V30 COUNTS 48 51 0 0 0
M  V30 BEGIN ATOM
M  V30 1 C 2.491826 2.827684 3.049081 0
M  V30 2 N 2.348285 4.015528 2.218802 0
M  V30 3 N 2.955094 5.128461 2.614835 0
M  V30 4 C 2.722972 6.116590 1.748466 0
M  V30 5 C 1.933667 5.503296 0.811397 0
M  V30 6 Cl 1.436115 6.531317 -0.495346 0
M  V30 7 C 1.676892 4.184553 1.072389 0
M  V30 8 C 0.905305 3.218807 0.343906 0
M  V30 9 C 0.701901 1.905602 0.682683 0
M  V30 10 C -0.088837 1.220033 -0.213281 0
M  V30 11 C -0.553103 -0.172518 -0.243550 0
M  V30 12 O -0.211343 -0.952315 0.682532 0
M  V30 13 N -1.376365 -0.620831 -1.309245 0
M  V30 14 C -1.853929 -1.992422 -1.370834 0
M  V30 15 C -3.351440 -1.936243 -1.151001 0
M  V30 16 N -4.020929 -1.237587 -2.233728 0
M  V30 17 C -3.554686 -1.625911 -3.529932 0
M  V30 18 C -2.759272 -2.910607 -3.450825 0
M  V30 19 C -1.480655 -2.655852 -2.668328 0
M  V30 20 C -0.668877 -3.867142 -2.533272 0
M  V30 21 C 0.607581 -3.983401 -3.088099 0
M  V30 22 C 1.356409 -5.156205 -2.939729 0
M  V30 23 C 0.826680 -6.217922 -2.233316 0
M  V30 24 F 1.563348 -7.369559 -2.088276 0
M  V30 25 C -0.439762 -6.092759 -1.687053 0
M  V30 26 F -0.935470 -7.150029 -0.998660 0
M  V30 27 C -1.189272 -4.933234 -1.829405 0
M  V30 28 O -0.386733 2.128932 -1.135299 0
M  V30 29 C 0.185865 3.261457 -0.804986 0
M  V30 30 Cl -0.073034 4.595123 -1.878369 0
M  V30 31 H 2.967796 1.980823 2.536265 0
M  V30 32 H 3.087603 3.061300 3.965276 0
M  V30 33 H 1.489336 2.515156 3.394723 0
M  V30 34 H 3.139147 7.086946 1.915444 0
M  V30 35 H 1.027794 1.291214 1.499872 0
M  V30 36 H -1.680964 0.010869 -2.102930 0
M  V30 37 H -1.443232 -2.497850 -0.474113 0
M  V30 38 H -3.519162 -1.330776 -0.235974 0
M  V30 39 H -3.801353 -2.930311 -0.955306 0
M  V30 40 H -5.038218 -1.389756 -2.167704 0
M  V30 41 H -4.420936 -1.854028 -4.196400 0
M  V30 42 H -2.997123 -0.825260 -4.057163 0
M  V30 43 H -2.518223 -3.198422 -4.495072 0
M  V30 44 H -3.410606 -3.652540 -2.945514 0
M  V30 45 H -0.892094 -1.922315 -3.261775 0
M  V30 46 H 1.016411 -3.155902 -3.636759 0
M  V30 47 H 2.356779 -5.206628 -3.392005 0
M  V30 48 H -2.166139 -4.917306 -1.373464 0
M  V30 END ATOM
M  V30 BEGIN BOND
M  V30 1 1 1 2
M  V30 2 1 2 3
M  V30 3 2 3 4
M  V30 4 1 4 5
M  V30 5 1 5 6
M  V30 6 2 5 7
M  V30 7 1 7 8
M  V30 8 1 8 9
M  V30 9 2 9 10
M  V30 10 1 10 11
M  V30 11 2 11 12
M  V30 12 1 11 13
M  V30 13 1 13 14
M  V30 14 1 14 15
M  V30 15 1 15 16
M  V30 16 1 16 17
M  V30 17 1 17 18
M  V30 18 1 18 19
M  V30 19 1 19 20
M  V30 20 2 20 21
M  V30 21 1 21 22
M  V30 22 2 22 23
M  V30 23 1 23 24
M  V30 24 1 23 25
M  V30 25 1 25 26
M  V30 26 2 25 27
M  V30 27 1 10 28
M  V30 28 1 28 29
M  V30 29 1 29 30
M  V30 30 1 7 2
M  V30 31 2 29 8
M  V30 32 1 19 14
M  V30 33 1 27 20
M  V30 34 1 1 31
M  V30 35 1 1 32
M  V30 36 1 1 33
M  V30 37 1 4 34
M  V30 38 1 9 35
M  V30 39 1 13 36
M  V30 40 1 14 37
M  V30 41 1 15 38
M  V30 42 1 15 39
M  V30 43 1 16 40
M  V30 44 1 17 41
M  V30 45 1 17 42
M  V30 46 1 18 43
M  V30 47 1 18 44
M  V30 48 1 19 45
M  V30 49 1 21 46
M  V30 50 1 22 47
M  V30 51 1 27 48
M  V30 END BOND
M  V30 END CTAB
M  END
>  <Dataset>  (114) 
ChEMBL_Kinases

>  <Ligand_Instance>  (114) 
nan

>  <PDB_ID>  (114) 
nan

>  <Standardized_SMILES>  (114) 
Cn1ncc(Cl)c1-c1cc(C(=O)NC2CNCCC2c2ccc(F)c(F)c2)oc1Cl

>  <Name>  (114) 
nan

>  <Pocket>  (114) 
nan

>  <ATP_Site>  (114) 
nan

>  <Peripheral>  (114) 
nan

>  <Num_H_Atoms_ProtBoundConf>  (114) 
nan

>  <Num_Resolved_Atoms>  (114) 
nan

>  <Num_Not_Resolved_Atoms>  (114) 
nan

$$$$
CHEMBL4465561
     RDKit          3D

  0  0  0  0  0  0  0  0  0  0999 V3000
M  V30 BEGIN CTAB
M  V30 COUNTS 52 56 0 0 0
M  V30 BEGIN ATOM
M  V30 1 O 2.745455 1.547581 1.608510 0
M  V30 2 C 3.647128 2.308700 1.122690 0
M  V30 3 N 4.972310 2.049895 1.617973 0
M  V30 4 C 5.206958 1.020923 2.568811 0
M  V30 5 C 5.134319 1.331221 3.922473 0
M  V30 6 C 5.374410 0.278834 4.804166 0
M  V30 7 C 5.669641 -1.007696 4.377482 0
M  V30 8 C 5.734639 -1.284722 3.038583 0
M  V30 9 Br 6.139855 -3.050593 2.462774 0
M  V30 10 C 5.498614 -0.250066 2.154993 0
M  V30 11 N 3.305053 3.312824 0.171933 0
M  V30 12 C 1.892072 3.318239 -0.118643 0
M  V30 13 C 1.434325 2.528216 -1.153010 0
M  V30 14 C 0.077770 2.560066 -1.400277 0
M  V30 15 O -0.552641 1.829071 -2.400839 0
M  V30 16 C -0.990759 0.567667 -2.031950 0
M  V30 17 C -0.292023 -0.626035 -2.106380 0
M  V30 18 C -0.796682 -1.834878 -1.720606 0
M  V30 19 C -2.071161 -1.949077 -1.217483 0
M  V30 20 N -2.707996 -3.016777 -0.804062 0
M  V30 21 C -3.807777 -3.085045 -0.374761 0
M  V30 22 N -4.756493 -4.014975 0.135210 0
M  V30 23 C -4.250138 -5.324973 0.152595 0
M  V30 24 O -3.076347 -5.504611 -0.265122 0
M  V30 25 C -5.055015 -6.472380 0.642712 0
M  V30 26 C -6.239279 -6.291677 1.483662 0
M  V30 27 C -6.449359 -6.505217 0.044920 0
M  V30 28 S -4.399970 -1.270516 -0.440389 0
M  V30 29 C -2.746267 -0.704826 -1.160146 0
M  V30 30 C -2.277120 0.554912 -1.540568 0
M  V30 31 C -0.802870 3.339948 -0.659226 0
M  V30 32 C -0.288154 4.113743 0.367841 0
M  V30 33 C 1.064348 4.112257 0.650313 0
M  V30 34 F 1.571488 4.879958 1.668557 0
M  V30 35 H 5.722144 2.675195 1.220679 0
M  V30 36 H 4.906353 2.324514 4.274974 0
M  V30 37 H 5.319692 0.512331 5.873207 0
M  V30 38 H 5.837363 -1.743600 5.140810 0
M  V30 39 H 5.555814 -0.494462 1.100073 0
M  V30 40 H 4.107033 3.899828 -0.181191 0
M  V30 41 H 2.058672 1.898827 -1.769210 0
M  V30 42 H 0.731042 -0.527863 -2.511300 0
M  V30 43 H -0.120249 -2.669704 -1.844088 0
M  V30 44 H -5.713521 -3.779328 0.461491 0
M  V30 45 H -4.539919 -7.450911 0.603621 0
M  V30 46 H -6.541080 -7.078193 2.189530 0
M  V30 47 H -6.417133 -5.269521 1.891562 0
M  V30 48 H -6.862438 -7.472440 -0.288875 0
M  V30 49 H -6.810546 -5.653525 -0.547576 0
M  V30 50 H -2.995174 1.338950 -1.393116 0
M  V30 51 H -1.870857 3.383642 -0.831785 0
M  V30 52 H -0.911189 4.749723 0.992147 0
M  V30 END ATOM
M  V30 BEGIN BOND
M  V30 1 2 1 2
M  V30 2 1 2 3
M  V30 3 1 3 4
M  V30 4 2 4 5
M  V30 5 1 5 6
M  V30 6 2 6 7
M  V30 7 1 7 8
M  V30 8 1 8 9
M  V30 9 2 8 10
M  V30 10 1 2 11
M  V30 11 1 11 12
M  V30 12 2 12 13
M  V30 13 1 13 14
M  V30 14 1 14 15
M  V30 15 1 15 16
M  V30 16 2 16 17
M  V30 17 1 17 18
M  V30 18 2 18 19
M  V30 19 1 19 20
M  V30 20 2 20 21
M  V30 21 1 21 22
M  V30 22 1 22 23
M  V30 23 2 23 24
M  V30 24 1 23 25
M  V30 25 1 25 26
M  V30 26 1 26 27
M  V30 27 1 21 28
M  V30 28 1 28 29
M  V30 29 2 29 30
M  V30 30 2 14 31
M  V30 31 1 31 32
M  V30 32 2 32 33
M  V30 33 1 33 34
M  V30 34 1 10 4
M  V30 35 1 33 12
M  V30 36 1 30 16
M  V30 37 1 29 19
M  V30 38 1 27 25
M  V30 39 1 3 35
M  V30 40 1 5 36
M  V30 41 1 6 37
M  V30 42 1 7 38
M  V30 43 1 10 39
M  V30 44 1 11 40
M  V30 45 1 13 41
M  V30 46 1 17 42
M  V30 47 1 18 43
M  V30 48 1 22 44
M  V30 49 1 25 45
M  V30 50 1 26 46
M  V30 51 1 26 47
M  V30 52 1 27 48
M  V30 53 1 27 49
M  V30 54 1 30 50
M  V30 55 1 31 51
M  V30 56 1 32 52
M  V30 END BOND
M  V30 END CTAB
M  END
>  <Dataset>  (115) 
ChEMBL_Kinases

>  <Ligand_Instance>  (115) 
nan

>  <PDB_ID>  (115) 
nan

>  <Standardized_SMILES>  (115) 
O=C(Nc1cccc(Br)c1)Nc1cc(Oc2ccc3nc(NC(=O)C4CC4)sc3c2)ccc1F

>  <Name>  (115) 
nan

>  <Pocket>  (115) 
nan

>  <ATP_Site>  (115) 
nan

>  <Peripheral>  (115) 
nan

>  <Num_H_Atoms_ProtBoundConf>  (115) 
nan

>  <Num_Resolved_Atoms>  (115) 
nan

>  <Num_Not_Resolved_Atoms>  (115) 
nan

$$$$
CHEMBL4465516
     RDKit          3D

  0  0  0  0  0  0  0  0  0  0999 V3000
M  V30 BEGIN CTAB
M  V30 COUNTS 53 56 0 0 0
M  V30 BEGIN ATOM
M  V30 1 C -1.092499 -3.771782 -2.666010 0
M  V30 2 N 0.311377 -4.088793 -2.596877 0
M  V30 3 C 1.193996 -3.402781 -1.733929 0
M  V30 4 N 0.776596 -2.388267 -0.963311 0
M  V30 5 C 1.580855 -1.689199 -0.162138 0
M  V30 6 N 1.168184 -0.605710 0.649021 0
M  V30 7 C -0.107933 0.001638 0.691675 0
M  V30 8 C -1.146598 -0.234388 -0.175439 0
M  V30 9 N -2.365487 0.346066 -0.126171 0
M  V30 10 C -2.627776 1.254573 0.859379 0
M  V30 11 C -3.942972 1.848276 0.874075 0
M  V30 12 N -4.988887 2.334252 0.893676 0
M  V30 13 C -1.620076 1.552951 1.787060 0
M  V30 14 O -2.035558 2.470734 2.702154 0
M  V30 15 C -1.351036 3.006930 3.783607 0
M  V30 16 C -2.061998 2.851614 5.094407 0
M  V30 17 C -3.339540 3.644801 5.159009 0
M  V30 18 C -3.388389 4.818608 4.251238 0
M  V30 19 N -2.160101 5.317364 3.762876 0
M  V30 20 C -1.048665 4.477742 3.636381 0
M  V30 21 C -0.406448 0.921138 1.671079 0
M  V30 22 N 2.873235 -2.056429 -0.157597 0
M  V30 23 C 3.339391 -3.062909 -0.908237 0
M  V30 24 C 2.501998 -3.792071 -1.743066 0
M  V30 25 C 3.150773 -4.873435 -2.459115 0
M  V30 26 C 4.307250 -4.613694 -3.206691 0
M  V30 27 C 4.775719 -5.775955 -3.785720 0
M  V30 28 N 3.904526 -6.721181 -3.385923 0
M  V30 29 N 2.968278 -6.193268 -2.619469 0
M  V30 30 C 1.887157 -6.903992 -1.996403 0
M  V30 31 H -1.266858 -3.230306 -3.612697 0
M  V30 32 H -1.413517 -3.114478 -1.815130 0
M  V30 33 H -1.756818 -4.676056 -2.574986 0
M  V30 34 H 0.451794 -4.837770 -3.270383 0
M  V30 35 H 1.888674 -0.195161 1.301161 0
M  V30 36 H -1.030297 -0.920854 -0.972734 0
M  V30 37 H -0.355958 2.495803 3.870866 0
M  V30 38 H -2.282968 1.778162 5.356787 0
M  V30 39 H -1.370891 3.205800 5.890792 0
M  V30 40 H -4.167875 2.935735 4.947391 0
M  V30 41 H -3.473429 3.958349 6.217380 0
M  V30 42 H -3.927038 5.661732 4.749737 0
M  V30 43 H -4.014405 4.553842 3.370095 0
M  V30 44 H -1.976354 6.312528 3.955117 0
M  V30 45 H -0.534494 4.699403 2.666053 0
M  V30 46 H -0.311895 4.722441 4.431974 0
M  V30 47 H 0.306637 1.212914 2.429322 0
M  V30 48 H 4.405589 -3.247871 -0.801984 0
M  V30 49 H 4.814354 -3.664972 -3.353262 0
M  V30 50 H 5.663714 -5.864813 -4.423011 0
M  V30 51 H 1.544211 -6.429653 -1.053483 0
M  V30 52 H 2.288460 -7.908967 -1.688745 0
M  V30 53 H 1.050056 -7.132624 -2.682197 0
M  V30 END ATOM
M  V30 BEGIN BOND
M  V30 1 1 1 2
M  V30 2 1 2 3
M  V30 3 2 3 4
M  V30 4 1 4 5
M  V30 5 1 5 6
M  V30 6 1 6 7
M  V30 7 2 7 8
M  V30 8 1 8 9
M  V30 9 2 9 10
M  V30 10 1 10 11
M  V30 11 3 11 12
M  V30 12 1 10 13
M  V30 13 1 13 14
M  V30 14 1 14 15
M  V30 15 1 15 16
M  V30 16 1 16 17
M  V30 17 1 17 18
M  V30 18 1 18 19
M  V30 19 1 19 20
M  V30 20 2 13 21
M  V30 21 2 5 22
M  V30 22 1 22 23
M  V30 23 2 23 24
M  V30 24 1 24 25
M  V30 25 2 25 26
M  V30 26 1 26 27
M  V30 27 2 27 28
M  V30 28 1 28 29
M  V30 29 1 29 30
M  V30 30 1 24 3
M  V30 31 1 29 25
M  V30 32 1 21 7
M  V30 33 1 20 15
M  V30 34 1 1 31
M  V30 35 1 1 32
M  V30 36 1 1 33
M  V30 37 1 2 34
M  V30 38 1 6 35
M  V30 39 1 8 36
M  V30 40 1 15 37
M  V30 41 1 16 38
M  V30 42 1 16 39
M  V30 43 1 17 40
M  V30 44 1 17 41
M  V30 45 1 18 42
M  V30 46 1 18 43
M  V30 47 1 19 44
M  V30 48 1 20 45
M  V30 49 1 20 46
M  V30 50 1 21 47
M  V30 51 1 23 48
M  V30 52 1 26 49
M  V30 53 1 27 50
M  V30 54 1 30 51
M  V30 55 1 30 52
M  V30 56 1 30 53
M  V30 END BOND
M  V30 END CTAB
M  END
>  <Dataset>  (116) 
ChEMBL_Kinases

>  <Ligand_Instance>  (116) 
nan

>  <PDB_ID>  (116) 
nan

>  <Standardized_SMILES>  (116) 
CNc1nc(Nc2cnc(C#N)c(OC3CCCNC3)c2)ncc1-c1ccnn1C

>  <Name>  (116) 
nan

>  <Pocket>  (116) 
nan

>  <ATP_Site>  (116) 
nan

>  <Peripheral>  (116) 
nan

>  <Num_H_Atoms_ProtBoundConf>  (116) 
nan

>  <Num_Resolved_Atoms>  (116) 
nan

>  <Num_Not_Resolved_Atoms>  (116) 
nan

$$$$
CHEMBL473313
     RDKit          3D

  0  0  0  0  0  0  0  0  0  0999 V3000
M  V30 BEGIN CTAB
M  V30 COUNTS 28 29 0 0 0
M  V30 BEGIN ATOM
M  V30 1 C -2.581609 -0.196164 3.922567 0
M  V30 2 C -1.239272 -0.849713 3.750918 0
M  V30 3 N -0.460490 -0.131134 2.734075 0
M  V30 4 C -0.603214 -0.569640 1.356527 0
M  V30 5 O -1.343506 -1.462864 0.850719 0
M  V30 6 C 0.236093 0.150867 0.410827 0
M  V30 7 C 0.987090 -0.125090 -0.613859 0
M  V30 8 C 1.676599 0.922973 -1.341088 0
M  V30 9 C 2.468503 0.631532 -2.354114 0
M  V30 10 C 2.590266 -0.781502 -2.672818 0
M  V30 11 C 1.965326 -1.742744 -2.010941 0
M  V30 12 N 1.077200 -1.518278 -0.882136 0
M  V30 13 C 0.570563 -2.689310 -0.231859 0
M  V30 14 S 0.170777 1.796418 1.206857 0
M  V30 15 C 0.485680 0.939482 2.818045 0
M  V30 16 S 1.430094 1.047096 4.157059 0
M  V30 17 H -2.561277 0.805597 3.400897 0
M  V30 18 H -3.353314 -0.785030 3.362201 0
M  V30 19 H -2.920537 -0.093594 4.962718 0
M  V30 20 H -1.317242 -1.931769 3.510071 0
M  V30 21 H -0.723746 -0.809992 4.728465 0
M  V30 22 H 1.504901 1.936719 -1.008390 0
M  V30 23 H 2.940878 1.447460 -2.840503 0
M  V30 24 H 3.227940 -1.052397 -3.499389 0
M  V30 25 H 2.153557 -2.769347 -2.368280 0
M  V30 26 H -0.271393 -3.203248 -0.672362 0
M  V30 27 H 1.392950 -3.485807 -0.450135 0
M  V30 28 H 0.702791 -2.733508 0.876536 0
M  V30 END ATOM
M  V30 BEGIN BOND
M  V30 1 1 1 2
M  V30 2 1 2 3
M  V30 3 1 3 4
M  V30 4 2 4 5
M  V30 5 1 4 6
M  V30 6 2 6 7
M  V30 7 1 7 8
M  V30 8 2 8 9
M  V30 9 1 9 10
M  V30 10 2 10 11
M  V30 11 1 11 12
M  V30 12 1 12 13
M  V30 13 1 6 14
M  V30 14 1 14 15
M  V30 15 2 15 16
M  V30 16 1 15 3
M  V30 17 1 12 7
M  V30 18 1 1 17
M  V30 19 1 1 18
M  V30 20 1 1 19
M  V30 21 1 2 20
M  V30 22 1 2 21
M  V30 23 1 8 22
M  V30 24 1 9 23
M  V30 25 1 10 24
M  V30 26 1 11 25
M  V30 27 1 13 26
M  V30 28 1 13 27
M  V30 29 1 13 28
M  V30 END BOND
M  V30 END CTAB
M  END
>  <Dataset>  (117) 
ChEMBL_Kinases

>  <Ligand_Instance>  (117) 
nan

>  <PDB_ID>  (117) 
nan

>  <Standardized_SMILES>  (117) 
CCN1C(=O)/C(=C2/C=CC=CN2C)SC1=S

>  <Name>  (117) 
nan

>  <Pocket>  (117) 
nan

>  <ATP_Site>  (117) 
nan

>  <Peripheral>  (117) 
nan

>  <Num_H_Atoms_ProtBoundConf>  (117) 
nan

>  <Num_Resolved_Atoms>  (117) 
nan

>  <Num_Not_Resolved_Atoms>  (117) 
nan

$$$$
CHEMBL4465305
     RDKit          3D

  0  0  0  0  0  0  0  0  0  0999 V3000
M  V30 BEGIN CTAB
M  V30 COUNTS 53 57 0 0 0
M  V30 BEGIN ATOM
M  V30 1 C 3.473254 -2.829343 3.839998 0
M  V30 2 O 3.478258 -1.723913 4.725020 0
M  V30 3 C 3.179048 -0.426405 4.271676 0
M  V30 4 C 3.171486 0.682037 5.102786 0
M  V30 5 C 2.870876 1.942879 4.615742 0
M  V30 6 C 2.569389 2.124558 3.276539 0
M  V30 7 C 2.591101 0.991704 2.494609 0
M  V30 8 N 2.295711 1.095397 1.108042 0
M  V30 9 C 1.859452 2.020010 0.161244 0
M  V30 10 N 2.819442 2.835313 -0.252972 0
M  V30 11 C 2.689713 3.807652 -1.158457 0
M  V30 12 N 1.464875 3.960456 -1.689942 0
M  V30 13 C 0.434406 3.187294 -1.336660 0
M  V30 14 S -1.356326 3.008725 -1.772723 0
M  V30 15 C -1.724907 1.671003 -0.707963 0
M  V30 16 C -0.464567 1.382240 -0.033009 0
M  V30 17 C 0.602477 2.159682 -0.369463 0
M  V30 18 C -0.749123 0.259285 0.883952 0
M  V30 19 C -1.276799 -0.889442 0.052358 0
M  V30 20 N -2.475374 -0.538132 -0.682033 0
M  V30 21 S -3.730195 -1.670551 -0.403573 0
M  V30 22 O -4.922214 -1.232623 -1.208252 0
M  V30 23 O -4.018616 -1.747088 1.047706 0
M  V30 24 C -3.175154 -3.222054 -0.964610 0
M  V30 25 C -3.088791 -4.303156 -0.089504 0
M  V30 26 C -2.660993 -5.566619 -0.440188 0
M  V30 27 C -2.290777 -5.770085 -1.762077 0
M  V30 28 C -2.353760 -4.747598 -2.669121 0
M  V30 29 C -2.791710 -3.510132 -2.246512 0
M  V30 30 N -2.844118 -2.475999 -3.211510 0 CHG=1 VAL=4
M  V30 31 O -3.526803 -1.471626 -3.442195 0
M  V30 32 O -1.922143 -2.502890 -4.219178 0 CHG=-1 VAL=1
M  V30 33 C -2.882399 0.841375 -0.371717 0
M  V30 34 C 2.885059 -0.264955 2.954300 0
M  V30 35 H 4.162350 -2.732718 2.993529 0
M  V30 36 H 2.451214 -2.996691 3.386880 0
M  V30 37 H 3.647713 -3.722458 4.469082 0
M  V30 38 H 3.414830 0.492900 6.144034 0
M  V30 39 H 2.891548 2.739926 5.337181 0
M  V30 40 H 2.335329 3.106555 2.901733 0
M  V30 41 H 2.388776 0.277754 0.437644 0
M  V30 42 H 3.381388 4.523850 -1.571141 0
M  V30 43 H -1.484098 0.574882 1.664676 0
M  V30 44 H 0.136238 -0.081672 1.437282 0
M  V30 45 H -1.365577 -1.822248 0.635998 0
M  V30 46 H -0.486119 -1.052812 -0.736670 0
M  V30 47 H -3.377291 -4.158473 0.951521 0
M  V30 48 H -2.622903 -6.354102 0.301108 0
M  V30 49 H -1.960535 -6.789699 -1.972027 0
M  V30 50 H -2.055145 -4.968643 -3.666695 0
M  V30 51 H -3.222548 0.920970 0.669548 0
M  V30 52 H -3.667605 1.078179 -1.117689 0
M  V30 53 H 2.888723 -1.126484 2.299294 0
M  V30 END ATOM
M  V30 BEGIN BOND
M  V30 1 1 1 2
M  V30 2 1 2 3
M  V30 3 2 3 4
M  V30 4 1 4 5
M  V30 5 2 5 6
M  V30 6 1 6 7
M  V30 7 1 7 8
M  V30 8 1 8 9
M  V30 9 2 9 10
M  V30 10 1 10 11
M  V30 11 2 11 12
M  V30 12 1 12 13
M  V30 13 1 13 14
M  V30 14 1 14 15
M  V30 15 2 15 16
M  V30 16 1 16 17
M  V30 17 1 16 18
M  V30 18 1 18 19
M  V30 19 1 19 20
M  V30 20 1 20 21
M  V30 21 2 21 22
M  V30 22 2 21 23
M  V30 23 1 21 24
M  V30 24 2 24 25
M  V30 25 1 25 26
M  V30 26 2 26 27
M  V30 27 1 27 28
M  V30 28 2 28 29
M  V30 29 1 29 30
M  V30 30 2 30 31
M  V30 31 1 30 32
M  V30 32 1 20 33
M  V30 33 2 7 34
M  V30 34 1 34 3
M  V30 35 1 17 9
M  V30 36 1 29 24
M  V30 37 2 17 13
M  V30 38 1 33 15
M  V30 39 1 1 35
M  V30 40 1 1 36
M  V30 41 1 1 37
M  V30 42 1 4 38
M  V30 43 1 5 39
M  V30 44 1 6 40
M  V30 45 1 8 41
M  V30 46 1 11 42
M  V30 47 1 18 43
M  V30 48 1 18 44
M  V30 49 1 19 45
M  V30 50 1 19 46
M  V30 51 1 25 47
M  V30 52 1 26 48
M  V30 53 1 27 49
M  V30 54 1 28 50
M  V30 55 1 33 51
M  V30 56 1 33 52
M  V30 57 1 34 53
M  V30 END BOND
M  V30 END CTAB
M  END
>  <Dataset>  (118) 
ChEMBL_Kinases

>  <Ligand_Instance>  (118) 
nan

>  <PDB_ID>  (118) 
nan

>  <Standardized_SMILES>  (118) 
COc1cccc(Nc2ncnc3sc4c(c23)CCN(S(=O)(=O)c2ccccc2[N+](=O)[O-])C4)c1

>  <Name>  (118) 
nan

>  <Pocket>  (118) 
nan

>  <ATP_Site>  (118) 
nan

>  <Peripheral>  (118) 
nan

>  <Num_H_Atoms_ProtBoundConf>  (118) 
nan

>  <Num_Resolved_Atoms>  (118) 
nan

>  <Num_Not_Resolved_Atoms>  (118) 
nan

$$$$
CHEMBL4465192
     RDKit          3D

  0  0  0  0  0  0  0  0  0  0999 V3000
M  V30 BEGIN CTAB
M  V30 COUNTS 59 63 0 0 0
M  V30 BEGIN ATOM
M  V30 1 C 5.662505 -1.769060 7.085399 0
M  V30 2 C 5.326571 -1.071845 5.811154 0
M  V30 3 C 6.307403 -0.365060 5.112616 0
M  V30 4 C 6.001132 0.288133 3.922619 0
M  V30 5 C 4.696485 0.197019 3.483745 0
M  V30 6 C 4.373951 0.882274 2.234794 0
M  V30 7 C 3.186065 0.983273 1.538812 0
M  V30 8 C 3.341909 1.731488 0.403180 0
M  V30 9 C 2.331084 2.070469 -0.596753 0
M  V30 10 C 2.687587 2.843906 -1.682870 0
M  V30 11 C 1.657264 3.115979 -2.583739 0
M  V30 12 C 0.364804 2.657360 -2.424998 0
M  V30 13 C 0.054812 1.885695 -1.320858 0
M  V30 14 N -1.242628 1.355979 -1.049792 0
M  V30 15 C -1.499644 0.066500 -1.594358 0
M  V30 16 O -0.570914 -0.449366 -2.240445 0
M  V30 17 C -2.758901 -0.653162 -1.435074 0
M  V30 18 C -2.814939 -1.895901 -2.039589 0
M  V30 19 C -3.990439 -2.648187 -1.931557 0
M  V30 20 N -4.073259 -3.928420 -2.543891 0
M  V30 21 C -3.812722 -4.396272 -3.798492 0
M  V30 22 C -4.089654 -5.758293 -3.780574 0
M  V30 23 N -4.502058 -6.072667 -2.541132 0
M  V30 24 C -4.494306 -4.950964 -1.774904 0
M  V30 25 C -4.911621 -5.056235 -0.370105 0
M  V30 26 C -5.084065 -2.159104 -1.230429 0
M  V30 27 C -4.971559 -0.909889 -0.646088 0
M  V30 28 C -6.171417 -0.420417 0.099347 0
M  V30 29 F -5.769651 0.611072 0.902009 0
M  V30 30 F -6.792168 -1.434869 0.796599 0
M  V30 31 F -7.023132 0.106404 -0.865677 0
M  V30 32 C -3.816384 -0.123769 -0.728589 0
M  V30 33 C 1.047304 1.598116 -0.411991 0
M  V30 34 N 4.641283 2.082789 0.420420 0
M  V30 35 N 5.251673 1.586992 1.493294 0
M  V30 36 C 3.721196 -0.498995 4.167418 0
M  V30 37 C 4.022342 -1.147600 5.347722 0
M  V30 38 H 5.605054 -2.852860 6.907025 0
M  V30 39 H 6.656949 -1.431376 7.434059 0
M  V30 40 H 4.944565 -1.525437 7.895168 0
M  V30 41 H 7.301783 -0.351652 5.537409 0
M  V30 42 H 6.789439 0.824104 3.412891 0
M  V30 43 H 2.266796 0.523251 1.867377 0
M  V30 44 H 3.684957 3.215391 -1.833685 0
M  V30 45 H 1.846554 3.724244 -3.478798 0
M  V30 46 H -0.424382 2.870199 -3.122184 0
M  V30 47 H -1.990136 1.824790 -0.502707 0
M  V30 48 H -2.002942 -2.338565 -2.600340 0
M  V30 49 H -3.463347 -3.691873 -4.538538 0
M  V30 50 H -3.950307 -6.344040 -4.688983 0
M  V30 51 H -4.631444 -4.167305 0.245542 0
M  V30 52 H -4.403167 -5.927645 0.105901 0
M  V30 53 H -6.008443 -5.259147 -0.255252 0
M  V30 54 H -5.998999 -2.730118 -1.139016 0
M  V30 55 H -3.757867 0.832714 -0.269706 0
M  V30 56 H 0.834477 1.000275 0.455705 0
M  V30 57 H 5.147825 2.666187 -0.292222 0
M  V30 58 H 2.700553 -0.545819 3.784668 0
M  V30 59 H 3.235043 -1.683630 5.858011 0
M  V30 END ATOM
M  V30 BEGIN BOND
M  V30 1 1 1 2
M  V30 2 2 2 3
M  V30 3 1 3 4
M  V30 4 2 4 5
M  V30 5 1 5 6
M  V30 6 1 6 7
M  V30 7 2 7 8
M  V30 8 1 8 9
M  V30 9 2 9 10
M  V30 10 1 10 11
M  V30 11 2 11 12
M  V30 12 1 12 13
M  V30 13 1 13 14
M  V30 14 1 14 15
M  V30 15 2 15 16
M  V30 16 1 15 17
M  V30 17 2 17 18
M  V30 18 1 18 19
M  V30 19 1 19 20
M  V30 20 1 20 21
M  V30 21 2 21 22
M  V30 22 1 22 23
M  V30 23 2 23 24
M  V30 24 1 24 25
M  V30 25 2 19 26
M  V30 26 1 26 27
M  V30 27 1 27 28
M  V30 28 1 28 29
M  V30 29 1 28 30
M  V30 30 1 28 31
M  V30 31 2 27 32
M  V30 32 2 13 33
M  V30 33 1 8 34
M  V30 34 1 34 35
M  V30 35 1 5 36
M  V30 36 2 36 37
M  V30 37 1 37 2
M  V30 38 2 35 6
M  V30 39 1 33 9
M  V30 40 1 32 17
M  V30 41 1 24 20
M  V30 42 1 1 38
M  V30 43 1 1 39
M  V30 44 1 1 40
M  V30 45 1 3 41
M  V30 46 1 4 42
M  V30 47 1 7 43
M  V30 48 1 10 44
M  V30 49 1 11 45
M  V30 50 1 12 46
M  V30 51 1 14 47
M  V30 52 1 18 48
M  V30 53 1 21 49
M  V30 54 1 22 50
M  V30 55 1 25 51
M  V30 56 1 25 52
M  V30 57 1 25 53
M  V30 58 1 26 54
M  V30 59 1 32 55
M  V30 60 1 33 56
M  V30 61 1 34 57
M  V30 62 1 36 58
M  V30 63 1 37 59
M  V30 END BOND
M  V30 END CTAB
M  END
>  <Dataset>  (119) 
ChEMBL_Kinases

>  <Ligand_Instance>  (119) 
nan

>  <PDB_ID>  (119) 
nan

>  <Standardized_SMILES>  (119) 
Cc1ccc(-c2cc(-c3cccc(NC(=O)c4cc(-n5ccnc5C)cc(C(F)(F)F)c4)c3)[nH]n2)cc1

>  <Name>  (119) 
nan

>  <Pocket>  (119) 
nan

>  <ATP_Site>  (119) 
nan

>  <Peripheral>  (119) 
nan

>  <Num_H_Atoms_ProtBoundConf>  (119) 
nan

>  <Num_Resolved_Atoms>  (119) 
nan

>  <Num_Not_Resolved_Atoms>  (119) 
nan

$$$$
CHEMBL4465183
     RDKit          3D

  0  0  0  0  0  0  0  0  0  0999 V3000
M  V30 BEGIN CTAB
M  V30 COUNTS 29 31 0 0 0
M  V30 BEGIN ATOM
M  V30 1 O -1.504836 2.166912 3.471209 0
M  V30 2 C -0.467119 1.552148 3.054355 0
M  V30 3 N 0.897502 1.688263 3.423720 0
M  V30 4 C 1.639881 0.757744 2.647683 0
M  V30 5 C 2.997595 0.531713 2.643050 0
M  V30 6 C 3.554647 -0.406725 1.803209 0
M  V30 7 C 2.726808 -1.137582 0.944505 0
M  V30 8 N 3.425333 -2.066629 0.134125 0 CHG=1 VAL=4
M  V30 9 O 2.843424 -2.800451 -0.690926 0
M  V30 10 O 4.770091 -2.292348 0.128586 0 CHG=-1 VAL=1
M  V30 11 C 1.377902 -0.875842 0.986748 0
M  V30 12 C 0.813322 0.047572 1.813161 0
M  V30 13 C -0.533877 0.515519 2.036331 0
M  V30 14 C -1.543004 0.046264 1.351199 0
M  V30 15 C -1.664406 -0.981601 0.341327 0
M  V30 16 C -2.187591 -0.440120 -0.819164 0
M  V30 17 C -2.500430 -1.144681 -1.985341 0
M  V30 18 C -2.259817 -2.502126 -1.960535 0
M  V30 19 C -1.739615 -3.014361 -0.794327 0
M  V30 20 N -1.445545 -2.329084 0.312418 0
M  V30 21 H 1.158525 2.391845 4.153292 0
M  V30 22 H 3.638633 1.092981 3.302699 0
M  V30 23 H 4.624418 -0.539444 1.844466 0
M  V30 24 H 0.909923 -1.497193 0.263194 0
M  V30 25 H -2.492209 0.548902 1.618534 0
M  V30 26 H -2.434548 0.624514 -0.996045 0
M  V30 27 H -2.902909 -0.748863 -2.888446 0
M  V30 28 H -2.456766 -3.157331 -2.791628 0
M  V30 29 H -1.522436 -4.082396 -0.698706 0
M  V30 END ATOM
M  V30 BEGIN BOND
M  V30 1 2 1 2
M  V30 2 1 2 3
M  V30 3 1 3 4
M  V30 4 2 4 5
M  V30 5 1 5 6
M  V30 6 2 6 7
M  V30 7 1 7 8
M  V30 8 2 8 9
M  V30 9 1 8 10
M  V30 10 1 7 11
M  V30 11 2 11 12
M  V30 12 1 12 13
M  V30 13 2 13 14
M  V30 14 1 14 15
M  V30 15 2 15 16
M  V30 16 1 16 17
M  V30 17 2 17 18
M  V30 18 1 18 19
M  V30 19 2 19 20
M  V30 20 1 13 2
M  V30 21 1 20 15
M  V30 22 1 12 4
M  V30 23 1 3 21
M  V30 24 1 5 22
M  V30 25 1 6 23
M  V30 26 1 11 24
M  V30 27 1 14 25
M  V30 28 1 16 26
M  V30 29 1 17 27
M  V30 30 1 18 28
M  V30 31 1 19 29
M  V30 END BOND
M  V30 END CTAB
M  END
>  <Dataset>  (120) 
ChEMBL_Kinases

>  <Ligand_Instance>  (120) 
nan

>  <PDB_ID>  (120) 
nan

>  <Standardized_SMILES>  (120) 
O=C1Nc2ccc([N+](=O)[O-])cc2/C1=C\c1ccccn1

>  <Name>  (120) 
nan

>  <Pocket>  (120) 
nan

>  <ATP_Site>  (120) 
nan

>  <Peripheral>  (120) 
nan

>  <Num_H_Atoms_ProtBoundConf>  (120) 
nan

>  <Num_Resolved_Atoms>  (120) 
nan

>  <Num_Not_Resolved_Atoms>  (120) 
nan

$$$$
CHEMBL4465121
     RDKit          3D

  0  0  0  0  0  0  0  0  0  0999 V3000
M  V30 BEGIN CTAB
M  V30 COUNTS 50 53 0 0 0
M  V30 BEGIN ATOM
M  V30 1 C 3.453957 -4.604974 5.763433 0
M  V30 2 O 3.043864 -3.321656 5.329229 0
M  V30 3 C 2.700913 -3.163923 3.994117 0
M  V30 4 C 2.288485 -1.949096 3.481818 0
M  V30 5 C 1.933107 -1.724066 2.168615 0
M  V30 6 C 2.002951 -2.812095 1.323157 0
M  V30 7 C 1.651995 -2.606038 0.007471 0
M  V30 8 C 1.194806 -1.332503 -0.593483 0
M  V30 9 C 2.410562 -0.573047 -1.068526 0
M  V30 10 C 2.006452 0.769214 -1.689559 0
M  V30 11 N 0.539088 0.816853 -1.580494 0
M  V30 12 C -0.018235 1.804589 -0.733680 0
M  V30 13 O 0.873672 2.493628 -0.218095 0
M  V30 14 C -1.440368 1.957834 -0.520752 0
M  V30 15 C -1.776645 2.008388 0.839868 0
M  V30 16 C -3.099757 2.146030 1.262630 0
M  V30 17 C -4.151961 2.239480 0.339455 0
M  V30 18 O -5.390446 2.369348 0.877489 0
M  V30 19 C -6.140753 3.463306 1.229932 0
M  V30 20 F -5.542365 4.286779 2.196912 0
M  V30 21 F -6.595782 4.270646 0.232290 0
M  V30 22 F -7.283512 2.972468 1.884011 0
M  V30 23 C -3.782393 2.186212 -0.985635 0
M  V30 24 C -2.487384 2.051470 -1.413149 0
M  V30 25 C 0.030322 -0.247727 -2.442549 0
M  V30 26 C 0.327258 -1.591800 -1.824131 0
M  V30 27 N 1.732083 -3.699101 -0.805815 0
M  V30 28 C 2.127061 -4.896451 -0.350844 0
M  V30 29 N 2.477489 -5.112920 0.952099 0
M  V30 30 C 2.413425 -4.048593 1.802742 0
M  V30 31 N 2.746184 -4.193057 3.100576 0
M  V30 32 H 4.259951 -4.945195 5.080880 0
M  V30 33 H 3.780780 -4.592805 6.826418 0
M  V30 34 H 2.621598 -5.356240 5.617521 0
M  V30 35 H 2.254653 -1.140478 4.198175 0
M  V30 36 H 1.613868 -0.757630 1.806874 0
M  V30 37 H 0.554284 -0.721362 0.071099 0
M  V30 38 H 3.067424 -0.403846 -0.217384 0
M  V30 39 H 2.970008 -1.130157 -1.846602 0
M  V30 40 H 2.500068 1.568117 -1.131618 0
M  V30 41 H 2.335775 0.834482 -2.745087 0
M  V30 42 H -1.032809 1.946267 1.649231 0
M  V30 43 H -3.305557 2.181916 2.343246 0
M  V30 44 H -4.573965 2.254770 -1.688047 0
M  V30 45 H -2.172851 2.010853 -2.437226 0
M  V30 46 H -1.070867 -0.110468 -2.442733 0
M  V30 47 H 0.452886 -0.167842 -3.468735 0
M  V30 48 H -0.623718 -2.034852 -1.467645 0
M  V30 49 H 0.840482 -2.275794 -2.533162 0
M  V30 50 H 2.185435 -5.760369 -1.005070 0
M  V30 END ATOM
M  V30 BEGIN BOND
M  V30 1 1 1 2
M  V30 2 1 2 3
M  V30 3 2 3 4
M  V30 4 1 4 5
M  V30 5 2 5 6
M  V30 6 1 6 7
M  V30 7 1 7 8
M  V30 8 1 8 9
M  V30 9 1 9 10
M  V30 10 1 10 11
M  V30 11 1 11 12
M  V30 12 2 12 13
M  V30 13 1 12 14
M  V30 14 2 14 15
M  V30 15 1 15 16
M  V30 16 2 16 17
M  V30 17 1 17 18
M  V30 18 1 18 19
M  V30 19 1 19 20
M  V30 20 1 19 21
M  V30 21 1 19 22
M  V30 22 1 17 23
M  V30 23 2 23 24
M  V30 24 1 11 25
M  V30 25 1 25 26
M  V30 26 2 7 27
M  V30 27 1 27 28
M  V30 28 2 28 29
M  V30 29 1 29 30
M  V30 30 2 30 31
M  V30 31 1 31 3
M  V30 32 1 30 6
M  V30 33 1 26 8
M  V30 34 1 24 14
M  V30 35 1 1 32
M  V30 36 1 1 33
M  V30 37 1 1 34
M  V30 38 1 4 35
M  V30 39 1 5 36
M  V30 40 1 8 37
M  V30 41 1 9 38
M  V30 42 1 9 39
M  V30 43 1 10 40
M  V30 44 1 10 41
M  V30 45 1 15 42
M  V30 46 1 16 43
M  V30 47 1 23 44
M  V30 48 1 24 45
M  V30 49 1 25 46
M  V30 50 1 25 47
M  V30 51 1 26 48
M  V30 52 1 26 49
M  V30 53 1 28 50
M  V30 END BOND
M  V30 END CTAB
M  END
>  <Dataset>  (121) 
ChEMBL_Kinases

>  <Ligand_Instance>  (121) 
nan

>  <PDB_ID>  (121) 
nan

>  <Standardized_SMILES>  (121) 
COc1ccc2c(C3CCN(C(=O)c4ccc(OC(F)(F)F)cc4)CC3)ncnc2n1

>  <Name>  (121) 
nan

>  <Pocket>  (121) 
nan

>  <ATP_Site>  (121) 
nan

>  <Peripheral>  (121) 
nan

>  <Num_H_Atoms_ProtBoundConf>  (121) 
nan

>  <Num_Resolved_Atoms>  (121) 
nan

>  <Num_Not_Resolved_Atoms>  (121) 
nan

$$$$
CHEMBL4739879
     RDKit          3D

  0  0  0  0  0  0  0  0  0  0999 V3000
M  V30 BEGIN CTAB
M  V30 COUNTS 37 40 0 0 0
M  V30 BEGIN ATOM
M  V30 1 O 0.606262 -6.400212 1.650908 0
M  V30 2 C 1.230569 -5.366371 1.968995 0
M  V30 3 O 0.095205 -4.749461 1.493136 0
M  V30 4 C 2.554846 -5.677495 2.540578 0
M  V30 5 S 3.490935 -4.187813 3.001118 0
M  V30 6 C 3.927051 -3.235854 1.555651 0
M  V30 7 N 5.051574 -3.408528 0.856279 0
M  V30 8 C 5.204612 -2.591835 -0.211407 0
M  V30 9 N 4.357590 -1.656420 -0.616965 0
M  V30 10 C 3.194515 -1.409787 0.027811 0
M  V30 11 C 2.218737 -0.518262 -0.223050 0
M  V30 12 C 1.148163 -0.449875 0.554537 0
M  V30 13 C -0.048583 0.435734 0.485805 0
M  V30 14 C -0.149369 1.379388 -0.527623 0
M  V30 15 C -1.273836 2.197376 -0.578410 0
M  V30 16 C -2.248741 2.035265 0.387570 0
M  V30 17 C -3.452617 2.917041 0.322514 0
M  V30 18 C -4.058597 3.136635 -1.054164 0
M  V30 19 C -3.347349 4.251066 -0.343034 0
M  V30 20 C -2.140020 1.082377 1.405459 0
M  V30 21 C -1.020934 0.272558 1.450891 0
M  V30 22 S 1.422657 -1.689146 1.768965 0
M  V30 23 C 3.007311 -2.228363 1.124949 0
M  V30 24 H -0.470649 -4.235662 2.177033 0
M  V30 25 H 2.473006 -6.381785 3.387489 0
M  V30 26 H 3.147642 -6.199466 1.759787 0
M  V30 27 H 6.129362 -2.728892 -0.792081 0
M  V30 28 H 2.262069 0.186391 -1.072886 0
M  V30 29 H 0.655106 1.469657 -1.273522 0
M  V30 30 H -1.303064 2.908030 -1.378932 0
M  V30 31 H -4.244592 2.789758 1.097308 0
M  V30 32 H -5.137615 3.278302 -1.172775 0
M  V30 33 H -3.574852 2.656548 -1.933692 0
M  V30 34 H -3.921043 5.126447 0.020302 0
M  V30 35 H -2.371708 4.545901 -0.795978 0
M  V30 36 H -2.919333 0.972560 2.154206 0
M  V30 37 H -0.896662 -0.482232 2.226197 0
M  V30 END ATOM
M  V30 BEGIN BOND
M  V30 1 2 1 2
M  V30 2 1 2 3
M  V30 3 1 2 4
M  V30 4 1 4 5
M  V30 5 1 5 6
M  V30 6 2 6 7
M  V30 7 1 7 8
M  V30 8 2 8 9
M  V30 9 1 9 10
M  V30 10 1 10 11
M  V30 11 2 11 12
M  V30 12 1 12 13
M  V30 13 2 13 14
M  V30 14 1 14 15
M  V30 15 2 15 16
M  V30 16 1 16 17
M  V30 17 1 17 18
M  V30 18 1 18 19
M  V30 19 1 16 20
M  V30 20 2 20 21
M  V30 21 1 12 22
M  V30 22 1 22 23
M  V30 23 1 23 6
M  V30 24 2 23 10
M  V30 25 1 21 13
M  V30 26 1 19 17
M  V30 27 1 3 24
M  V30 28 1 4 25
M  V30 29 1 4 26
M  V30 30 1 8 27
M  V30 31 1 11 28
M  V30 32 1 14 29
M  V30 33 1 15 30
M  V30 34 1 17 31
M  V30 35 1 18 32
M  V30 36 1 18 33
M  V30 37 1 19 34
M  V30 38 1 19 35
M  V30 39 1 20 36
M  V30 40 1 21 37
M  V30 END BOND
M  V30 END CTAB
M  END
>  <Dataset>  (122) 
ChEMBL_Kinases

>  <Ligand_Instance>  (122) 
nan

>  <PDB_ID>  (122) 
nan

>  <Standardized_SMILES>  (122) 
O=C(O)CSc1ncnc2cc(-c3ccc(C4CC4)cc3)sc12

>  <Name>  (122) 
nan

>  <Pocket>  (122) 
nan

>  <ATP_Site>  (122) 
nan

>  <Peripheral>  (122) 
nan

>  <Num_H_Atoms_ProtBoundConf>  (122) 
nan

>  <Num_Resolved_Atoms>  (122) 
nan

>  <Num_Not_Resolved_Atoms>  (122) 
nan

$$$$
CHEMBL4739893
     RDKit          3D

  0  0  0  0  0  0  0  0  0  0999 V3000
M  V30 BEGIN CTAB
M  V30 COUNTS 57 61 0 0 0
M  V30 BEGIN ATOM
M  V30 1 C 5.496343 -2.687829 2.251288 0
M  V30 2 N 5.303881 -2.391986 0.865063 0
M  V30 3 C 4.069175 -2.868084 0.312954 0
M  V30 4 C 2.844920 -2.295723 0.993603 0
M  V30 5 C 2.967147 -0.793671 0.888141 0
M  V30 6 N 2.851025 -0.337226 -0.492175 0
M  V30 7 C 1.862124 0.600974 -0.903206 0
M  V30 8 C 1.687523 1.082857 -2.187149 0
M  V30 9 C 0.696142 1.994284 -2.487608 0
M  V30 10 C -0.151962 2.442698 -1.475589 0
M  V30 11 C 0.048349 1.941253 -0.199468 0
M  V30 12 N -0.769822 2.341630 0.900212 0
M  V30 13 N -0.620458 3.299362 1.823449 0
M  V30 14 C -1.691830 3.268290 2.657888 0
M  V30 15 C -2.530671 2.248620 2.225917 0
M  V30 16 C -3.744140 1.779660 2.698056 0
M  V30 17 N -4.343551 0.755480 2.067116 0
M  V30 18 C -3.816153 0.155400 0.985356 0
M  V30 19 C -4.422930 -0.957667 0.263439 0
M  V30 20 C -5.272027 -0.605379 -0.773388 0
M  V30 21 F -5.529823 0.686974 -1.104671 0
M  V30 22 C -5.901391 -1.570862 -1.524832 0
M  V30 23 C -5.644776 -2.879480 -1.194758 0
M  V30 24 C -4.794025 -3.261760 -0.155503 0
M  V30 25 C -4.172893 -2.276878 0.585668 0
M  V30 26 O -3.303051 -2.486992 1.645725 0
M  V30 27 C -2.966841 -3.796844 2.072550 0
M  V30 28 C -2.606130 0.626598 0.518451 0
M  V30 29 C -1.922893 1.672716 1.105375 0
M  V30 30 N 1.021928 1.061564 0.036703 0
M  V30 31 C 3.838785 -0.953587 -1.315030 0
M  V30 32 C 3.999167 -2.432465 -1.134870 0
M  V30 33 H 4.576279 -2.982525 2.794109 0
M  V30 34 H 5.924996 -1.798565 2.799542 0
M  V30 35 H 6.254314 -3.496889 2.405239 0
M  V30 36 H 5.462227 -1.412645 0.606026 0
M  V30 37 H 4.044392 -3.982072 0.292702 0
M  V30 38 H 2.725703 -2.576961 2.037794 0
M  V30 39 H 1.968735 -2.580843 0.374251 0
M  V30 40 H 2.114449 -0.390145 1.506234 0
M  V30 41 H 3.873871 -0.402137 1.391537 0
M  V30 42 H 2.352925 0.719532 -2.936890 0
M  V30 43 H 0.583284 2.354262 -3.503276 0
M  V30 44 H -0.941140 3.156754 -1.670783 0
M  V30 45 H -1.838623 3.939095 3.508288 0
M  V30 46 H -4.216755 2.215747 3.556606 0
M  V30 47 H -6.575384 -1.359572 -2.346884 0
M  V30 48 H -6.106183 -3.694378 -1.744173 0
M  V30 49 H -4.584846 -4.274196 0.112805 0
M  V30 50 H -3.696064 -4.179674 2.806906 0
M  V30 51 H -1.981739 -3.810483 2.598047 0
M  V30 52 H -2.849675 -4.495863 1.199434 0
M  V30 53 H -2.149462 0.159791 -0.360663 0
M  V30 54 H 4.825308 -0.464742 -1.083750 0
M  V30 55 H 3.617425 -0.782440 -2.388226 0
M  V30 56 H 4.986863 -2.709564 -1.606616 0
M  V30 57 H 3.209975 -3.027165 -1.605877 0
M  V30 END ATOM
M  V30 BEGIN BOND
M  V30 1 1 1 2
M  V30 2 1 2 3
M  V30 3 1 3 4
M  V30 4 1 4 5
M  V30 5 1 5 6
M  V30 6 1 6 7
M  V30 7 2 7 8
M  V30 8 1 8 9
M  V30 9 2 9 10
M  V30 10 1 10 11
M  V30 11 1 11 12
M  V30 12 1 12 13
M  V30 13 2 13 14
M  V30 14 1 14 15
M  V30 15 2 15 16
M  V30 16 1 16 17
M  V30 17 2 17 18
M  V30 18 1 18 19
M  V30 19 2 19 20
M  V30 20 1 20 21
M  V30 21 1 20 22
M  V30 22 2 22 23
M  V30 23 1 23 24
M  V30 24 2 24 25
M  V30 25 1 25 26
M  V30 26 1 26 27
M  V30 27 1 18 28
M  V30 28 2 28 29
M  V30 29 2 11 30
M  V30 30 1 6 31
M  V30 31 1 31 32
M  V30 32 1 32 3
M  V30 33 1 30 7
M  V30 34 1 29 12
M  V30 35 1 29 15
M  V30 36 1 25 19
M  V30 37 1 1 33
M  V30 38 1 1 34
M  V30 39 1 1 35
M  V30 40 1 2 36
M  V30 41 1 3 37
M  V30 42 1 4 38
M  V30 43 1 4 39
M  V30 44 1 5 40
M  V30 45 1 5 41
M  V30 46 1 8 42
M  V30 47 1 9 43
M  V30 48 1 10 44
M  V30 49 1 14 45
M  V30 50 1 16 46
M  V30 51 1 22 47
M  V30 52 1 23 48
M  V30 53 1 24 49
M  V30 54 1 27 50
M  V30 55 1 27 51
M  V30 56 1 27 52
M  V30 57 1 28 53
M  V30 58 1 31 54
M  V30 59 1 31 55
M  V30 60 1 32 56
M  V30 61 1 32 57
M  V30 END BOND
M  V30 END CTAB
M  END
>  <Dataset>  (123) 
ChEMBL_Kinases

>  <Ligand_Instance>  (123) 
nan

>  <PDB_ID>  (123) 
nan

>  <Standardized_SMILES>  (123) 
CNC1CCN(c2cccc(-n3ncc4cnc(-c5c(F)cccc5OC)cc43)n2)CC1

>  <Name>  (123) 
nan

>  <Pocket>  (123) 
nan

>  <ATP_Site>  (123) 
nan

>  <Peripheral>  (123) 
nan

>  <Num_H_Atoms_ProtBoundConf>  (123) 
nan

>  <Num_Resolved_Atoms>  (123) 
nan

>  <Num_Not_Resolved_Atoms>  (123) 
nan

$$$$
CHEMBL473104
     RDKit          3D

  0  0  0  0  0  0  0  0  0  0999 V3000
M  V30 BEGIN CTAB
M  V30 COUNTS 48 50 0 0 0
M  V30 BEGIN ATOM
M  V30 1 O 1.904244 -6.206772 -1.617867 0
M  V30 2 C 2.836189 -5.373134 -1.600554 0
M  V30 3 O 4.101073 -5.783403 -1.221045 0
M  V30 4 C 2.549518 -4.003707 -1.981682 0
M  V30 5 C 3.415867 -3.032659 -2.011035 0
M  V30 6 C 3.293862 -1.595718 -2.370939 0
M  V30 7 C 1.845890 -1.342421 -2.733291 0
M  V30 8 N 0.951742 -2.178381 -2.050933 0
M  V30 9 C 0.545857 -1.930343 -0.741919 0
M  V30 10 C -0.308032 -0.770924 -0.457160 0
M  V30 11 O -0.641680 -0.655548 0.939745 0
M  V30 12 N -1.350253 0.250790 1.498313 0
M  V30 13 C -1.525467 1.012662 2.444517 0
M  V30 14 C -0.610417 1.036358 3.519069 0
M  V30 15 C 0.448330 0.160748 3.388675 0
M  V30 16 C 1.436483 0.066434 4.367764 0
M  V30 17 C 1.369537 0.850509 5.485687 0
M  V30 18 C 0.335184 1.739231 5.664011 0
M  V30 19 C -0.605054 1.786434 4.667922 0
M  V30 20 C -2.742938 1.691298 2.068795 0
M  V30 21 C -3.398582 1.396866 0.896173 0
M  V30 22 C -4.574712 2.021787 0.470141 0
M  V30 23 C -5.134298 2.996772 1.253024 0
M  V30 24 C -4.537896 3.338622 2.427031 0
M  V30 25 C -3.389879 2.675513 2.765722 0
M  V30 26 C 1.195823 -3.565650 -2.386454 0
M  V30 27 H 4.251557 -6.618299 -0.691793 0
M  V30 28 H 4.459785 -3.242352 -1.727057 0
M  V30 29 H 3.552038 -1.021095 -1.468307 0
M  V30 30 H 3.981741 -1.321144 -3.196473 0
M  V30 31 H 1.792327 -1.657708 -3.820566 0
M  V30 32 H 1.584890 -0.267852 -2.784279 0
M  V30 33 H 0.071859 -2.853702 -0.342888 0
M  V30 34 H 1.479189 -1.835274 -0.107100 0
M  V30 35 H 0.072831 0.209657 -0.727488 0
M  V30 36 H -1.309109 -0.863565 -0.940628 0
M  V30 37 H 0.725077 -0.546869 2.627039 0
M  V30 38 H 2.294341 -0.573670 4.366156 0
M  V30 39 H 2.110042 0.826018 6.289664 0
M  V30 40 H 0.288480 2.360456 6.555782 0
M  V30 41 H -1.368932 2.487309 4.873645 0
M  V30 42 H -3.079556 0.650233 0.175190 0
M  V30 43 H -5.054336 1.764258 -0.447318 0
M  V30 44 H -6.040599 3.471060 0.913622 0
M  V30 45 H -5.010698 4.109144 3.011420 0
M  V30 46 H -3.009504 3.020126 3.694008 0
M  V30 47 H 0.404385 -4.179681 -1.951987 0
M  V30 48 H 1.137827 -3.669630 -3.489624 0
M  V30 END ATOM
M  V30 BEGIN BOND
M  V30 1 2 1 2
M  V30 2 1 2 3
M  V30 3 1 2 4
M  V30 4 2 4 5
M  V30 5 1 5 6
M  V30 6 1 6 7
M  V30 7 1 7 8
M  V30 8 1 8 9
M  V30 9 1 9 10
M  V30 10 1 10 11
M  V30 11 1 11 12
M  V30 12 2 12 13 CFG=2
M  V30 13 1 13 14
M  V30 14 2 14 15
M  V30 15 1 15 16
M  V30 16 2 16 17
M  V30 17 1 17 18
M  V30 18 2 18 19
M  V30 19 1 13 20
M  V30 20 2 20 21
M  V30 21 1 21 22
M  V30 22 2 22 23
M  V30 23 1 23 24
M  V30 24 2 24 25
M  V30 25 1 8 26
M  V30 26 1 26 4
M  V30 27 1 19 14
M  V30 28 1 25 20
M  V30 29 1 3 27
M  V30 30 1 5 28
M  V30 31 1 6 29
M  V30 32 1 6 30
M  V30 33 1 7 31
M  V30 34 1 7 32
M  V30 35 1 9 33
M  V30 36 1 9 34
M  V30 37 1 10 35
M  V30 38 1 10 36
M  V30 39 1 15 37
M  V30 40 1 16 38
M  V30 41 1 17 39
M  V30 42 1 18 40
M  V30 43 1 19 41
M  V30 44 1 21 42
M  V30 45 1 22 43
M  V30 46 1 23 44
M  V30 47 1 24 45
M  V30 48 1 25 46
M  V30 49 1 26 47
M  V30 50 1 26 48
M  V30 END BOND
M  V30 END CTAB
M  END
>  <Dataset>  (124) 
ChEMBL_Kinases

>  <Ligand_Instance>  (124) 
nan

>  <PDB_ID>  (124) 
nan

>  <Standardized_SMILES>  (124) 
O=C(O)C1=CCCN(CCON=C(c2ccccc2)c2ccccc2)C1

>  <Name>  (124) 
nan

>  <Pocket>  (124) 
nan

>  <ATP_Site>  (124) 
nan

>  <Peripheral>  (124) 
nan

>  <Num_H_Atoms_ProtBoundConf>  (124) 
nan

>  <Num_Resolved_Atoms>  (124) 
nan

>  <Num_Not_Resolved_Atoms>  (124) 
nan

$$$$
CHEMBL4462082
     RDKit          3D

  0  0  0  0  0  0  0  0  0  0999 V3000
M  V30 BEGIN CTAB
M  V30 COUNTS 35 37 0 0 0
M  V30 BEGIN ATOM
M  V30 1 O 4.030148 -3.493947 3.893816 0
M  V30 2 C 3.053299 -3.663541 3.127185 0
M  V30 3 O 2.187550 -4.607274 3.635671 0
M  V30 4 C 2.877475 -2.960551 1.885247 0
M  V30 5 C 1.792960 -3.145959 1.051466 0
M  V30 6 C 1.609342 -2.483625 -0.146343 0
M  V30 7 C 2.584146 -1.573716 -0.528378 0
M  V30 8 N 2.476629 -0.816338 -1.731692 0
M  V30 9 C 1.052582 -0.393302 -1.941872 0
M  V30 10 N 0.393125 0.080764 -1.153912 0
M  V30 11 C -0.863262 0.504340 -1.195432 0
M  V30 12 C -1.561781 1.091943 -0.027852 0
M  V30 13 C -0.947486 1.230588 1.197308 0
M  V30 14 C -1.492876 1.760473 2.342776 0
M  V30 15 C -2.798618 2.175378 2.160487 0
M  V30 16 C -3.523432 2.089130 0.977398 0
M  V30 17 N -4.862737 2.543323 0.850632 0 CHG=1 VAL=4
M  V30 18 O -5.412113 2.425636 -0.272713 0
M  V30 19 O -5.556336 3.090186 1.878522 0 CHG=-1 VAL=1
M  V30 20 C -2.858069 1.529143 -0.121731 0
M  V30 21 C -1.485906 0.334486 -2.432543 0
M  V30 22 S -0.104993 -0.456362 -3.435616 0
M  V30 23 C 3.696015 -1.328615 0.244320 0
M  V30 24 C 3.793725 -2.039987 1.428774 0
M  V30 25 H 1.814392 -4.574309 4.576622 0
M  V30 26 H 0.998985 -3.862197 1.327984 0
M  V30 27 H 0.748182 -2.647746 -0.791185 0
M  V30 28 H 3.228451 -0.556504 -2.403383 0
M  V30 29 H 0.083444 0.871248 1.238177 0
M  V30 30 H -0.975848 1.854073 3.284239 0
M  V30 31 H -3.371095 2.620645 2.966732 0
M  V30 32 H -3.341755 1.424234 -1.082459 0
M  V30 33 H -2.464190 0.579047 -2.734952 0
M  V30 34 H 4.421173 -0.615841 -0.093028 0
M  V30 35 H 4.673034 -1.856281 2.055025 0
M  V30 END ATOM
M  V30 BEGIN BOND
M  V30 1 2 1 2
M  V30 2 1 2 3
M  V30 3 1 2 4
M  V30 4 2 4 5
M  V30 5 1 5 6
M  V30 6 2 6 7
M  V30 7 1 7 8
M  V30 8 1 8 9
M  V30 9 2 9 10
M  V30 10 1 10 11
M  V30 11 1 11 12
M  V30 12 2 12 13
M  V30 13 1 13 14
M  V30 14 2 14 15
M  V30 15 1 15 16
M  V30 16 1 16 17
M  V30 17 2 17 18
M  V30 18 1 17 19
M  V30 19 2 16 20
M  V30 20 2 11 21
M  V30 21 1 21 22
M  V30 22 1 7 23
M  V30 23 2 23 24
M  V30 24 1 24 4
M  V30 25 1 22 9
M  V30 26 1 20 12
M  V30 27 1 3 25
M  V30 28 1 5 26
M  V30 29 1 6 27
M  V30 30 1 8 28
M  V30 31 1 13 29
M  V30 32 1 14 30
M  V30 33 1 15 31
M  V30 34 1 20 32
M  V30 35 1 21 33
M  V30 36 1 23 34
M  V30 37 1 24 35
M  V30 END BOND
M  V30 END CTAB
M  END
>  <Dataset>  (125) 
ChEMBL_Kinases

>  <Ligand_Instance>  (125) 
nan

>  <PDB_ID>  (125) 
nan

>  <Standardized_SMILES>  (125) 
O=C(O)c1ccc(Nc2nc(-c3cccc([N+](=O)[O-])c3)cs2)cc1

>  <Name>  (125) 
nan

>  <Pocket>  (125) 
nan

>  <ATP_Site>  (125) 
nan

>  <Peripheral>  (125) 
nan

>  <Num_H_Atoms_ProtBoundConf>  (125) 
nan

>  <Num_Resolved_Atoms>  (125) 
nan

>  <Num_Not_Resolved_Atoms>  (125) 
nan

$$$$
CHEMBL4462056
     RDKit          3D

  0  0  0  0  0  0  0  0  0  0999 V3000
M  V30 BEGIN CTAB
M  V30 COUNTS 60 65 0 0 0
M  V30 BEGIN ATOM
M  V30 1 C 4.546652 -5.181045 5.327979 0
M  V30 2 C 5.261384 -4.178683 4.493880 0
M  V30 3 N 6.558099 -3.843347 4.343620 0
M  V30 4 O 6.631927 -2.878200 3.447792 0
M  V30 5 C 5.415446 -2.609798 3.041865 0
M  V30 6 C 5.141708 -1.588120 2.042806 0
M  V30 7 C 6.113539 -0.860354 1.388720 0
M  V30 8 C 5.787976 0.103300 0.423096 0
M  V30 9 C 4.467287 0.341026 0.109763 0
M  V30 10 N 3.857513 1.174804 -0.752078 0
M  V30 11 C 2.526949 1.020586 -0.683168 0
M  V30 12 N 1.337640 1.519613 -1.317902 0
M  V30 13 C 0.123527 1.760824 -0.560194 0
M  V30 14 C -1.031141 2.132473 -1.200667 0
M  V30 15 C -2.108470 2.376752 -0.358419 0
M  V30 16 C -3.406715 2.744066 -0.940645 0
M  V30 17 N -4.303588 1.665132 -1.193804 0
M  V30 18 C -4.635788 0.985806 0.014615 0
M  V30 19 C -5.461954 -0.293730 -0.227802 0
M  V30 20 N -4.584754 -1.122994 -1.049593 0
M  V30 21 C -4.035821 -2.251192 -0.381670 0
M  V30 22 O -4.474638 -2.238649 0.783418 0
M  V30 23 C -3.129129 -3.294310 -0.842430 0
M  V30 24 C -1.921599 -3.277768 -0.137474 0
M  V30 25 C -1.114185 -4.300832 -0.634157 0
M  V30 26 C -1.890024 -4.884904 -1.625721 0
M  V30 27 O -3.046444 -4.268254 -1.708207 0
M  V30 28 C -4.530939 -0.494581 -2.379322 0
M  V30 29 C -3.866865 0.865858 -2.281221 0
M  V30 30 C -1.971843 2.242401 1.026171 0
M  V30 31 C -0.780743 1.862850 1.621321 0
M  V30 32 N 0.257653 1.626604 0.791459 0
M  V30 33 N 2.295677 0.057838 0.252832 0
M  V30 34 C 3.472603 -0.369523 0.746535 0
M  V30 35 C 3.830968 -1.325130 1.705606 0
M  V30 36 N 4.518857 -3.392763 3.664017 0
M  V30 37 H 3.778641 -5.735058 4.709916 0
M  V30 38 H 5.233263 -5.918019 5.777606 0
M  V30 39 H 3.964539 -4.725621 6.151908 0
M  V30 40 H 7.150384 -1.045826 1.636268 0
M  V30 41 H 6.523386 0.678722 -0.092845 0
M  V30 42 H 1.344589 1.720123 -2.363561 0
M  V30 43 H -1.027069 2.216778 -2.260341 0
M  V30 44 H -3.846416 3.532479 -0.262384 0
M  V30 45 H -3.192971 3.263305 -1.920424 0
M  V30 46 H -5.286892 1.644293 0.630546 0
M  V30 47 H -3.757765 0.644320 0.605494 0
M  V30 48 H -5.651974 -0.713163 0.771789 0
M  V30 49 H -6.369664 -0.053271 -0.787358 0
M  V30 50 H -1.465987 -2.702376 0.662185 0
M  V30 51 H -0.132449 -4.712012 -0.459289 0
M  V30 52 H -1.788834 -5.709266 -2.341162 0
M  V30 53 H -5.560334 -0.422053 -2.765089 0
M  V30 54 H -3.928175 -1.117641 -3.064544 0
M  V30 55 H -4.167926 1.400783 -3.230360 0
M  V30 56 H -2.796576 0.687374 -2.364151 0
M  V30 57 H -2.759190 2.427747 1.744521 0
M  V30 58 H -0.644172 1.750715 2.689282 0
M  V30 59 H 1.429270 -0.389527 0.631631 0
M  V30 60 H 3.058233 -1.893526 2.214213 0
M  V30 END ATOM
M  V30 BEGIN BOND
M  V30 1 1 1 2
M  V30 2 2 2 3
M  V30 3 1 3 4
M  V30 4 1 4 5
M  V30 5 1 5 6
M  V30 6 2 6 7
M  V30 7 1 7 8
M  V30 8 2 8 9
M  V30 9 1 9 10
M  V30 10 2 10 11
M  V30 11 1 11 12
M  V30 12 1 12 13
M  V30 13 2 13 14
M  V30 14 1 14 15
M  V30 15 1 15 16
M  V30 16 1 16 17
M  V30 17 1 17 18
M  V30 18 1 18 19
M  V30 19 1 19 20
M  V30 20 1 20 21
M  V30 21 2 21 22
M  V30 22 1 21 23
M  V30 23 2 23 24
M  V30 24 1 24 25
M  V30 25 2 25 26
M  V30 26 1 26 27
M  V30 27 1 20 28
M  V30 28 1 28 29
M  V30 29 2 15 30
M  V30 30 1 30 31
M  V30 31 2 31 32
M  V30 32 1 11 33
M  V30 33 1 33 34
M  V30 34 2 34 35
M  V30 35 2 5 36
M  V30 36 1 36 2
M  V30 37 1 35 6
M  V30 38 1 34 9
M  V30 39 1 32 13
M  V30 40 1 29 17
M  V30 41 1 27 23
M  V30 42 1 1 37
M  V30 43 1 1 38
M  V30 44 1 1 39
M  V30 45 1 7 40
M  V30 46 1 8 41
M  V30 47 1 12 42
M  V30 48 1 14 43
M  V30 49 1 16 44
M  V30 50 1 16 45
M  V30 51 1 18 46
M  V30 52 1 18 47
M  V30 53 1 19 48
M  V30 54 1 19 49
M  V30 55 1 24 50
M  V30 56 1 25 51
M  V30 57 1 26 52
M  V30 58 1 28 53
M  V30 59 1 28 54
M  V30 60 1 29 55
M  V30 61 1 29 56
M  V30 62 1 30 57
M  V30 63 1 31 58
M  V30 64 1 33 59
M  V30 65 1 35 60
M  V30 END BOND
M  V30 END CTAB
M  END
>  <Dataset>  (126) 
ChEMBL_Kinases

>  <Ligand_Instance>  (126) 
nan

>  <PDB_ID>  (126) 
nan

>  <Standardized_SMILES>  (126) 
Cc1noc(-c2ccc3nc(Nc4cc(CN5CCN(C(=O)c6ccco6)CC5)ccn4)[nH]c3c2)n1

>  <Name>  (126) 
nan

>  <Pocket>  (126) 
nan

>  <ATP_Site>  (126) 
nan

>  <Peripheral>  (126) 
nan

>  <Num_H_Atoms_ProtBoundConf>  (126) 
nan

>  <Num_Resolved_Atoms>  (126) 
nan

>  <Num_Not_Resolved_Atoms>  (126) 
nan

$$$$
CHEMBL4462002
     RDKit          3D

  0  0  0  0  0  0  0  0  0  0999 V3000
M  V30 BEGIN CTAB
M  V30 COUNTS 41 43 0 0 0
M  V30 BEGIN ATOM
M  V30 1 C 1.107438 -4.588498 1.107523 0
M  V30 2 C 1.650636 -3.635041 2.108538 0
M  V30 3 C 2.438800 -4.078618 3.175926 0
M  V30 4 N 2.963366 -3.277608 4.117346 0
M  V30 5 C 2.737059 -1.949416 4.063950 0
M  V30 6 C 1.959185 -1.478697 3.017469 0
M  V30 7 C 1.410116 -2.281054 2.039625 0
M  V30 8 C 0.600775 -1.719373 0.965177 0
M  V30 9 N 0.366608 -0.397051 0.891775 0
M  V30 10 C -0.370103 0.188630 -0.069011 0
M  V30 11 N -0.582370 1.583578 -0.094650 0
M  V30 12 C 0.018226 2.392131 0.950067 0
M  V30 13 C -0.280789 3.859683 0.817233 0
M  V30 14 C 1.538873 2.246320 0.828056 0
M  V30 15 C -0.355014 1.909530 2.325207 0
M  V30 16 C -0.880858 -0.692390 -0.997931 0
M  V30 17 C -1.654228 -0.211328 -2.033729 0
M  V30 18 C -2.206489 -1.017271 -3.008092 0
M  V30 19 N -1.962474 -2.351390 -2.922715 0
M  V30 20 C -1.216880 -2.887364 -1.938870 0
M  V30 21 C -0.682672 -2.057914 -0.986157 0
M  V30 22 N 0.075916 -2.531709 0.029546 0
M  V30 23 H 1.508671 -4.427332 0.083577 0
M  V30 24 H -0.003775 -4.636907 1.130287 0
M  V30 25 H 1.422933 -5.626982 1.421957 0
M  V30 26 H 2.646513 -5.147730 3.256559 0
M  V30 27 H 3.156026 -1.302922 4.817236 0
M  V30 28 H 1.814236 -0.407544 3.030343 0
M  V30 29 H -1.123431 2.114637 -0.778253 0
M  V30 30 H 0.626879 4.500237 0.855300 0
M  V30 31 H -0.799297 4.113027 -0.122752 0
M  V30 32 H -0.960234 4.240522 1.627497 0
M  V30 33 H 1.969912 3.140584 1.340186 0
M  V30 34 H 1.850756 2.176390 -0.224571 0
M  V30 35 H 1.843744 1.385702 1.441136 0
M  V30 36 H -0.957765 0.979813 2.306331 0
M  V30 37 H -0.962561 2.700070 2.809802 0
M  V30 38 H 0.545518 1.791430 2.985975 0
M  V30 39 H -1.864852 0.828814 -2.130205 0
M  V30 40 H -2.818185 -0.595356 -3.818823 0
M  V30 41 H -1.017372 -3.947654 -1.862785 0
M  V30 END ATOM
M  V30 BEGIN BOND
M  V30 1 1 1 2
M  V30 2 2 2 3
M  V30 3 1 3 4
M  V30 4 2 4 5
M  V30 5 1 5 6
M  V30 6 2 6 7
M  V30 7 1 7 8
M  V30 8 2 8 9
M  V30 9 1 9 10
M  V30 10 1 10 11
M  V30 11 1 11 12
M  V30 12 1 12 13
M  V30 13 1 12 14
M  V30 14 1 12 15
M  V30 15 2 10 16
M  V30 16 1 16 17
M  V30 17 2 17 18
M  V30 18 1 18 19
M  V30 19 2 19 20
M  V30 20 1 20 21
M  V30 21 2 21 22
M  V30 22 1 7 2
M  V30 23 1 22 8
M  V30 24 1 21 16
M  V30 25 1 1 23
M  V30 26 1 1 24
M  V30 27 1 1 25
M  V30 28 1 3 26
M  V30 29 1 5 27
M  V30 30 1 6 28
M  V30 31 1 11 29
M  V30 32 1 13 30
M  V30 33 1 13 31
M  V30 34 1 13 32
M  V30 35 1 14 33
M  V30 36 1 14 34
M  V30 37 1 14 35
M  V30 38 1 15 36
M  V30 39 1 15 37
M  V30 40 1 15 38
M  V30 41 1 17 39
M  V30 42 1 18 40
M  V30 43 1 20 41
M  V30 END BOND
M  V30 END CTAB
M  END
>  <Dataset>  (127) 
ChEMBL_Kinases

>  <Ligand_Instance>  (127) 
nan

>  <PDB_ID>  (127) 
nan

>  <Standardized_SMILES>  (127) 
Cc1cnccc1-c1nc(NC(C)(C)C)c2ccncc2n1

>  <Name>  (127) 
nan

>  <Pocket>  (127) 
nan

>  <ATP_Site>  (127) 
nan

>  <Peripheral>  (127) 
nan

>  <Num_H_Atoms_ProtBoundConf>  (127) 
nan

>  <Num_Resolved_Atoms>  (127) 
nan

>  <Num_Not_Resolved_Atoms>  (127) 
nan

$$$$
CHEMBL4461970
     RDKit          3D

  0  0  0  0  0  0  0  0  0  0999 V3000
M  V30 BEGIN CTAB
M  V30 COUNTS 59 64 0 0 0
M  V30 BEGIN ATOM
M  V30 1 C 4.532557 -2.332779 -0.270238 0
M  V30 2 N 4.195092 -1.246400 -1.202502 0
M  V30 3 C 5.076982 -1.224265 -2.346138 0
M  V30 4 C 4.821782 -0.029163 -3.209152 0
M  V30 5 O 4.274821 1.016407 -2.399262 0
M  V30 6 C 3.227372 0.791662 -1.556410 0
M  V30 7 C 3.089803 -0.387055 -0.866882 0
M  V30 8 C 2.083315 -0.784900 0.038169 0
M  V30 9 N 1.214596 0.218230 0.143590 0
M  V30 10 N 1.247290 1.378944 -0.462788 0
M  V30 11 C 0.351809 2.412656 -0.333371 0
M  V30 12 C -0.789469 2.364002 0.563282 0
M  V30 13 C -0.850589 3.587350 1.247434 0
M  V30 14 C -1.645127 3.779324 2.397681 0
M  V30 15 C -2.359804 2.673711 2.798452 0
M  V30 16 C -3.175677 2.663892 3.902748 0
M  V30 17 C -3.921947 1.633459 4.396476 0
M  V30 18 C -3.870782 0.432652 3.715700 0
M  V30 19 C -3.065368 0.374968 2.591753 0
M  V30 20 N -2.989134 -0.728297 1.636962 0
M  V30 21 C -2.919424 -1.767526 0.741058 0
M  V30 22 C -2.523735 -3.124849 1.210383 0
M  V30 23 C -2.592162 -4.122789 0.049466 0
M  V30 24 C -1.537971 -3.855598 -0.961973 0
M  V30 25 C -0.147067 -3.951043 -0.371310 0
M  V30 26 C -0.206112 -4.099581 1.105304 0
M  V30 27 C -1.138805 -3.116972 1.800637 0
M  V30 28 C -2.334706 1.456531 2.157595 0
M  V30 29 N -1.548789 1.426451 1.108596 0
M  V30 30 N 0.804379 3.403990 -1.142584 0
M  V30 31 N 1.922799 2.968367 -1.725388 0
M  V30 32 C 2.226193 1.744015 -1.335714 0
M  V30 33 H 5.594604 -2.569032 -0.246355 0
M  V30 34 H 4.148997 -2.101712 0.753947 0
M  V30 35 H 3.972978 -3.281044 -0.552937 0
M  V30 36 H 4.819649 -2.162150 -2.919397 0
M  V30 37 H 6.154401 -1.339615 -2.017181 0
M  V30 38 H 4.067473 -0.252273 -4.000041 0
M  V30 39 H 5.817187 0.285438 -3.647847 0
M  V30 40 H 2.200208 -1.752775 0.449672 0
M  V30 41 H -0.319854 4.548721 1.128393 0
M  V30 42 H -1.772101 4.656758 2.993935 0
M  V30 43 H -3.292218 3.535179 4.532636 0
M  V30 44 H -4.567226 1.601751 5.253864 0
M  V30 45 H -4.418270 -0.440453 4.030267 0
M  V30 46 H -3.605353 -1.418130 2.181971 0
M  V30 47 H -3.846500 -1.907841 0.076474 0
M  V30 48 H -2.153170 -1.478582 -0.080171 0
M  V30 49 H -3.228410 -3.494293 1.975914 0
M  V30 50 H -3.594256 -3.981786 -0.370469 0
M  V30 51 H -2.527765 -5.166250 0.390378 0
M  V30 52 H -1.615564 -4.493267 -1.851842 0
M  V30 53 H -1.641023 -2.812493 -1.344085 0
M  V30 54 H 0.345860 -4.816520 -0.857187 0
M  V30 55 H 0.414681 -3.037511 -0.697157 0
M  V30 56 H -0.644170 -5.129127 1.328241 0
M  V30 57 H 0.790236 -4.134309 1.548632 0
M  V30 58 H -0.711403 -2.086489 1.646698 0
M  V30 59 H -1.172242 -3.342520 2.881618 0
M  V30 END ATOM
M  V30 BEGIN BOND
M  V30 1 1 1 2
M  V30 2 1 2 3
M  V30 3 1 3 4
M  V30 4 1 4 5
M  V30 5 1 5 6
M  V30 6 2 6 7
M  V30 7 1 7 8
M  V30 8 2 8 9
M  V30 9 1 9 10
M  V30 10 1 10 11
M  V30 11 1 11 12
M  V30 12 2 12 13
M  V30 13 1 13 14
M  V30 14 2 14 15
M  V30 15 1 15 16
M  V30 16 2 16 17
M  V30 17 1 17 18
M  V30 18 2 18 19
M  V30 19 1 19 20
M  V30 20 1 20 21
M  V30 21 1 21 22
M  V30 22 1 22 23
M  V30 23 1 23 24
M  V30 24 1 24 25
M  V30 25 1 25 26
M  V30 26 1 26 27
M  V30 27 1 19 28
M  V30 28 2 28 29
M  V30 29 2 11 30
M  V30 30 1 30 31
M  V30 31 2 31 32
M  V30 32 1 7 2
M  V30 33 1 32 10
M  V30 34 1 32 6
M  V30 35 1 29 12
M  V30 36 1 28 15
M  V30 37 1 27 22
M  V30 38 1 1 33
M  V30 39 1 1 34
M  V30 40 1 1 35
M  V30 41 1 3 36
M  V30 42 1 3 37
M  V30 43 1 4 38
M  V30 44 1 4 39
M  V30 45 1 8 40
M  V30 46 1 13 41
M  V30 47 1 14 42
M  V30 48 1 16 43
M  V30 49 1 17 44
M  V30 50 1 18 45
M  V30 51 1 20 46
M  V30 52 1 21 47
M  V30 53 1 21 48
M  V30 54 1 22 49
M  V30 55 1 23 50
M  V30 56 1 23 51
M  V30 57 1 24 52
M  V30 58 1 24 53
M  V30 59 1 25 54
M  V30 60 1 25 55
M  V30 61 1 26 56
M  V30 62 1 26 57
M  V30 63 1 27 58
M  V30 64 1 27 59
M  V30 END BOND
M  V30 END CTAB
M  END
>  <Dataset>  (128) 
ChEMBL_Kinases

>  <Ligand_Instance>  (128) 
nan

>  <PDB_ID>  (128) 
nan

>  <Standardized_SMILES>  (128) 
CN1CCOc2c1cnn1c(-c3ccc4cccc(NCC5CCCCC5)c4n3)nnc21

>  <Name>  (128) 
nan

>  <Pocket>  (128) 
nan

>  <ATP_Site>  (128) 
nan

>  <Peripheral>  (128) 
nan

>  <Num_H_Atoms_ProtBoundConf>  (128) 
nan

>  <Num_Resolved_Atoms>  (128) 
nan

>  <Num_Not_Resolved_Atoms>  (128) 
nan

$$$$
CHEMBL4461952
     RDKit          3D

  0  0  0  0  0  0  0  0  0  0999 V3000
M  V30 BEGIN CTAB
M  V30 COUNTS 43 44 0 0 0
M  V30 BEGIN ATOM
M  V30 1 C 3.552610 1.975629 4.876217 0
M  V30 2 O 4.016566 0.706915 4.430105 0
M  V30 3 C 3.460500 0.066797 3.339726 0
M  V30 4 C 2.406990 0.693846 2.662902 0
M  V30 5 C 1.787057 0.150415 1.574255 0
M  V30 6 C 2.154967 -1.060398 1.060560 0
M  V30 7 C 1.632069 -1.816402 -0.049294 0
M  V30 8 O 2.281823 -2.666063 -0.647810 0
M  V30 9 C 0.244820 -1.591095 -0.524319 0
M  V30 10 S -1.013339 -0.484867 0.136315 0
M  V30 11 C -2.273236 -0.926559 -1.043251 0
M  V30 12 N -3.547374 -0.361625 -1.028737 0
M  V30 13 C -3.811397 0.659525 -0.002727 0
M  V30 14 C -5.241965 1.109158 -0.063204 0
M  V30 15 C -2.851276 1.816134 -0.197690 0
M  V30 16 C -1.676326 -1.864318 -1.849210 0
M  V30 17 C -2.493485 -2.408428 -2.928233 0
M  V30 18 N -3.152162 -2.836142 -3.815362 0
M  V30 19 C -0.381830 -2.228253 -1.608806 0
M  V30 20 N 0.278460 -3.186811 -2.412383 0
M  V30 21 C 3.206180 -1.697293 1.727420 0
M  V30 22 C 3.827409 -1.148171 2.822031 0
M  V30 23 O 4.875977 -1.807478 3.471484 0
M  V30 24 C 5.355951 -3.061819 3.053445 0
M  V30 25 H 3.548908 2.669394 4.019894 0
M  V30 26 H 4.211569 2.322623 5.695722 0
M  V30 27 H 2.541971 1.827156 5.261451 0
M  V30 28 H 2.082853 1.660957 3.042693 0
M  V30 29 H 0.988383 0.646934 1.064886 0
M  V30 30 H -4.223423 -0.693355 -1.737284 0
M  V30 31 H -3.603991 0.209945 0.976536 0
M  V30 32 H -5.839150 0.343233 -0.558742 0
M  V30 33 H -5.349641 2.104629 -0.560243 0
M  V30 34 H -5.615264 1.221656 0.979030 0
M  V30 35 H -3.358750 2.723939 -0.593671 0
M  V30 36 H -2.315742 2.022182 0.748596 0
M  V30 37 H -2.111788 1.519324 -0.951983 0
M  V30 38 H 1.179595 -2.761596 -2.816915 0
M  V30 39 H 1.120911 -3.259332 -2.984824 0
M  V30 40 H 3.587932 -2.660793 1.409934 0
M  V30 41 H 4.511431 -3.759635 2.810153 0
M  V30 42 H 5.901037 -3.592518 3.875003 0
M  V30 43 H 6.079138 -2.956820 2.225120 0
M  V30 END ATOM
M  V30 BEGIN BOND
M  V30 1 1 1 2
M  V30 2 1 2 3
M  V30 3 2 3 4
M  V30 4 1 4 5
M  V30 5 2 5 6
M  V30 6 1 6 7
M  V30 7 2 7 8
M  V30 8 1 7 9
M  V30 9 1 9 10
M  V30 10 1 10 11
M  V30 11 1 11 12
M  V30 12 1 12 13
M  V30 13 1 13 14
M  V30 14 1 13 15
M  V30 15 2 11 16
M  V30 16 1 16 17
M  V30 17 3 17 18
M  V30 18 1 16 19
M  V30 19 1 19 20
M  V30 20 1 6 21
M  V30 21 2 21 22
M  V30 22 1 22 23
M  V30 23 1 23 24
M  V30 24 1 22 3
M  V30 25 2 19 9
M  V30 26 1 1 25
M  V30 27 1 1 26
M  V30 28 1 1 27
M  V30 29 1 4 28
M  V30 30 1 5 29
M  V30 31 1 12 30
M  V30 32 1 13 31
M  V30 33 1 14 32
M  V30 34 1 14 33
M  V30 35 1 14 34
M  V30 36 1 15 35
M  V30 37 1 15 36
M  V30 38 1 15 37
M  V30 39 1 20 38
M  V30 40 1 20 39
M  V30 41 1 21 40
M  V30 42 1 24 41
M  V30 43 1 24 42
M  V30 44 1 24 43
M  V30 END BOND
M  V30 END CTAB
M  END
>  <Dataset>  (129) 
ChEMBL_Kinases

>  <Ligand_Instance>  (129) 
nan

>  <PDB_ID>  (129) 
nan

>  <Standardized_SMILES>  (129) 
COc1ccc(C(=O)c2sc(NC(C)C)c(C#N)c2N)cc1OC

>  <Name>  (129) 
nan

>  <Pocket>  (129) 
nan

>  <ATP_Site>  (129) 
nan

>  <Peripheral>  (129) 
nan

>  <Num_H_Atoms_ProtBoundConf>  (129) 
nan

>  <Num_Resolved_Atoms>  (129) 
nan

>  <Num_Not_Resolved_Atoms>  (129) 
nan

$$$$
CHEMBL4461940
     RDKit          3D

  0  0  0  0  0  0  0  0  0  0999 V3000
M  V30 BEGIN CTAB
M  V30 COUNTS 73 77 0 0 0
M  V30 BEGIN ATOM
M  V30 1 C 5.733094 -3.965124 4.593875 0
M  V30 2 O 4.500765 -4.512190 4.168795 0
M  V30 3 C 3.811246 -4.162415 3.041118 0
M  V30 4 C 2.612107 -4.853025 2.844588 0
M  V30 5 C 1.800412 -4.614492 1.754542 0
M  V30 6 C 2.179399 -3.663987 0.821910 0
M  V30 7 O 1.429354 -3.382871 -0.268103 0
M  V30 8 C 0.547842 -2.340880 -0.392875 0
M  V30 9 N -0.048994 -2.377077 -1.595787 0
M  V30 10 C -0.963341 -1.470129 -1.993060 0
M  V30 11 N -1.598990 -1.540456 -3.261367 0
M  V30 12 C -2.451397 -0.616464 -3.919548 0
M  V30 13 C -2.656506 0.675843 -3.482770 0
M  V30 14 C -3.512886 1.533622 -4.156577 0
M  V30 15 C -4.167041 1.083100 -5.280080 0
M  V30 16 N -5.045864 1.933806 -5.999922 0
M  V30 17 C -5.980851 1.540585 -7.071675 0
M  V30 18 C -7.368171 1.896339 -6.578301 0
M  V30 19 C -7.361089 2.406231 -5.163267 0
M  V30 20 C -6.398533 3.538404 -4.932592 0
M  V30 21 C -5.119716 3.361859 -5.741006 0
M  V30 22 N -3.952637 -0.176507 -5.687059 0
M  V30 23 C -3.133234 -1.002451 -5.045050 0
M  V30 24 N -1.272137 -0.495988 -1.126070 0
M  V30 25 C -0.746439 -0.352682 0.100255 0
M  V30 26 C 0.179871 -1.315344 0.441016 0
M  V30 27 N 0.796409 -1.278738 1.700972 0
M  V30 28 C 0.744129 -1.728666 3.037561 0
M  V30 29 O -0.242597 -2.487740 3.261336 0
M  V30 30 C 1.755417 -1.326263 4.010515 0
M  V30 31 C 2.766040 -0.399507 3.884307 0
M  V30 32 C 3.624417 -0.200299 4.940747 0
M  V30 33 O 4.640774 0.728063 4.822863 0
M  V30 34 C 4.852648 1.493327 3.667389 0
M  V30 35 C 3.529843 -0.887677 6.139955 0
M  V30 36 C 2.503182 -1.812821 6.236549 0
M  V30 37 O 2.395338 -2.519596 7.442757 0
M  V30 38 C 3.290340 -2.303456 8.511970 0
M  V30 39 C 1.641166 -2.025645 5.202892 0
M  V30 40 C 3.366489 -2.952489 0.978915 0
M  V30 41 C 4.131833 -3.234386 2.085681 0
M  V30 42 H 5.623303 -2.852514 4.756497 0
M  V30 43 H 6.561741 -4.109872 3.888378 0
M  V30 44 H 5.982736 -4.410948 5.589482 0
M  V30 45 H 2.269046 -5.606697 3.544232 0
M  V30 46 H 0.867202 -5.181551 1.642468 0
M  V30 47 H -1.400330 -2.446295 -3.781714 0
M  V30 48 H -2.159187 1.060996 -2.610199 0
M  V30 49 H -3.640914 2.546235 -3.767447 0
M  V30 50 H -5.848588 0.499590 -7.356778 0
M  V30 51 H -5.766224 2.190266 -7.946409 0
M  V30 52 H -7.962019 0.959666 -6.585856 0
M  V30 53 H -7.881977 2.615546 -7.237456 0
M  V30 54 H -8.380759 2.770588 -4.927780 0
M  V30 55 H -7.174141 1.550366 -4.453846 0
M  V30 56 H -6.079523 3.487338 -3.866504 0
M  V30 57 H -6.826492 4.540937 -5.093957 0
M  V30 58 H -4.237835 3.776496 -5.254266 0
M  V30 59 H -5.295202 3.941670 -6.695854 0
M  V30 60 H -3.073254 -1.979437 -5.497058 0
M  V30 61 H -0.965370 0.404542 0.817492 0
M  V30 62 H 1.623072 -0.641593 1.471204 0
M  V30 63 H 2.792730 0.104121 2.937991 0
M  V30 64 H 5.588577 1.051419 2.995202 0
M  V30 65 H 3.906513 1.786194 3.138010 0
M  V30 66 H 5.295217 2.466104 4.014427 0
M  V30 67 H 4.244685 -0.667725 6.920826 0
M  V30 68 H 3.128746 -1.377243 9.064662 0
M  V30 69 H 3.225467 -3.209342 9.177234 0
M  V30 70 H 4.354167 -2.281344 8.146743 0
M  V30 71 H 0.875937 -2.777995 5.403458 0
M  V30 72 H 3.720338 -2.200917 0.287560 0
M  V30 73 H 5.061381 -2.706040 2.246988 0
M  V30 END ATOM
M  V30 BEGIN BOND
M  V30 1 1 1 2
M  V30 2 1 2 3
M  V30 3 2 3 4
M  V30 4 1 4 5
M  V30 5 2 5 6
M  V30 6 1 6 7
M  V30 7 1 7 8
M  V30 8 2 8 9
M  V30 9 1 9 10
M  V30 10 1 10 11
M  V30 11 1 11 12
M  V30 12 2 12 13
M  V30 13 1 13 14
M  V30 14 2 14 15
M  V30 15 1 15 16
M  V30 16 1 16 17
M  V30 17 1 17 18
M  V30 18 1 18 19
M  V30 19 1 19 20
M  V30 20 1 20 21
M  V30 21 1 15 22
M  V30 22 2 22 23
M  V30 23 2 10 24
M  V30 24 1 24 25
M  V30 25 2 25 26
M  V30 26 1 26 27
M  V30 27 1 27 28
M  V30 28 2 28 29
M  V30 29 1 28 30
M  V30 30 2 30 31
M  V30 31 1 31 32
M  V30 32 1 32 33
M  V30 33 1 33 34
M  V30 34 2 32 35
M  V30 35 1 35 36
M  V30 36 1 36 37
M  V30 37 1 37 38
M  V30 38 2 36 39
M  V30 39 1 6 40
M  V30 40 2 40 41
M  V30 41 1 41 3
M  V30 42 1 26 8
M  V30 43 1 39 30
M  V30 44 1 23 12
M  V30 45 1 21 16
M  V30 46 1 1 42
M  V30 47 1 1 43
M  V30 48 1 1 44
M  V30 49 1 4 45
M  V30 50 1 5 46
M  V30 51 1 11 47
M  V30 52 1 13 48
M  V30 53 1 14 49
M  V30 54 1 17 50
M  V30 55 1 17 51
M  V30 56 1 18 52
M  V30 57 1 18 53
M  V30 58 1 19 54
M  V30 59 1 19 55
M  V30 60 1 20 56
M  V30 61 1 20 57
M  V30 62 1 21 58
M  V30 63 1 21 59
M  V30 64 1 23 60
M  V30 65 1 25 61
M  V30 66 1 27 62
M  V30 67 1 31 63
M  V30 68 1 34 64
M  V30 69 1 34 65
M  V30 70 1 34 66
M  V30 71 1 35 67
M  V30 72 1 38 68
M  V30 73 1 38 69
M  V30 74 1 38 70
M  V30 75 1 39 71
M  V30 76 1 40 72
M  V30 77 1 41 73
M  V30 END BOND
M  V30 END CTAB
M  END
>  <Dataset>  (130) 
ChEMBL_Kinases

>  <Ligand_Instance>  (130) 
nan

>  <PDB_ID>  (130) 
nan

>  <Standardized_SMILES>  (130) 
COc1ccc(Oc2nc(Nc3ccc(N4CCCCC4)nc3)ncc2NC(=O)c2cc(OC)cc(OC)c2)cc1

>  <Name>  (130) 
nan

>  <Pocket>  (130) 
nan

>  <ATP_Site>  (130) 
nan

>  <Peripheral>  (130) 
nan

>  <Num_H_Atoms_ProtBoundConf>  (130) 
nan

>  <Num_Resolved_Atoms>  (130) 
nan

>  <Num_Not_Resolved_Atoms>  (130) 
nan

$$$$
CHEMBL4461911
     RDKit          3D

  0  0  0  0  0  0  0  0  0  0999 V3000
M  V30 BEGIN CTAB
M  V30 COUNTS 71 75 0 0 0
M  V30 BEGIN ATOM
M  V30 1 C 7.607597 -0.059102 2.765166 0
M  V30 2 O 6.667801 -1.071059 2.585500 0
M  V30 3 C 5.304966 -0.954827 2.543414 0
M  V30 4 C 4.748717 0.295665 2.689314 0
M  V30 5 C 3.388263 0.451108 2.652943 0
M  V30 6 C 2.584036 -0.672110 2.467232 0
M  V30 7 O 1.193908 -0.734221 2.400418 0
M  V30 8 C 0.484943 -0.642258 1.217155 0
M  V30 9 N 1.105667 -0.507579 0.037677 0
M  V30 10 C 0.424194 -0.420178 -1.114716 0
M  V30 11 N 1.119932 -0.309876 -2.347438 0
M  V30 12 C 0.592634 -0.101850 -3.646663 0
M  V30 13 C 1.355101 -0.302297 -4.781096 0
M  V30 14 C 0.841414 -0.080926 -6.041875 0
M  V30 15 C -0.466297 0.355606 -6.232109 0
M  V30 16 N -1.064004 0.593131 -7.490607 0
M  V30 17 C -2.279575 1.385747 -7.580676 0
M  V30 18 C -3.383052 0.411367 -7.979354 0
M  V30 19 O -3.023107 -0.305715 -9.104543 0
M  V30 20 C -1.862916 0.119182 -9.715555 0
M  V30 21 C -0.655175 0.142263 -8.800892 0
M  V30 22 N -1.210741 0.552557 -5.129773 0
M  V30 23 C -0.693731 0.330219 -3.894116 0
M  V30 24 N -0.913946 -0.474240 -1.025442 0
M  V30 25 C -1.610231 -0.608545 0.115353 0
M  V30 26 C -0.913650 -0.697926 1.302121 0
M  V30 27 N -1.483105 -0.856512 2.591317 0
M  V30 28 C -1.745457 -1.944489 3.452209 0
M  V30 29 O -1.425661 -3.119099 3.046870 0
M  V30 30 C -2.360598 -1.683282 4.755440 0
M  V30 31 C -2.789369 -0.436852 5.235874 0
M  V30 32 C -3.339243 -0.374328 6.519191 0
M  V30 33 O -3.699128 0.930281 6.808325 0
M  V30 34 C -4.279033 1.307017 8.030149 0
M  V30 35 C -3.454630 -1.524101 7.295499 0
M  V30 36 C -3.022031 -2.739608 6.794978 0
M  V30 37 O -3.219375 -3.753982 7.716558 0
M  V30 38 C -2.913395 -5.098782 7.576477 0
M  V30 39 C -2.489926 -2.800216 5.552377 0
M  V30 40 C 3.168838 -1.933238 2.320648 0
M  V30 41 C 4.554451 -2.097452 2.356694 0
M  V30 42 H 7.870367 -0.043320 3.859160 0
M  V30 43 H 7.257072 0.961501 2.532539 0
M  V30 44 H 8.579033 -0.300371 2.242883 0
M  V30 45 H 5.260771 1.218962 2.835539 0
M  V30 46 H 2.739106 1.315511 2.745453 0
M  V30 47 H 2.179879 -0.393613 -2.303407 0
M  V30 48 H 2.372938 -0.642010 -4.626910 0
M  V30 49 H 1.455613 -0.240436 -6.921697 0
M  V30 50 H -2.575388 1.831646 -6.616708 0
M  V30 51 H -2.198796 2.159749 -8.372007 0
M  V30 52 H -3.535064 -0.313668 -7.125429 0
M  V30 53 H -4.347071 0.945551 -8.130386 0
M  V30 54 H -1.661747 -0.597156 -10.567043 0
M  V30 55 H -1.980904 1.115385 -10.205625 0
M  V30 56 H 0.097718 0.797496 -9.286537 0
M  V30 57 H -0.296728 -0.915171 -8.764896 0
M  V30 58 H -1.379083 0.524205 -3.090588 0
M  V30 59 H -2.688343 -0.652610 0.173265 0
M  V30 60 H -1.690522 0.144254 2.783183 0
M  V30 61 H -2.650689 0.369484 4.547430 0
M  V30 62 H -4.553371 0.491936 8.701109 0
M  V30 63 H -5.147831 1.985056 7.817372 0
M  V30 64 H -3.561224 1.954526 8.609520 0
M  V30 65 H -3.894887 -1.345571 8.264413 0
M  V30 66 H -2.548936 -5.274205 6.543857 0
M  V30 67 H -3.750613 -5.784815 7.812141 0
M  V30 68 H -2.014905 -5.297716 8.223627 0
M  V30 69 H -2.175284 -3.782209 5.230649 0
M  V30 70 H 2.611141 -2.854048 2.171552 0
M  V30 71 H 5.019938 -3.077262 2.243098 0
M  V30 END ATOM
M  V30 BEGIN BOND
M  V30 1 1 1 2
M  V30 2 1 2 3
M  V30 3 2 3 4
M  V30 4 1 4 5
M  V30 5 2 5 6
M  V30 6 1 6 7
M  V30 7 1 7 8
M  V30 8 2 8 9
M  V30 9 1 9 10
M  V30 10 1 10 11
M  V30 11 1 11 12
M  V30 12 2 12 13
M  V30 13 1 13 14
M  V30 14 2 14 15
M  V30 15 1 15 16
M  V30 16 1 16 17
M  V30 17 1 17 18
M  V30 18 1 18 19
M  V30 19 1 19 20
M  V30 20 1 20 21
M  V30 21 1 15 22
M  V30 22 2 22 23
M  V30 23 2 10 24
M  V30 24 1 24 25
M  V30 25 2 25 26
M  V30 26 1 26 27
M  V30 27 1 27 28
M  V30 28 2 28 29
M  V30 29 1 28 30
M  V30 30 2 30 31
M  V30 31 1 31 32
M  V30 32 1 32 33
M  V30 33 1 33 34
M  V30 34 2 32 35
M  V30 35 1 35 36
M  V30 36 1 36 37
M  V30 37 1 37 38
M  V30 38 2 36 39
M  V30 39 1 6 40
M  V30 40 2 40 41
M  V30 41 1 41 3
M  V30 42 1 26 8
M  V30 43 1 39 30
M  V30 44 1 23 12
M  V30 45 1 21 16
M  V30 46 1 1 42
M  V30 47 1 1 43
M  V30 48 1 1 44
M  V30 49 1 4 45
M  V30 50 1 5 46
M  V30 51 1 11 47
M  V30 52 1 13 48
M  V30 53 1 14 49
M  V30 54 1 17 50
M  V30 55 1 17 51
M  V30 56 1 18 52
M  V30 57 1 18 53
M  V30 58 1 20 54
M  V30 59 1 20 55
M  V30 60 1 21 56
M  V30 61 1 21 57
M  V30 62 1 23 58
M  V30 63 1 25 59
M  V30 64 1 27 60
M  V30 65 1 31 61
M  V30 66 1 34 62
M  V30 67 1 34 63
M  V30 68 1 34 64
M  V30 69 1 35 65
M  V30 70 1 38 66
M  V30 71 1 38 67
M  V30 72 1 38 68
M  V30 73 1 39 69
M  V30 74 1 40 70
M  V30 75 1 41 71
M  V30 END BOND
M  V30 END CTAB
M  END
>  <Dataset>  (131) 
ChEMBL_Kinases

>  <Ligand_Instance>  (131) 
nan

>  <PDB_ID>  (131) 
nan

>  <Standardized_SMILES>  (131) 
COc1ccc(Oc2nc(Nc3ccc(N4CCOCC4)nc3)ncc2NC(=O)c2cc(OC)cc(OC)c2)cc1

>  <Name>  (131) 
nan

>  <Pocket>  (131) 
nan

>  <ATP_Site>  (131) 
nan

>  <Peripheral>  (131) 
nan

>  <Num_H_Atoms_ProtBoundConf>  (131) 
nan

>  <Num_Resolved_Atoms>  (131) 
nan

>  <Num_Not_Resolved_Atoms>  (131) 
nan

$$$$
CHEMBL4740478
     RDKit          3D

  0  0  0  0  0  0  0  0  0  0999 V3000
M  V30 BEGIN CTAB
M  V30 COUNTS 54 58 0 0 0
M  V30 BEGIN ATOM
M  V30 1 O 5.571604 -4.613111 4.182855 0
M  V30 2 S 4.493952 -3.934783 3.370042 0
M  V30 3 O 3.458605 -3.425467 4.339499 0
M  V30 4 N 5.187062 -2.577421 2.576117 0
M  V30 5 C 4.443495 -1.622508 1.827194 0
M  V30 6 C 4.942529 -1.202284 0.608810 0
M  V30 7 C 4.176153 -0.261682 -0.079893 0
M  V30 8 C 2.990129 0.268000 0.348879 0
M  V30 9 C 2.233275 1.247021 -0.423990 0
M  V30 10 N 1.053374 1.756019 0.036522 0
M  V30 11 C 0.587253 2.638375 -0.901902 0
M  V30 12 C -0.677555 3.348522 -0.714722 0
M  V30 13 C -0.959039 4.586308 -1.250812 0
M  V30 14 C -2.203849 5.111894 -0.994517 0
M  V30 15 N -3.186444 4.541801 -0.269939 0
M  V30 16 C -2.959373 3.316120 0.283506 0
M  V30 17 N -3.754297 2.430898 1.077914 0
M  V30 18 C -4.300941 1.253028 0.499467 0
M  V30 19 C -4.186150 0.974651 -0.843852 0
M  V30 20 C -4.734779 -0.219332 -1.285439 0
M  V30 21 C -5.375121 -1.119780 -0.459184 0
M  V30 22 O -5.920550 -2.314851 -0.908205 0
M  V30 23 C -5.128028 -3.490144 -0.928288 0
M  V30 24 F -5.872595 -4.539996 -1.405066 0
M  V30 25 F -4.664998 -3.752597 0.328631 0
M  V30 26 F -4.098248 -3.288596 -1.850433 0
M  V30 27 C -5.485331 -0.834032 0.876862 0
M  V30 28 C -4.947203 0.351225 1.346359 0
M  V30 29 C -1.698191 2.753359 0.040310 0
M  V30 30 N 1.495448 2.630795 -1.886488 0
M  V30 31 O 2.457428 1.802762 -1.582965 0
M  V30 32 C 2.556598 -0.198078 1.571081 0
M  V30 33 C 3.255729 -1.124562 2.309934 0
M  V30 34 C 3.720199 -5.009661 2.271937 0
M  V30 35 C 3.450521 -5.154594 0.916053 0
M  V30 36 C 2.759831 -6.239946 0.465061 0
M  V30 37 C 2.328758 -7.217705 1.454741 0
M  V30 38 S 3.005262 -6.424778 3.038338 0
M  V30 39 H 6.228228 -2.394808 2.614130 0
M  V30 40 H 5.880117 -1.576864 0.198833 0
M  V30 41 H 4.533934 0.103678 -1.054130 0
M  V30 42 H -0.214890 5.084030 -1.834669 0
M  V30 43 H -2.491239 6.088666 -1.388656 0
M  V30 44 H -3.916934 2.673257 2.077856 0
M  V30 45 H -3.687521 1.662703 -1.520136 0
M  V30 46 H -4.673607 -0.491969 -2.336657 0
M  V30 47 H -5.975101 -1.479885 1.621632 0
M  V30 48 H -5.030525 0.589849 2.419198 0
M  V30 49 H -1.419133 1.775543 0.437150 0
M  V30 50 H 1.608832 0.180193 1.983124 0
M  V30 51 H 2.832146 -1.441121 3.277122 0
M  V30 52 H 3.851488 -4.329879 0.356715 0
M  V30 53 H 2.557981 -6.338084 -0.588267 0
M  V30 54 H 1.792668 -8.073632 1.161035 0
M  V30 END ATOM
M  V30 BEGIN BOND
M  V30 1 2 1 2
M  V30 2 2 2 3
M  V30 3 1 2 4
M  V30 4 1 4 5
M  V30 5 2 5 6
M  V30 6 1 6 7
M  V30 7 2 7 8
M  V30 8 1 8 9
M  V30 9 2 9 10
M  V30 10 1 10 11
M  V30 11 1 11 12
M  V30 12 2 12 13
M  V30 13 1 13 14
M  V30 14 2 14 15
M  V30 15 1 15 16
M  V30 16 1 16 17
M  V30 17 1 17 18
M  V30 18 2 18 19
M  V30 19 1 19 20
M  V30 20 2 20 21
M  V30 21 1 21 22
M  V30 22 1 22 23
M  V30 23 1 23 24
M  V30 24 1 23 25
M  V30 25 1 23 26
M  V30 26 1 21 27
M  V30 27 2 27 28
M  V30 28 2 16 29
M  V30 29 2 11 30
M  V30 30 1 30 31
M  V30 31 1 8 32
M  V30 32 2 32 33
M  V30 33 1 2 34
M  V30 34 2 34 35
M  V30 35 1 35 36
M  V30 36 2 36 37
M  V30 37 1 37 38
M  V30 38 1 33 5
M  V30 39 1 38 34
M  V30 40 1 31 9
M  V30 41 1 29 12
M  V30 42 1 28 18
M  V30 43 1 4 39
M  V30 44 1 6 40
M  V30 45 1 7 41
M  V30 46 1 13 42
M  V30 47 1 14 43
M  V30 48 1 17 44
M  V30 49 1 19 45
M  V30 50 1 20 46
M  V30 51 1 27 47
M  V30 52 1 28 48
M  V30 53 1 29 49
M  V30 54 1 32 50
M  V30 55 1 33 51
M  V30 56 1 35 52
M  V30 57 1 36 53
M  V30 58 1 37 54
M  V30 END BOND
M  V30 END CTAB
M  END
>  <Dataset>  (132) 
ChEMBL_Kinases

>  <Ligand_Instance>  (132) 
nan

>  <PDB_ID>  (132) 
nan

>  <Standardized_SMILES>  (132) 
O=S(=O)(Nc1ccc(-c2nc(-c3ccnc(Nc4ccc(OC(F)(F)F)cc4)c3)no2)cc1)c1cccs1

>  <Name>  (132) 
nan

>  <Pocket>  (132) 
nan

>  <ATP_Site>  (132) 
nan

>  <Peripheral>  (132) 
nan

>  <Num_H_Atoms_ProtBoundConf>  (132) 
nan

>  <Num_Resolved_Atoms>  (132) 
nan

>  <Num_Not_Resolved_Atoms>  (132) 
nan

$$$$
CHEMBL4461790
     RDKit          3D

  0  0  0  0  0  0  0  0  0  0999 V3000
M  V30 BEGIN CTAB
M  V30 COUNTS 49 51 0 0 0
M  V30 BEGIN ATOM
M  V30 1 C 3.054336 -3.293487 3.164016 0
M  V30 2 N 1.976717 -3.515058 2.220551 0
M  V30 3 C 1.416391 -4.817902 2.447329 0
M  V30 4 C 2.413620 -3.327744 0.865978 0
M  V30 5 C 2.731831 -1.928889 0.495650 0
M  V30 6 C 1.633778 -0.932416 0.571868 0
M  V30 7 C 1.104849 -0.836989 1.978534 0
M  V30 8 C 2.144371 0.444459 0.210086 0
M  V30 9 N 0.510383 -1.314228 -0.293576 0
M  V30 10 C -0.664971 -0.527602 -0.436711 0
M  V30 11 N -0.826334 0.631486 0.218580 0
M  V30 12 C -1.906165 1.427370 0.134062 0
M  V30 13 C -2.007296 2.675143 0.883282 0
M  V30 14 C -0.999575 3.101656 1.721580 0
M  V30 15 C -1.083938 4.291707 2.445660 0
M  V30 16 N -2.166488 5.066781 2.344584 0
M  V30 17 C -3.159767 4.655470 1.524196 0
M  V30 18 F -4.241392 5.500288 1.470279 0
M  V30 19 C -3.139560 3.478892 0.772855 0
M  V30 20 N -2.922547 1.057875 -0.664109 0
M  V30 21 C -2.860474 -0.094957 -1.370102 0
M  V30 22 C -3.880813 -0.507095 -2.198577 0
M  V30 23 N -3.803832 -1.663875 -2.899781 0
M  V30 24 C -2.710572 -2.432976 -2.790470 0
M  V30 25 C -1.675513 -2.040373 -1.966404 0
M  V30 26 C -1.727038 -0.871556 -1.243364 0
M  V30 27 H 3.370747 -4.272331 3.634585 0
M  V30 28 H 3.950537 -2.923980 2.660037 0
M  V30 29 H 2.722255 -2.587522 3.969132 0
M  V30 30 H 1.514963 -5.035390 3.545441 0
M  V30 31 H 0.301596 -4.714641 2.294945 0
M  V30 32 H 1.859747 -5.630869 1.868025 0
M  V30 33 H 3.385645 -3.904579 0.786851 0
M  V30 34 H 1.756199 -3.846168 0.129149 0
M  V30 35 H 3.185576 -1.967152 -0.540376 0
M  V30 36 H 3.568739 -1.591730 1.174627 0
M  V30 37 H 1.917560 -0.707507 2.725854 0
M  V30 38 H 0.476844 -1.710415 2.226666 0
M  V30 39 H 0.450116 0.060243 2.102276 0
M  V30 40 H 2.140654 0.645623 -0.863869 0
M  V30 41 H 3.212788 0.458131 0.545637 0
M  V30 42 H 1.634108 1.258023 0.754551 0
M  V30 43 H 0.649503 -2.214137 -0.795979 0
M  V30 44 H -0.142706 2.474875 1.794605 0
M  V30 45 H -0.239516 4.532368 3.071129 0
M  V30 46 H -3.957911 3.205320 0.139651 0
M  V30 47 H -4.738407 0.170756 -2.237265 0
M  V30 48 H -2.781415 -3.321540 -3.402174 0
M  V30 49 H -0.854722 -2.710812 -1.943895 0
M  V30 END ATOM
M  V30 BEGIN BOND
M  V30 1 1 1 2
M  V30 2 1 2 3
M  V30 3 1 2 4
M  V30 4 1 4 5
M  V30 5 1 5 6
M  V30 6 1 6 7
M  V30 7 1 6 8
M  V30 8 1 6 9
M  V30 9 1 9 10
M  V30 10 2 10 11
M  V30 11 1 11 12
M  V30 12 1 12 13
M  V30 13 2 13 14
M  V30 14 1 14 15
M  V30 15 2 15 16
M  V30 16 1 16 17
M  V30 17 1 17 18
M  V30 18 2 17 19
M  V30 19 2 12 20
M  V30 20 1 20 21
M  V30 21 2 21 22
M  V30 22 1 22 23
M  V30 23 2 23 24
M  V30 24 1 24 25
M  V30 25 2 25 26
M  V30 26 1 26 10
M  V30 27 1 19 13
M  V30 28 1 26 21
M  V30 29 1 1 27
M  V30 30 1 1 28
M  V30 31 1 1 29
M  V30 32 1 3 30
M  V30 33 1 3 31
M  V30 34 1 3 32
M  V30 35 1 4 33
M  V30 36 1 4 34
M  V30 37 1 5 35
M  V30 38 1 5 36
M  V30 39 1 7 37
M  V30 40 1 7 38
M  V30 41 1 7 39
M  V30 42 1 8 40
M  V30 43 1 8 41
M  V30 44 1 8 42
M  V30 45 1 9 43
M  V30 46 1 14 44
M  V30 47 1 15 45
M  V30 48 1 19 46
M  V30 49 1 22 47
M  V30 50 1 24 48
M  V30 51 1 25 49
M  V30 END BOND
M  V30 END CTAB
M  END
>  <Dataset>  (133) 
ChEMBL_Kinases

>  <Ligand_Instance>  (133) 
nan

>  <PDB_ID>  (133) 
nan

>  <Standardized_SMILES>  (133) 
CN(C)CCC(C)(C)Nc1nc(-c2ccnc(F)c2)nc2cnccc12

>  <Name>  (133) 
nan

>  <Pocket>  (133) 
nan

>  <ATP_Site>  (133) 
nan

>  <Peripheral>  (133) 
nan

>  <Num_H_Atoms_ProtBoundConf>  (133) 
nan

>  <Num_Resolved_Atoms>  (133) 
nan

>  <Num_Not_Resolved_Atoms>  (133) 
nan

$$$$
CHEMBL4740565
     RDKit          3D

  0  0  0  0  0  0  0  0  0  0999 V3000
M  V30 BEGIN CTAB
M  V30 COUNTS 81 85 0 0 0
M  V30 BEGIN ATOM
M  V30 1 N 6.325996 0.838894 4.456811 0
M  V30 2 C 6.696266 -0.405503 3.969711 0
M  V30 3 C 6.472084 -0.881320 2.706566 0
M  V30 4 C 5.780415 -0.147201 1.662083 0
M  V30 5 O 5.312395 0.984771 1.979641 0
M  V30 6 N 5.541697 -0.493360 0.330073 0
M  V30 7 C 4.808645 0.382364 -0.578316 0
M  V30 8 C 3.338469 0.283296 -0.444048 0
M  V30 9 C 2.732656 -0.611919 -1.316141 0
M  V30 10 C 1.378305 -0.869986 -1.363397 0
M  V30 11 C 0.521095 -0.217024 -0.503581 0
M  V30 12 C -0.934834 -0.346429 -0.439744 0
M  V30 13 O -1.508175 0.025237 0.620416 0
M  V30 14 N -1.765822 -0.863039 -1.495570 0
M  V30 15 C -3.167826 -0.887627 -1.168995 0 CFG=1
M  V30 16 C -3.922559 0.301492 -1.715040 0
M  V30 17 C -5.362794 0.169326 -1.283077 0
M  V30 18 C -6.250362 1.292451 -1.700472 0
M  V30 19 C -6.377785 1.534149 -3.161150 0
M  V30 20 C -6.292824 2.998177 -3.531201 0
M  V30 21 C -7.119856 3.905125 -2.687386 0
M  V30 22 C -7.057646 3.517923 -1.243677 0
M  V30 23 C -5.855680 2.609205 -1.051055 0
M  V30 24 C -3.767898 -2.118992 -1.703162 0
M  V30 25 O -4.850897 -2.809230 -1.827622 0
M  V30 26 N -2.920353 -3.060062 -2.413241 0
M  V30 27 C -3.388914 -4.284347 -2.981626 0
M  V30 28 C -3.509993 -5.568003 -2.508089 0
M  V30 29 C -4.009336 -6.548941 -3.325137 0
M  V30 30 C -4.398748 -6.307976 -4.611347 0
M  V30 31 F -4.885989 -7.352702 -5.351313 0
M  V30 32 C -4.294717 -5.014320 -5.142928 0
M  V30 33 C -3.787185 -4.028799 -4.303102 0
M  V30 34 C 1.123065 0.676185 0.366267 0
M  V30 35 C 2.474686 0.929912 0.409661 0
M  V30 36 C 7.032428 -2.152130 2.716920 0
M  V30 37 N 7.554322 -2.375759 3.952731 0
M  V30 38 N 7.348032 -1.305025 4.718742 0
M  V30 39 C 7.760905 -1.163985 6.079915 0
M  V30 40 C 9.095084 -0.751794 6.171525 0
M  V30 41 C 9.624795 -0.573926 7.452794 0
M  V30 42 C 8.874251 -0.792807 8.570514 0
M  V30 43 C 7.574711 -1.195144 8.452723 0
M  V30 44 C 7.013290 -1.381712 7.220269 0
M  V30 45 H 5.938882 0.962575 5.415735 0
M  V30 46 H 5.934054 1.414633 5.255394 0
M  V30 47 H 5.932546 -1.428127 0.044405 0
M  V30 48 H 5.161598 1.434363 -0.449921 0
M  V30 49 H 5.114268 0.112445 -1.603759 0
M  V30 50 H 3.306800 -1.189278 -2.045609 0
M  V30 51 H 0.919988 -1.575950 -2.053255 0
M  V30 52 H -1.185900 -1.123666 -2.315734 0
M  V30 53 H -3.348558 -0.849738 -0.072082 0
M  V30 54 H -3.570605 1.264556 -1.261805 0
M  V30 55 H -3.900623 0.312040 -2.819705 0
M  V30 56 H -5.836218 -0.792397 -1.524632 0
M  V30 57 H -5.324344 0.190547 -0.150930 0
M  V30 58 H -7.276962 1.081820 -1.318497 0
M  V30 59 H -7.338512 1.143750 -3.578824 0
M  V30 60 H -5.586269 1.009510 -3.708183 0
M  V30 61 H -6.726620 3.065893 -4.575317 0
M  V30 62 H -5.237636 3.314117 -3.672792 0
M  V30 63 H -6.666170 4.935980 -2.794853 0
M  V30 64 H -8.178391 3.984478 -3.012774 0
M  V30 65 H -7.079474 4.367258 -0.544049 0
M  V30 66 H -7.977080 2.910522 -1.041267 0
M  V30 67 H -5.565325 2.497961 -0.000472 0
M  V30 68 H -5.029856 3.094511 -1.647416 0
M  V30 69 H -1.868855 -2.970182 -2.603169 0
M  V30 70 H -3.166923 -5.606053 -1.485109 0
M  V30 71 H -4.059503 -7.533819 -2.837830 0
M  V30 72 H -4.617287 -4.903110 -6.146396 0
M  V30 73 H -3.768243 -3.074909 -4.857682 0
M  V30 74 H 0.530177 1.246766 1.091015 0
M  V30 75 H 2.899987 1.640153 1.094191 0
M  V30 76 H 7.004482 -2.782073 1.829763 0
M  V30 77 H 9.779558 -0.552581 5.353769 0
M  V30 78 H 10.664183 -0.255303 7.577733 0
M  V30 79 H 9.342286 -0.641481 9.532047 0
M  V30 80 H 6.991342 -1.373568 9.336324 0
M  V30 81 H 5.996282 -1.698024 7.035920 0
M  V30 END ATOM
M  V30 BEGIN BOND
M  V30 1 1 1 2
M  V30 2 2 2 3
M  V30 3 1 3 4
M  V30 4 2 4 5
M  V30 5 1 4 6
M  V30 6 1 6 7
M  V30 7 1 7 8
M  V30 8 2 8 9
M  V30 9 1 9 10
M  V30 10 2 10 11
M  V30 11 1 11 12
M  V30 12 2 12 13
M  V30 13 1 12 14
M  V30 14 1 14 15
M  V30 15 1 15 16
M  V30 16 1 16 17
M  V30 17 1 17 18
M  V30 18 1 18 19
M  V30 19 1 19 20
M  V30 20 1 20 21
M  V30 21 1 21 22
M  V30 22 1 22 23
M  V30 23 1 15 24
M  V30 24 2 24 25
M  V30 25 1 24 26
M  V30 26 1 26 27
M  V30 27 2 27 28
M  V30 28 1 28 29
M  V30 29 2 29 30
M  V30 30 1 30 31
M  V30 31 1 30 32
M  V30 32 2 32 33
M  V30 33 1 11 34
M  V30 34 2 34 35
M  V30 35 1 3 36
M  V30 36 2 36 37
M  V30 37 1 37 38
M  V30 38 1 38 39
M  V30 39 2 39 40
M  V30 40 1 40 41
M  V30 41 2 41 42
M  V30 42 1 42 43
M  V30 43 2 43 44
M  V30 44 1 38 2
M  V30 45 1 44 39
M  V30 46 1 35 8
M  V30 47 1 23 18
M  V30 48 1 33 27
M  V30 49 1 1 45
M  V30 50 1 1 46
M  V30 51 1 6 47
M  V30 52 1 7 48
M  V30 53 1 7 49
M  V30 54 1 9 50
M  V30 55 1 10 51
M  V30 56 1 14 52
M  V30 57 1 15 53 CFG=1
M  V30 58 1 16 54
M  V30 59 1 16 55
M  V30 60 1 17 56
M  V30 61 1 17 57
M  V30 62 1 18 58
M  V30 63 1 19 59
M  V30 64 1 19 60
M  V30 65 1 20 61
M  V30 66 1 20 62
M  V30 67 1 21 63
M  V30 68 1 21 64
M  V30 69 1 22 65
M  V30 70 1 22 66
M  V30 71 1 23 67
M  V30 72 1 23 68
M  V30 73 1 26 69
M  V30 74 1 28 70
M  V30 75 1 29 71
M  V30 76 1 32 72
M  V30 77 1 33 73
M  V30 78 1 34 74
M  V30 79 1 35 75
M  V30 80 1 36 76
M  V30 81 1 40 77
M  V30 82 1 41 78
M  V30 83 1 42 79
M  V30 84 1 43 80
M  V30 85 1 44 81
M  V30 END BOND
M  V30 END CTAB
M  END
>  <Dataset>  (134) 
ChEMBL_Kinases

>  <Ligand_Instance>  (134) 
nan

>  <PDB_ID>  (134) 
nan

>  <Standardized_SMILES>  (134) 
Nc1c(C(=O)NCc2ccc(C(=O)N[C@@H](CCC3CCCCC3)C(=O)Nc3ccc(F)cc3)cc2)cnn1-c1ccccc1

>  <Name>  (134) 
nan

>  <Pocket>  (134) 
nan

>  <ATP_Site>  (134) 
nan

>  <Peripheral>  (134) 
nan

>  <Num_H_Atoms_ProtBoundConf>  (134) 
nan

>  <Num_Resolved_Atoms>  (134) 
nan

>  <Num_Not_Resolved_Atoms>  (134) 
nan

$$$$
CHEMBL4461657
     RDKit          3D

  0  0  0  0  0  0  0  0  0  0999 V3000
M  V30 BEGIN CTAB
M  V30 COUNTS 40 43 0 0 0
M  V30 BEGIN ATOM
M  V30 1 O -2.705282 -1.668672 -0.804938 0
M  V30 2 C -3.050411 -1.047282 0.384681 0 CFG=1
M  V30 3 C -4.266428 -1.664974 1.038708 0
M  V30 4 C -4.096033 -1.384953 2.531227 0
M  V30 5 C -2.788436 -0.628661 2.637011 0
M  V30 6 C -2.016134 -1.335382 1.498067 0 CFG=2
M  V30 7 N -0.735189 -0.833980 1.258705 0
M  V30 8 C 0.565632 -0.337541 0.997440 0
M  V30 9 N 1.374958 -0.622677 -0.033848 0
M  V30 10 C 2.584024 -0.135921 -0.237927 0
M  V30 11 C 3.330900 -0.551898 -1.413571 0
M  V30 12 C 4.583216 -0.004937 -1.562189 0
M  V30 13 C 5.294170 -0.405727 -2.688349 0
M  V30 14 N 4.794218 -1.265390 -3.568278 0
M  V30 15 C 3.549587 -1.779703 -3.377672 0
M  V30 16 C 2.754204 -1.448425 -2.289293 0
M  V30 17 N 3.022786 0.712755 0.672210 0
M  V30 18 C 2.344311 1.094731 1.746318 0
M  V30 19 C 2.978543 1.992613 2.582922 0
M  V30 20 N 2.295437 2.385323 3.679407 0
M  V30 21 C 1.066606 1.918774 3.928793 0
M  V30 22 C 0.497135 1.026136 3.050576 0
M  V30 23 C 1.086943 0.551321 1.904128 0
M  V30 24 H -2.878016 -2.624964 -0.715714 0
M  V30 25 H -3.195533 0.033328 0.302018 0
M  V30 26 H -4.206338 -2.767071 0.843381 0
M  V30 27 H -5.212104 -1.246598 0.654045 0
M  V30 28 H -3.924711 -2.347935 3.074191 0
M  V30 29 H -4.961559 -0.829332 2.931673 0
M  V30 30 H -2.298507 -0.805546 3.620614 0
M  V30 31 H -2.965421 0.421232 2.402313 0
M  V30 32 H -2.111411 -2.425702 1.742870 0
M  V30 33 H -0.803188 -1.481713 0.410851 0
M  V30 34 H 4.970925 0.700970 -0.822334 0
M  V30 35 H 6.295216 0.030846 -2.808091 0
M  V30 36 H 3.228003 -2.471783 -4.147424 0
M  V30 37 H 1.785560 -1.872597 -2.175960 0
M  V30 38 H 3.968583 2.358046 2.366697 0
M  V30 39 H 0.528201 2.239595 4.809714 0
M  V30 40 H -0.480982 0.675249 3.282856 0
M  V30 END ATOM
M  V30 BEGIN BOND
M  V30 1 1 1 2
M  V30 2 1 2 3
M  V30 3 1 3 4
M  V30 4 1 4 5
M  V30 5 1 5 6
M  V30 6 1 6 7
M  V30 7 1 7 8
M  V30 8 2 8 9
M  V30 9 1 9 10
M  V30 10 1 10 11
M  V30 11 2 11 12
M  V30 12 1 12 13
M  V30 13 2 13 14
M  V30 14 1 14 15
M  V30 15 2 15 16
M  V30 16 2 10 17
M  V30 17 1 17 18
M  V30 18 2 18 19
M  V30 19 1 19 20
M  V30 20 2 20 21
M  V30 21 1 21 22
M  V30 22 2 22 23
M  V30 23 1 6 2
M  V30 24 1 23 8
M  V30 25 1 16 11
M  V30 26 1 23 18
M  V30 27 1 1 24
M  V30 28 1 2 25 CFG=3
M  V30 29 1 3 26
M  V30 30 1 3 27
M  V30 31 1 4 28
M  V30 32 1 4 29
M  V30 33 1 5 30
M  V30 34 1 5 31
M  V30 35 1 6 32 CFG=1
M  V30 36 1 7 33
M  V30 37 1 12 34
M  V30 38 1 13 35
M  V30 39 1 15 36
M  V30 40 1 16 37
M  V30 41 1 19 38
M  V30 42 1 21 39
M  V30 43 1 22 40
M  V30 END BOND
M  V30 END CTAB
M  END
>  <Dataset>  (135) 
ChEMBL_Kinases

>  <Ligand_Instance>  (135) 
nan

>  <PDB_ID>  (135) 
nan

>  <Standardized_SMILES>  (135) 
O[C@H]1CCC[C@@H]1Nc1nc(-c2ccncc2)nc2cnccc12

>  <Name>  (135) 
nan

>  <Pocket>  (135) 
nan

>  <ATP_Site>  (135) 
nan

>  <Peripheral>  (135) 
nan

>  <Num_H_Atoms_ProtBoundConf>  (135) 
nan

>  <Num_Resolved_Atoms>  (135) 
nan

>  <Num_Not_Resolved_Atoms>  (135) 
nan

$$$$
CHEMBL4463859
     RDKit          3D

  0  0  0  0  0  0  0  0  0  0999 V3000
M  V30 BEGIN CTAB
M  V30 COUNTS 53 56 0 0 0
M  V30 BEGIN ATOM
M  V30 1 C 1.123983 -0.027599 4.958769 0
M  V30 2 C 2.443310 -0.747607 5.049805 0
M  V30 3 C 2.422813 -1.892971 4.071784 0
M  V30 4 N 3.564797 0.157030 4.847595 0
M  V30 5 C 3.679273 0.877829 3.628071 0
M  V30 6 N 4.736604 1.714941 3.464583 0
M  V30 7 C 4.887144 2.415029 2.334707 0
M  V30 8 C 3.928927 2.255112 1.342279 0
M  V30 9 C 2.846895 1.412667 1.482450 0
M  V30 10 C 1.833476 1.235560 0.447131 0
M  V30 11 C 1.845544 1.883027 -0.769713 0
M  V30 12 C 0.871512 1.695222 -1.731722 0
M  V30 13 C -0.155434 0.817118 -1.450656 0
M  V30 14 C -0.215241 0.140745 -0.243442 0
M  V30 15 C 0.793296 0.363741 0.698292 0
M  V30 16 C -1.424036 -0.698423 -0.282814 0
M  V30 17 O -1.800987 -1.455774 0.648962 0
M  V30 18 N -2.073257 -0.500691 -1.538989 0
M  V30 19 C -3.285659 -1.156899 -1.931408 0
M  V30 20 C -4.435179 -0.760225 -1.031112 0
M  V30 21 O -4.649258 0.617212 -1.089253 0
M  V30 22 C -3.145338 -2.633203 -1.902866 0
M  V30 23 C -1.966729 -3.122729 -2.475710 0
M  V30 24 C -1.731399 -4.486549 -2.503648 0
M  V30 25 C -2.619790 -5.409268 -1.983672 0
M  V30 26 C -3.766978 -4.881753 -1.429584 0
M  V30 27 Cl -4.949207 -6.004892 -0.744688 0
M  V30 28 C -4.028100 -3.539928 -1.386877 0
M  V30 29 C -1.309189 0.450828 -2.316274 0
M  V30 30 N 2.783926 0.752900 2.654094 0
M  V30 31 H 0.442328 -0.328433 5.772398 0
M  V30 32 H 0.615873 -0.218886 3.992704 0
M  V30 33 H 1.300532 1.064895 5.122474 0
M  V30 34 H 2.494961 -1.197896 6.081269 0
M  V30 35 H 3.003386 -2.740962 4.488523 0
M  V30 36 H 1.357893 -2.212691 3.956769 0
M  V30 37 H 2.838238 -1.578993 3.104153 0
M  V30 38 H 4.267219 0.261467 5.602552 0
M  V30 39 H 5.741201 3.083396 2.217593 0
M  V30 40 H 4.063978 2.817202 0.454355 0
M  V30 41 H 2.650894 2.570313 -0.987553 0
M  V30 42 H 0.917492 2.224111 -2.676750 0
M  V30 43 H 0.652578 -0.206928 1.594301 0
M  V30 44 H -3.592767 -0.836543 -2.957894 0
M  V30 45 H -5.365133 -1.217581 -1.462266 0
M  V30 46 H -4.334150 -1.095880 0.002984 0
M  V30 47 H -5.394880 0.811624 -0.453923 0
M  V30 48 H -1.170610 -2.521454 -2.926292 0
M  V30 49 H -0.820717 -4.904272 -2.943578 0
M  V30 50 H -2.408585 -6.469550 -2.019941 0
M  V30 51 H -4.913981 -3.142150 -0.958330 0
M  V30 52 H -0.972248 0.026684 -3.280243 0
M  V30 53 H -1.993156 1.328094 -2.471793 0
M  V30 END ATOM
M  V30 BEGIN BOND
M  V30 1 1 1 2
M  V30 2 1 2 3
M  V30 3 1 2 4
M  V30 4 1 4 5
M  V30 5 2 5 6
M  V30 6 1 6 7
M  V30 7 2 7 8
M  V30 8 1 8 9
M  V30 9 1 9 10
M  V30 10 2 10 11
M  V30 11 1 11 12
M  V30 12 2 12 13
M  V30 13 1 13 14
M  V30 14 2 14 15
M  V30 15 1 14 16
M  V30 16 2 16 17
M  V30 17 1 16 18
M  V30 18 1 18 19
M  V30 19 1 19 20
M  V30 20 1 20 21
M  V30 21 1 19 22
M  V30 22 2 22 23
M  V30 23 1 23 24
M  V30 24 2 24 25
M  V30 25 1 25 26
M  V30 26 1 26 27
M  V30 27 2 26 28
M  V30 28 1 18 29
M  V30 29 2 9 30
M  V30 30 1 30 5
M  V30 31 1 15 10
M  V30 32 1 28 22
M  V30 33 1 29 13
M  V30 34 1 1 31
M  V30 35 1 1 32
M  V30 36 1 1 33
M  V30 37 1 2 34
M  V30 38 1 3 35
M  V30 39 1 3 36
M  V30 40 1 3 37
M  V30 41 1 4 38
M  V30 42 1 7 39
M  V30 43 1 8 40
M  V30 44 1 11 41
M  V30 45 1 12 42
M  V30 46 1 15 43
M  V30 47 1 19 44
M  V30 48 1 20 45
M  V30 49 1 20 46
M  V30 50 1 21 47
M  V30 51 1 23 48
M  V30 52 1 24 49
M  V30 53 1 25 50
M  V30 54 1 28 51
M  V30 55 1 29 52
M  V30 56 1 29 53
M  V30 END BOND
M  V30 END CTAB
M  END
>  <Dataset>  (136) 
ChEMBL_Kinases

>  <Ligand_Instance>  (136) 
nan

>  <PDB_ID>  (136) 
nan

>  <Standardized_SMILES>  (136) 
CC(C)Nc1nccc(-c2ccc3c(c2)C(=O)N(C(CO)c2cccc(Cl)c2)C3)n1

>  <Name>  (136) 
nan

>  <Pocket>  (136) 
nan

>  <ATP_Site>  (136) 
nan

>  <Peripheral>  (136) 
nan

>  <Num_H_Atoms_ProtBoundConf>  (136) 
nan

>  <Num_Resolved_Atoms>  (136) 
nan

>  <Num_Not_Resolved_Atoms>  (136) 
nan

$$$$
CHEMBL4461552
     RDKit          3D

  0  0  0  0  0  0  0  0  0  0999 V3000
M  V30 BEGIN CTAB
M  V30 COUNTS 46 50 0 0 0
M  V30 BEGIN ATOM
M  V30 1 N 3.800268 -5.512423 2.416143 0
M  V30 2 C 3.483912 -4.185136 2.015152 0
M  V30 3 O 4.402557 -3.331239 2.038452 0
M  V30 4 C 2.109235 -3.917710 1.605775 0
M  V30 5 C 1.031124 -4.805388 1.550671 0
M  V30 6 N -0.038561 -4.119639 1.116366 0
M  V30 7 C 0.351224 -2.822470 0.899700 0
M  V30 8 N 1.658352 -2.695311 1.196515 0
M  V30 9 C -0.539336 -1.733841 0.412681 0
M  V30 10 C 0.134107 -0.532377 0.287933 0
M  V30 11 C -0.549456 0.587938 -0.155202 0
M  V30 12 C 0.111583 1.870596 -0.302807 0
M  V30 13 C 0.658677 2.942752 -0.405353 0
M  V30 14 C 1.310270 4.251427 -0.508894 0
M  V30 15 C 0.373734 5.354097 -0.000092 0
M  V30 16 C 0.377868 5.147706 1.502753 0
M  V30 17 C 1.639334 4.372114 1.803030 0
M  V30 18 C 2.439824 4.381765 0.494663 0
M  V30 19 C -1.899991 0.471980 -0.463497 0
M  V30 20 C -2.582190 -0.722375 -0.342662 0
M  V30 21 C -1.905884 -1.832990 0.096301 0
M  V30 22 C -2.724945 -3.099762 0.200656 0
M  V30 23 C -2.459074 -3.809269 1.520032 0
M  V30 24 C -1.387013 -4.684834 0.915335 0
M  V30 25 C -1.958348 -4.257965 -0.436097 0
M  V30 26 H 3.886129 -6.509776 2.114866 0
M  V30 27 H 4.085477 -6.296247 3.043387 0
M  V30 28 H 1.063084 -5.845719 1.810798 0
M  V30 29 H 1.189209 -0.467000 0.534924 0
M  V30 30 H 1.613078 4.406510 -1.549090 0
M  V30 31 H -0.624911 5.116924 -0.397116 0
M  V30 32 H 0.751405 6.332422 -0.300196 0
M  V30 33 H 0.249991 6.060385 2.083546 0
M  V30 34 H -0.477477 4.472398 1.783441 0
M  V30 35 H 1.427416 3.290662 2.029182 0
M  V30 36 H 2.193989 4.846246 2.618801 0
M  V30 37 H 3.135032 3.524371 0.433826 0
M  V30 38 H 2.933205 5.344810 0.332611 0
M  V30 39 H -2.445924 1.348029 -0.812854 0
M  V30 40 H -3.630200 -0.837955 -0.575667 0
M  V30 41 H -3.758133 -2.971292 -0.098535 0
M  V30 42 H -1.981730 -3.086969 2.230781 0
M  V30 43 H -3.334423 -4.353779 1.921527 0
M  V30 44 H -1.418220 -5.742565 1.147493 0
M  V30 45 H -2.653175 -5.040389 -0.809540 0
M  V30 46 H -1.152794 -3.955180 -1.111839 0
M  V30 END ATOM
M  V30 BEGIN BOND
M  V30 1 1 1 2
M  V30 2 2 2 3
M  V30 3 1 2 4
M  V30 4 2 4 5
M  V30 5 1 5 6
M  V30 6 1 6 7
M  V30 7 2 7 8
M  V30 8 1 7 9
M  V30 9 2 9 10
M  V30 10 1 10 11
M  V30 11 1 11 12
M  V30 12 3 12 13
M  V30 13 1 13 14
M  V30 14 1 14 15
M  V30 15 1 15 16
M  V30 16 1 16 17
M  V30 17 1 17 18
M  V30 18 2 11 19
M  V30 19 1 19 20
M  V30 20 2 20 21
M  V30 21 1 21 22
M  V30 22 1 22 23
M  V30 23 1 23 24
M  V30 24 1 24 25
M  V30 25 1 8 4
M  V30 26 1 21 9
M  V30 27 1 25 22
M  V30 28 1 24 6
M  V30 29 1 18 14
M  V30 30 1 1 26
M  V30 31 1 1 27
M  V30 32 1 5 28
M  V30 33 1 10 29
M  V30 34 1 14 30
M  V30 35 1 15 31
M  V30 36 1 15 32
M  V30 37 1 16 33
M  V30 38 1 16 34
M  V30 39 1 17 35
M  V30 40 1 17 36
M  V30 41 1 18 37
M  V30 42 1 18 38
M  V30 43 1 19 39
M  V30 44 1 20 40
M  V30 45 1 22 41
M  V30 46 1 23 42
M  V30 47 1 23 43
M  V30 48 1 24 44
M  V30 49 1 25 45
M  V30 50 1 25 46
M  V30 END BOND
M  V30 END CTAB
M  END
>  <Dataset>  (137) 
ChEMBL_Kinases

>  <Ligand_Instance>  (137) 
nan

>  <PDB_ID>  (137) 
nan

>  <Standardized_SMILES>  (137) 
NC(=O)c1cn2c(n1)-c1cc(C#CC3CCCC3)ccc1C1CC2C1

>  <Name>  (137) 
nan

>  <Pocket>  (137) 
nan

>  <ATP_Site>  (137) 
nan

>  <Peripheral>  (137) 
nan

>  <Num_H_Atoms_ProtBoundConf>  (137) 
nan

>  <Num_Resolved_Atoms>  (137) 
nan

>  <Num_Not_Resolved_Atoms>  (137) 
nan

$$$$
CHEMBL4461527
     RDKit          3D

  0  0  0  0  0  0  0  0  0  0999 V3000
M  V30 BEGIN CTAB
M  V30 COUNTS 45 48 0 0 0
M  V30 BEGIN ATOM
M  V30 1 C -0.169687 -6.519224 1.825985 0
M  V30 2 O -0.361845 -5.990424 0.532761 0
M  V30 3 C -0.050045 -4.713316 0.134893 0
M  V30 4 C 0.502612 -3.759185 0.962198 0
M  V30 5 C 0.811451 -2.477617 0.549224 0
M  V30 6 C 0.545953 -2.152691 -0.764263 0
M  V30 7 C 0.861653 -0.804985 -1.228861 0
M  V30 8 C 1.237719 -0.545875 -2.532475 0
M  V30 9 N 1.526496 0.721378 -2.936690 0
M  V30 10 C 1.446795 1.753610 -2.052878 0
M  V30 11 N 1.687868 3.059956 -2.251049 0
M  V30 12 C 1.480181 3.724989 -1.079396 0
M  V30 13 C 1.099389 2.768186 -0.147631 0
M  V30 14 C 0.770533 2.989043 1.241957 0
M  V30 15 C 0.476284 3.164861 2.403524 0
M  V30 16 C 0.106148 3.359991 3.779307 0
M  V30 17 C 0.134408 2.336327 4.723432 0
M  V30 18 C -0.233455 2.572508 6.045991 0
M  V30 19 C -0.635945 3.839471 6.444396 0
M  V30 20 C -0.680128 4.886839 5.543772 0
M  V30 21 C -0.304877 4.593541 4.248839 0
M  V30 22 C 1.072574 1.512928 -0.746118 0
M  V30 23 C 0.769208 0.234028 -0.292475 0
M  V30 24 C -0.007135 -3.109909 -1.589553 0
M  V30 25 C -0.324955 -4.400581 -1.197267 0
M  V30 26 O -0.877744 -5.339531 -2.042363 0
M  V30 27 C -1.141995 -4.990251 -3.377858 0
M  V30 28 H 0.784847 -7.119318 1.844188 0
M  V30 29 H -1.021918 -7.216277 2.077653 0
M  V30 30 H -0.116295 -5.770373 2.625361 0
M  V30 31 H 0.710268 -4.016124 1.992641 0
M  V30 32 H 1.240496 -1.795172 1.258760 0
M  V30 33 H 1.282890 -1.410883 -3.190306 0
M  V30 34 H 1.983112 3.565106 -3.105635 0
M  V30 35 H 1.559708 4.770810 -0.800642 0
M  V30 36 H 0.450955 1.356889 4.393271 0
M  V30 37 H -0.187369 1.723025 6.732326 0
M  V30 38 H -0.923527 4.010364 7.492589 0
M  V30 39 H -0.986469 5.879989 5.816734 0
M  V30 40 H -0.346501 5.439128 3.545514 0
M  V30 41 H 0.481152 0.095153 0.739016 0
M  V30 42 H -0.193960 -2.802118 -2.607378 0
M  V30 43 H -1.858100 -5.718778 -3.814538 0
M  V30 44 H -0.190715 -5.084894 -3.968160 0
M  V30 45 H -1.581202 -3.993601 -3.508650 0
M  V30 END ATOM
M  V30 BEGIN BOND
M  V30 1 1 1 2
M  V30 2 1 2 3
M  V30 3 2 3 4
M  V30 4 1 4 5
M  V30 5 2 5 6
M  V30 6 1 6 7
M  V30 7 2 7 8
M  V30 8 1 8 9
M  V30 9 2 9 10
M  V30 10 1 10 11
M  V30 11 1 11 12
M  V30 12 2 12 13
M  V30 13 1 13 14
M  V30 14 3 14 15
M  V30 15 1 15 16
M  V30 16 2 16 17
M  V30 17 1 17 18
M  V30 18 2 18 19
M  V30 19 1 19 20
M  V30 20 2 20 21
M  V30 21 1 13 22
M  V30 22 2 22 23
M  V30 23 1 6 24
M  V30 24 2 24 25
M  V30 25 1 25 26
M  V30 26 1 26 27
M  V30 27 1 25 3
M  V30 28 1 23 7
M  V30 29 1 22 10
M  V30 30 1 21 16
M  V30 31 1 1 28
M  V30 32 1 1 29
M  V30 33 1 1 30
M  V30 34 1 4 31
M  V30 35 1 5 32
M  V30 36 1 8 33
M  V30 37 1 11 34
M  V30 38 1 12 35
M  V30 39 1 17 36
M  V30 40 1 18 37
M  V30 41 1 19 38
M  V30 42 1 20 39
M  V30 43 1 21 40
M  V30 44 1 23 41
M  V30 45 1 24 42
M  V30 46 1 27 43
M  V30 47 1 27 44
M  V30 48 1 27 45
M  V30 END BOND
M  V30 END CTAB
M  END
>  <Dataset>  (138) 
ChEMBL_Kinases

>  <Ligand_Instance>  (138) 
nan

>  <PDB_ID>  (138) 
nan

>  <Standardized_SMILES>  (138) 
COc1ccc(-c2cnc3[nH]cc(C#Cc4ccccc4)c3c2)cc1OC

>  <Name>  (138) 
nan

>  <Pocket>  (138) 
nan

>  <ATP_Site>  (138) 
nan

>  <Peripheral>  (138) 
nan

>  <Num_H_Atoms_ProtBoundConf>  (138) 
nan

>  <Num_Resolved_Atoms>  (138) 
nan

>  <Num_Not_Resolved_Atoms>  (138) 
nan

$$$$
CHEMBL4461498
     RDKit          3D

  0  0  0  0  0  0  0  0  0  0999 V3000
M  V30 BEGIN CTAB
M  V30 COUNTS 55 57 0 0 0
M  V30 BEGIN ATOM
M  V30 1 C 0.566511 -0.343011 -0.281902 0
M  V30 2 C 1.177257 -1.155790 0.793464 0
M  V30 3 C 0.279571 -1.262478 2.023721 0
M  V30 4 C 2.459825 -0.560403 1.289411 0
M  V30 5 N 2.275310 0.734868 1.853198 0
M  V30 6 C 1.868033 2.013991 1.504699 0
M  V30 7 O 1.508603 2.373173 0.384216 0
M  V30 8 O 1.738366 3.181202 2.196520 0
M  V30 9 C 1.290068 4.380813 1.594122 0
M  V30 10 C -0.084012 4.290532 1.003560 0
M  V30 11 C 2.282132 4.925784 0.583965 0
M  V30 12 C 1.225093 5.421815 2.720601 0
M  V30 13 N 1.393546 -2.509968 0.255296 0
M  V30 14 C 0.273789 -3.291158 -0.131839 0
M  V30 15 N -0.991446 -2.885718 -0.033427 0
M  V30 16 C -2.074534 -3.601560 -0.384578 0
M  V30 17 C -3.416522 -3.050329 -0.231706 0
M  V30 18 C -4.515880 -3.800149 -0.594875 0
M  V30 19 C -5.744161 -3.237211 -0.430862 0
M  V30 20 N -5.971450 -2.000701 0.060107 0
M  V30 21 C -4.903338 -1.247892 0.422839 0
M  V30 22 C -3.621989 -1.789493 0.270297 0
M  V30 23 N -1.914568 -4.841324 -0.883818 0
M  V30 24 C -0.674869 -5.365406 -1.032204 0
M  V30 25 C -0.486461 -6.632603 -1.541251 0
M  V30 26 N 0.766712 -7.141373 -1.682728 0
M  V30 27 C 1.852581 -6.399182 -1.320679 0
M  V30 28 C 1.628358 -5.135384 -0.814929 0
M  V30 29 C 0.382756 -4.566163 -0.648282 0
M  V30 30 H 0.033899 -1.028605 -1.032952 0
M  V30 31 H 1.383300 0.073768 -0.928032 0
M  V30 32 H -0.203720 0.371605 0.002454 0
M  V30 33 H -0.775153 -1.384415 1.800143 0
M  V30 34 H 0.658888 -2.115343 2.612280 0
M  V30 35 H 0.396389 -0.332644 2.605942 0
M  V30 36 H 3.231857 -0.525563 0.462903 0
M  V30 37 H 2.921033 -1.195052 2.074866 0
M  V30 38 H 2.506466 0.839611 2.895104 0
M  V30 39 H -0.700877 3.615553 1.613946 0
M  V30 40 H -0.551908 5.303098 1.087881 0
M  V30 41 H -0.111779 3.994272 -0.064580 0
M  V30 42 H 2.130773 4.520053 -0.426934 0
M  V30 43 H 2.131124 6.018745 0.546099 0
M  V30 44 H 3.295324 4.761132 0.990334 0
M  V30 45 H 0.753725 5.026890 3.630241 0
M  V30 46 H 0.572339 6.227739 2.321046 0
M  V30 47 H 2.229377 5.838962 2.908099 0
M  V30 48 H 2.368344 -2.796696 0.198230 0
M  V30 49 H -4.367077 -4.787064 -0.988444 0
M  V30 50 H -6.616938 -3.825329 -0.716250 0
M  V30 51 H -5.085298 -0.254409 0.817331 0
M  V30 52 H -2.820247 -1.154806 0.570609 0
M  V30 53 H -1.381893 -7.185864 -1.815707 0
M  V30 54 H 2.836178 -6.830287 -1.444729 0
M  V30 55 H 2.541675 -4.621168 -0.555567 0
M  V30 END ATOM
M  V30 BEGIN BOND
M  V30 1 1 1 2
M  V30 2 1 2 3
M  V30 3 1 2 4
M  V30 4 1 4 5
M  V30 5 1 5 6
M  V30 6 2 6 7
M  V30 7 1 6 8
M  V30 8 1 8 9
M  V30 9 1 9 10
M  V30 10 1 9 11
M  V30 11 1 9 12
M  V30 12 1 2 13
M  V30 13 1 13 14
M  V30 14 2 14 15
M  V30 15 1 15 16
M  V30 16 1 16 17
M  V30 17 2 17 18
M  V30 18 1 18 19
M  V30 19 2 19 20
M  V30 20 1 20 21
M  V30 21 2 21 22
M  V30 22 2 16 23
M  V30 23 1 23 24
M  V30 24 2 24 25
M  V30 25 1 25 26
M  V30 26 2 26 27
M  V30 27 1 27 28
M  V30 28 2 28 29
M  V30 29 1 29 14
M  V30 30 1 22 17
M  V30 31 1 29 24
M  V30 32 1 1 30
M  V30 33 1 1 31
M  V30 34 1 1 32
M  V30 35 1 3 33
M  V30 36 1 3 34
M  V30 37 1 3 35
M  V30 38 1 4 36
M  V30 39 1 4 37
M  V30 40 1 5 38
M  V30 41 1 10 39
M  V30 42 1 10 40
M  V30 43 1 10 41
M  V30 44 1 11 42
M  V30 45 1 11 43
M  V30 46 1 11 44
M  V30 47 1 12 45
M  V30 48 1 12 46
M  V30 49 1 12 47
M  V30 50 1 13 48
M  V30 51 1 18 49
M  V30 52 1 19 50
M  V30 53 1 21 51
M  V30 54 1 22 52
M  V30 55 1 25 53
M  V30 56 1 27 54
M  V30 57 1 28 55
M  V30 END BOND
M  V30 END CTAB
M  END
>  <Dataset>  (139) 
ChEMBL_Kinases

>  <Ligand_Instance>  (139) 
nan

>  <PDB_ID>  (139) 
nan

>  <Standardized_SMILES>  (139) 
CC(C)(CNC(=O)OC(C)(C)C)Nc1nc(-c2ccncc2)nc2cnccc12

>  <Name>  (139) 
nan

>  <Pocket>  (139) 
nan

>  <ATP_Site>  (139) 
nan

>  <Peripheral>  (139) 
nan

>  <Num_H_Atoms_ProtBoundConf>  (139) 
nan

>  <Num_Resolved_Atoms>  (139) 
nan

>  <Num_Not_Resolved_Atoms>  (139) 
nan

$$$$
CHEMBL4461494
     RDKit          3D

  0  0  0  0  0  0  0  0  0  0999 V3000
M  V30 BEGIN CTAB
M  V30 COUNTS 39 41 0 0 0
M  V30 BEGIN ATOM
M  V30 1 C 1.158240 -3.857486 3.757853 0
M  V30 2 C 0.964851 -4.052034 2.283201 0
M  V30 3 C 0.914346 -2.739466 1.511530 0 CFG=1
M  V30 4 C 0.715747 -3.102248 0.038285 0
M  V30 5 N -0.263721 -1.966907 1.885132 0
M  V30 6 C -0.455620 -0.681686 1.314808 0
M  V30 7 C 0.460296 -0.162793 0.432363 0
M  V30 8 C 0.312617 1.080640 -0.136421 0
M  V30 9 C 1.253850 1.674738 -1.076049 0
M  V30 10 C 0.996481 2.932637 -1.580131 0
M  V30 11 C 1.859137 3.552676 -2.481798 0
M  V30 12 N 2.983787 2.943082 -2.897581 0
M  V30 13 C 3.257216 1.721398 -2.423504 0
M  V30 14 C 2.416233 1.093721 -1.532051 0
M  V30 15 N -0.765876 1.818971 0.179890 0
M  V30 16 C -1.714230 1.389399 1.036089 0
M  V30 17 C -2.809276 2.169912 1.340766 0
M  V30 18 N -3.765251 1.728827 2.208099 0
M  V30 19 C -3.585759 0.498340 2.748831 0
M  V30 20 C -2.499153 -0.287612 2.452639 0
M  V30 21 C -1.523981 0.137434 1.581238 0
M  V30 22 H 1.944964 -3.151974 4.029506 0
M  V30 23 H 0.200231 -3.639983 4.280300 0
M  V30 24 H 1.470061 -4.859631 4.161486 0
M  V30 25 H 1.743365 -4.718553 1.902934 0
M  V30 26 H -0.007218 -4.597598 2.146353 0
M  V30 27 H 1.845059 -2.203701 1.696929 0
M  V30 28 H 1.701294 -2.969097 -0.478090 0
M  V30 29 H -0.076626 -2.512728 -0.422186 0
M  V30 30 H 0.501454 -4.196654 -0.049970 0
M  V30 31 H -0.903343 -2.421560 2.563829 0
M  V30 32 H 1.349444 -0.683533 0.129181 0
M  V30 33 H 0.123019 3.492124 -1.303316 0
M  V30 34 H 1.664087 4.540482 -2.882303 0
M  V30 35 H 4.156669 1.190392 -2.732740 0
M  V30 36 H 2.669402 0.119010 -1.176934 0
M  V30 37 H -2.871783 3.140588 0.861997 0
M  V30 38 H -4.374065 0.187761 3.435571 0
M  V30 39 H -2.458982 -1.247695 2.940379 0
M  V30 END ATOM
M  V30 BEGIN BOND
M  V30 1 1 1 2
M  V30 2 1 2 3
M  V30 3 1 3 4
M  V30 4 1 3 5
M  V30 5 1 5 6
M  V30 6 2 6 7
M  V30 7 1 7 8
M  V30 8 1 8 9
M  V30 9 2 9 10
M  V30 10 1 10 11
M  V30 11 2 11 12
M  V30 12 1 12 13
M  V30 13 2 13 14
M  V30 14 2 8 15
M  V30 15 1 15 16
M  V30 16 2 16 17
M  V30 17 1 17 18
M  V30 18 2 18 19
M  V30 19 1 19 20
M  V30 20 2 20 21
M  V30 21 1 21 6
M  V30 22 1 14 9
M  V30 23 1 21 16
M  V30 24 1 1 22
M  V30 25 1 1 23
M  V30 26 1 1 24
M  V30 27 1 2 25
M  V30 28 1 2 26
M  V30 29 1 3 27 CFG=3
M  V30 30 1 4 28
M  V30 31 1 4 29
M  V30 32 1 4 30
M  V30 33 1 5 31
M  V30 34 1 7 32
M  V30 35 1 10 33
M  V30 36 1 11 34
M  V30 37 1 13 35
M  V30 38 1 14 36
M  V30 39 1 17 37
M  V30 40 1 19 38
M  V30 41 1 20 39
M  V30 END BOND
M  V30 END CTAB
M  END
>  <Dataset>  (140) 
ChEMBL_Kinases

>  <Ligand_Instance>  (140) 
nan

>  <PDB_ID>  (140) 
nan

>  <Standardized_SMILES>  (140) 
CC[C@@H](C)Nc1cc(-c2ccncc2)nc2cnccc12

>  <Name>  (140) 
nan

>  <Pocket>  (140) 
nan

>  <ATP_Site>  (140) 
nan

>  <Peripheral>  (140) 
nan

>  <Num_H_Atoms_ProtBoundConf>  (140) 
nan

>  <Num_Resolved_Atoms>  (140) 
nan

>  <Num_Not_Resolved_Atoms>  (140) 
nan

$$$$
CHEMBL4461416
     RDKit          3D

  0  0  0  0  0  0  0  0  0  0999 V3000
M  V30 BEGIN CTAB
M  V30 COUNTS 60 64 0 0 0
M  V30 BEGIN ATOM
M  V30 1 C 4.470437 0.846394 5.513354 0
M  V30 2 C 3.588561 -0.357373 5.639200 0
M  V30 3 C 2.628930 -0.489676 4.519364 0
M  V30 4 N 3.092332 -0.642094 3.215713 0
M  V30 5 C 3.734185 0.386995 2.518241 0
M  V30 6 C 3.360686 0.214031 1.027627 0
M  V30 7 N 2.106985 -0.400308 0.858457 0
M  V30 8 C 0.923210 0.246534 1.228174 0
M  V30 9 C 0.612289 1.530021 0.548109 0
M  V30 10 C 0.972508 2.795998 0.975238 0
M  V30 11 C 0.583639 3.864366 0.199710 0
M  V30 12 N -0.119565 3.779752 -0.942661 0
M  V30 13 C -0.504934 2.564380 -1.417668 0
M  V30 14 N -1.269689 2.385223 -2.620198 0
M  V30 15 C -1.552030 1.027752 -2.972263 0
M  V30 16 N -1.069703 0.088048 -3.802215 0
M  V30 17 C -1.732727 -1.053458 -3.684400 0
M  V30 18 C -1.584681 -2.268358 -4.320191 0
M  V30 19 C -2.435739 -3.295568 -3.976053 0
M  V30 20 C -3.404110 -3.099513 -3.020334 0
M  V30 21 C -4.301935 -4.184849 -2.643163 0
M  V30 22 N -5.277322 -4.109269 -1.721167 0
M  V30 23 C -5.930122 -5.277904 -1.600652 0
M  V30 24 C -7.043484 -5.386579 -0.626088 0
M  V30 25 N -5.307621 -6.069922 -2.491723 0
M  V30 26 O -4.359195 -5.417504 -3.092995 0
M  V30 27 C -3.524512 -1.871548 -2.404957 0
M  V30 28 C -2.680473 -0.803278 -2.725586 0
M  V30 29 N -2.576378 0.478752 -2.281120 0
M  V30 30 C -0.108603 1.490433 -0.629113 0
M  V30 31 C 2.119647 -1.748656 1.353886 0
M  V30 32 C 2.972415 -1.909641 2.593649 0
M  V30 33 H 4.872235 1.163775 6.526643 0
M  V30 34 H 5.393883 0.591051 4.925109 0
M  V30 35 H 4.005819 1.713865 5.023418 0
M  V30 36 H 4.212029 -1.278215 5.675700 0
M  V30 37 H 3.005846 -0.244003 6.602983 0
M  V30 38 H 1.915509 -1.347599 4.725436 0
M  V30 39 H 1.906432 0.395103 4.518771 0
M  V30 40 H 3.300799 1.369428 2.798512 0
M  V30 41 H 4.824387 0.330067 2.642818 0
M  V30 42 H 4.123948 -0.493646 0.632153 0
M  V30 43 H 3.511007 1.159689 0.480405 0
M  V30 44 H 0.774159 0.421917 2.316248 0
M  V30 45 H 0.082158 -0.472004 0.979836 0
M  V30 46 H 1.536115 2.848363 1.892288 0
M  V30 47 H 0.892617 4.849787 0.580723 0
M  V30 48 H -1.535685 3.269362 -3.107584 0
M  V30 49 H -0.796360 -2.382872 -5.079200 0
M  V30 50 H -2.347792 -4.272825 -4.458307 0
M  V30 51 H -6.787530 -4.861267 0.301955 0
M  V30 52 H -7.287657 -6.442764 -0.384035 0
M  V30 53 H -7.963795 -4.968033 -1.120280 0
M  V30 54 H -4.303644 -1.720989 -1.640139 0
M  V30 55 H -3.257017 0.806852 -1.532296 0
M  V30 56 H -0.408183 0.494087 -0.993769 0
M  V30 57 H 1.061783 -2.103223 1.523821 0
M  V30 58 H 2.501254 -2.459364 0.563677 0
M  V30 59 H 3.926945 -2.420810 2.373910 0
M  V30 60 H 2.414410 -2.603878 3.277902 0
M  V30 END ATOM
M  V30 BEGIN BOND
M  V30 1 1 1 2
M  V30 2 1 2 3
M  V30 3 1 3 4
M  V30 4 1 4 5
M  V30 5 1 5 6
M  V30 6 1 6 7
M  V30 7 1 7 8
M  V30 8 1 8 9
M  V30 9 2 9 10
M  V30 10 1 10 11
M  V30 11 2 11 12
M  V30 12 1 12 13
M  V30 13 1 13 14
M  V30 14 1 14 15
M  V30 15 2 15 16
M  V30 16 1 16 17
M  V30 17 2 17 18
M  V30 18 1 18 19
M  V30 19 2 19 20
M  V30 20 1 20 21
M  V30 21 2 21 22
M  V30 22 1 22 23
M  V30 23 1 23 24
M  V30 24 2 23 25
M  V30 25 1 25 26
M  V30 26 1 20 27
M  V30 27 2 27 28
M  V30 28 1 28 29
M  V30 29 2 13 30
M  V30 30 1 7 31
M  V30 31 1 31 32
M  V30 32 1 32 4
M  V30 33 1 30 9
M  V30 34 1 29 15
M  V30 35 1 28 17
M  V30 36 1 26 21
M  V30 37 1 1 33
M  V30 38 1 1 34
M  V30 39 1 1 35
M  V30 40 1 2 36
M  V30 41 1 2 37
M  V30 42 1 3 38
M  V30 43 1 3 39
M  V30 44 1 5 40
M  V30 45 1 5 41
M  V30 46 1 6 42
M  V30 47 1 6 43
M  V30 48 1 8 44
M  V30 49 1 8 45
M  V30 50 1 10 46
M  V30 51 1 11 47
M  V30 52 1 14 48
M  V30 53 1 18 49
M  V30 54 1 19 50
M  V30 55 1 24 51
M  V30 56 1 24 52
M  V30 57 1 24 53
M  V30 58 1 27 54
M  V30 59 1 29 55
M  V30 60 1 30 56
M  V30 61 1 31 57
M  V30 62 1 31 58
M  V30 63 1 32 59
M  V30 64 1 32 60
M  V30 END BOND
M  V30 END CTAB
M  END
>  <Dataset>  (141) 
ChEMBL_Kinases

>  <Ligand_Instance>  (141) 
nan

>  <PDB_ID>  (141) 
nan

>  <Standardized_SMILES>  (141) 
CCCN1CCN(Cc2ccnc(Nc3nc4ccc(-c5nc(C)no5)cc4[nH]3)c2)CC1

>  <Name>  (141) 
nan

>  <Pocket>  (141) 
nan

>  <ATP_Site>  (141) 
nan

>  <Peripheral>  (141) 
nan

>  <Num_H_Atoms_ProtBoundConf>  (141) 
nan

>  <Num_Resolved_Atoms>  (141) 
nan

>  <Num_Not_Resolved_Atoms>  (141) 
nan

$$$$
CHEMBL4461370
     RDKit          3D

  0  0  0  0  0  0  0  0  0  0999 V3000
M  V30 BEGIN CTAB
M  V30 COUNTS 41 43 0 0 0
M  V30 BEGIN ATOM
M  V30 1 C 2.088247 -3.076346 3.284128 0
M  V30 2 C 0.864554 -3.315767 2.416583 0
M  V30 3 C 1.061044 -2.777727 1.020807 0
M  V30 4 C 2.248544 -3.453734 0.348388 0
M  V30 5 C -0.176100 -3.170665 0.231016 0
M  V30 6 N -0.024560 -2.665733 -1.125078 0
M  V30 7 C 1.190507 -1.305537 0.986142 0
M  V30 8 C 2.503314 -0.886965 1.103285 0
M  V30 9 C 2.827785 0.461519 1.092694 0
M  V30 10 C 1.827930 1.423366 0.962747 0
M  V30 11 C 0.529848 0.988085 0.847549 0
M  V30 12 C -0.528385 1.981745 0.713461 0
M  V30 13 C -0.443145 3.044903 1.608660 0
M  V30 14 C -1.391970 4.054662 1.585576 0
M  V30 15 N -2.398430 4.007903 0.695803 0
M  V30 16 C -2.509197 3.001570 -0.177196 0
M  V30 17 N -3.365472 2.652840 -1.174989 0
M  V30 18 N -2.977710 1.498585 -1.740740 0
M  V30 19 C -1.861220 1.060361 -1.132159 0
M  V30 20 C -1.577095 1.985112 -0.173499 0
M  V30 21 C 0.227803 -0.357179 0.860347 0
M  V30 22 H 1.840832 -3.355115 4.334214 0
M  V30 23 H 2.896368 -3.784380 2.991859 0
M  V30 24 H 2.389305 -2.029767 3.306867 0
M  V30 25 H 0.021808 -2.778981 2.879778 0
M  V30 26 H 0.629057 -4.383798 2.375163 0
M  V30 27 H 1.908787 -4.485032 0.086634 0
M  V30 28 H 3.128590 -3.482833 0.988931 0
M  V30 29 H 2.379102 -2.936825 -0.615621 0
M  V30 30 H -1.085953 -2.738046 0.661624 0
M  V30 31 H -0.275031 -4.296374 0.205521 0
M  V30 32 H 0.446790 -1.756830 -1.159834 0
M  V30 33 H -0.869883 -2.780469 -1.692176 0
M  V30 34 H 3.417631 -1.476627 1.212518 0
M  V30 35 H 3.822716 0.887545 1.178053 0
M  V30 36 H 2.036229 2.483118 0.949785 0
M  V30 37 H 0.343835 3.125198 2.338232 0
M  V30 38 H -1.301552 4.874201 2.296647 0
M  V30 39 H -4.191694 3.248107 -1.415194 0
M  V30 40 H -1.321708 0.157199 -1.375660 0
M  V30 41 H -0.778689 -0.737337 0.774213 0
M  V30 END ATOM
M  V30 BEGIN BOND
M  V30 1 1 1 2
M  V30 2 1 2 3
M  V30 3 1 3 4
M  V30 4 1 3 5
M  V30 5 1 5 6
M  V30 6 1 3 7
M  V30 7 2 7 8
M  V30 8 1 8 9
M  V30 9 2 9 10
M  V30 10 1 10 11
M  V30 11 1 11 12
M  V30 12 2 12 13
M  V30 13 1 13 14
M  V30 14 2 14 15
M  V30 15 1 15 16
M  V30 16 1 16 17
M  V30 17 1 17 18
M  V30 18 2 18 19
M  V30 19 1 19 20
M  V30 20 2 11 21
M  V30 21 1 21 7
M  V30 22 1 20 12
M  V30 23 2 20 16
M  V30 24 1 1 22
M  V30 25 1 1 23
M  V30 26 1 1 24
M  V30 27 1 2 25
M  V30 28 1 2 26
M  V30 29 1 4 27
M  V30 30 1 4 28
M  V30 31 1 4 29
M  V30 32 1 5 30
M  V30 33 1 5 31
M  V30 34 1 6 32
M  V30 35 1 6 33
M  V30 36 1 8 34
M  V30 37 1 9 35
M  V30 38 1 10 36
M  V30 39 1 13 37
M  V30 40 1 14 38
M  V30 41 1 17 39
M  V30 42 1 19 40
M  V30 43 1 21 41
M  V30 END BOND
M  V30 END CTAB
M  END
>  <Dataset>  (142) 
ChEMBL_Kinases

>  <Ligand_Instance>  (142) 
nan

>  <PDB_ID>  (142) 
nan

>  <Standardized_SMILES>  (142) 
CCC(C)(CN)c1cccc(-c2ccnc3[nH]ncc23)c1

>  <Name>  (142) 
nan

>  <Pocket>  (142) 
nan

>  <ATP_Site>  (142) 
nan

>  <Peripheral>  (142) 
nan

>  <Num_H_Atoms_ProtBoundConf>  (142) 
nan

>  <Num_Resolved_Atoms>  (142) 
nan

>  <Num_Not_Resolved_Atoms>  (142) 
nan

$$$$
CHEMBL4461353
     RDKit          3D

  0  0  0  0  0  0  0  0  0  0999 V3000
M  V30 BEGIN CTAB
M  V30 COUNTS 63 69 0 0 0
M  V30 BEGIN ATOM
M  V30 1 C 4.127409 -0.025425 1.101471 0
M  V30 2 O 4.817297 1.152454 1.392085 0
M  V30 3 C 4.439108 2.425715 1.053357 0
M  V30 4 C 5.244569 3.478964 1.422788 0
M  V30 5 C 4.878636 4.755966 1.090681 0
M  V30 6 C 3.694329 4.979360 0.381752 0
M  V30 7 C 2.823504 3.959732 -0.028466 0
M  V30 8 C 3.286262 2.719290 0.356215 0
M  V30 9 C 1.713648 4.573119 -0.725605 0 CFG=1
M  V30 10 C 1.137021 4.076390 -1.984698 0
M  V30 11 C 0.307629 4.244875 -0.700701 0 CFG=1
M  V30 12 C -0.375200 3.044338 -0.272109 0
M  V30 13 C -0.076131 1.737775 -0.553833 0
M  V30 14 C -0.739093 0.609966 -0.121590 0
M  V30 15 C -1.835691 0.788958 0.690611 0
M  V30 16 C -2.722923 -0.073818 1.299751 0
M  V30 17 C -2.711290 -1.533628 1.222078 0
M  V30 18 C -3.883182 -2.261310 1.001848 0
M  V30 19 C -3.880259 -3.639473 0.927220 0
M  V30 20 C -2.703145 -4.344996 1.070159 0
M  V30 21 N -2.522185 -5.755133 1.021321 0
M  V30 22 C -1.233194 -6.429678 1.181485 0
M  V30 23 C -0.843696 -7.131358 -0.118345 0
M  V30 24 C -1.989852 -7.980231 -0.620995 0
M  V30 25 O -2.446674 -7.440155 -1.823684 0
M  V30 26 C -3.119402 -8.021007 0.366829 0
M  V30 27 C -3.621489 -6.683870 0.803321 0
M  V30 28 N -1.565241 -3.628302 1.284543 0
M  V30 29 C -1.562102 -2.284306 1.358250 0
M  V30 30 N -3.599261 0.703104 1.978918 0
M  V30 31 N -3.311265 1.984790 1.828823 0
M  V30 32 C -2.226730 2.065347 1.037882 0
M  V30 33 C -1.505318 3.140419 0.560488 0
M  V30 34 C 2.050291 6.052234 -0.684843 0
M  V30 35 O 1.302625 6.934474 -1.217135 0
M  V30 36 N 3.250512 6.257856 -0.002274 0
M  V30 37 H 4.836139 -0.877310 1.100054 0
M  V30 38 H 3.683501 0.013167 0.103166 0
M  V30 39 H 3.377876 -0.172048 1.920710 0
M  V30 40 H 6.150920 3.288458 1.967289 0
M  V30 41 H 5.552314 5.537841 1.408960 0
M  V30 42 H 2.714864 1.847939 0.104145 0
M  V30 43 H 0.904338 4.757828 -2.827168 0
M  V30 44 H 1.474536 3.093559 -2.302792 0
M  V30 45 H -0.385298 5.145251 -0.714074 0
M  V30 46 H 0.768984 1.552111 -1.192516 0
M  V30 47 H -0.425150 -0.374573 -0.398527 0
M  V30 48 H -4.836539 -1.747088 0.882951 0
M  V30 49 H -4.753202 -4.243711 0.759795 0
M  V30 50 H -0.466091 -5.646857 1.331555 0
M  V30 51 H -1.255779 -7.197073 1.974765 0
M  V30 52 H 0.075707 -7.707038 0.096356 0
M  V30 53 H -0.579633 -6.351326 -0.860034 0
M  V30 54 H -1.648117 -9.024460 -0.756775 0
M  V30 55 H -3.416970 -7.333268 -1.822141 0
M  V30 56 H -3.953723 -8.566625 -0.152884 0
M  V30 57 H -2.819661 -8.618677 1.254242 0
M  V30 58 H -4.243956 -6.839924 1.708888 0
M  V30 59 H -4.336917 -6.231669 0.057229 0
M  V30 60 H -0.615939 -1.789338 1.531000 0
M  V30 61 H -3.852234 2.776754 2.262882 0
M  V30 62 H -1.857152 4.117554 0.864861 0
M  V30 63 H 3.652201 7.205516 0.140756 0
M  V30 END ATOM
M  V30 BEGIN BOND
M  V30 1 1 1 2
M  V30 2 1 2 3
M  V30 3 2 3 4
M  V30 4 1 4 5
M  V30 5 2 5 6
M  V30 6 1 6 7
M  V30 7 2 7 8
M  V30 8 1 7 9
M  V30 9 1 9 10 CFG=3
M  V30 10 1 10 11
M  V30 11 1 11 12
M  V30 12 2 12 13
M  V30 13 1 13 14
M  V30 14 2 14 15
M  V30 15 1 15 16
M  V30 16 1 16 17
M  V30 17 2 17 18
M  V30 18 1 18 19
M  V30 19 2 19 20
M  V30 20 1 20 21
M  V30 21 1 21 22
M  V30 22 1 22 23
M  V30 23 1 23 24
M  V30 24 1 24 25
M  V30 25 1 24 26
M  V30 26 1 26 27
M  V30 27 1 20 28
M  V30 28 2 28 29
M  V30 29 2 16 30
M  V30 30 1 30 31
M  V30 31 1 31 32
M  V30 32 2 32 33
M  V30 33 1 9 34
M  V30 34 2 34 35
M  V30 35 1 34 36
M  V30 36 1 8 3
M  V30 37 1 11 9
M  V30 38 1 33 12
M  V30 39 1 36 6
M  V30 40 1 32 15
M  V30 41 1 29 17
M  V30 42 1 27 21
M  V30 43 1 1 37
M  V30 44 1 1 38
M  V30 45 1 1 39
M  V30 46 1 4 40
M  V30 47 1 5 41
M  V30 48 1 8 42
M  V30 49 1 10 43
M  V30 50 1 10 44
M  V30 51 1 11 45 CFG=3
M  V30 52 1 13 46
M  V30 53 1 14 47
M  V30 54 1 18 48
M  V30 55 1 19 49
M  V30 56 1 22 50
M  V30 57 1 22 51
M  V30 58 1 23 52
M  V30 59 1 23 53
M  V30 60 1 24 54
M  V30 61 1 25 55
M  V30 62 1 26 56
M  V30 63 1 26 57
M  V30 64 1 27 58
M  V30 65 1 27 59
M  V30 66 1 29 60
M  V30 67 1 31 61
M  V30 68 1 33 62
M  V30 69 1 36 63
M  V30 END BOND
M  V30 END CTAB
M  END
>  <Dataset>  (143) 
ChEMBL_Kinases

>  <Ligand_Instance>  (143) 
nan

>  <PDB_ID>  (143) 
nan

>  <Standardized_SMILES>  (143) 
COc1ccc2c(c1)[C@]1(C[C@H]1c1ccc3c(-c4ccc(N5CCC(O)CC5)nc4)n[nH]c3c1)C(=O)N2

>  <Name>  (143) 
nan

>  <Pocket>  (143) 
nan

>  <ATP_Site>  (143) 
nan

>  <Peripheral>  (143) 
nan

>  <Num_H_Atoms_ProtBoundConf>  (143) 
nan

>  <Num_Resolved_Atoms>  (143) 
nan

>  <Num_Not_Resolved_Atoms>  (143) 
nan

$$$$
CHEMBL4740586
     RDKit          3D

  0  0  0  0  0  0  0  0  0  0999 V3000
M  V30 BEGIN CTAB
M  V30 COUNTS 56 59 0 0 0
M  V30 BEGIN ATOM
M  V30 1 C 2.790115 -0.870542 -2.029931 0
M  V30 2 C 2.889484 -2.100696 -1.159544 0
M  V30 3 C 3.799171 -1.974687 0.024451 0
M  V30 4 N 1.619457 -2.743716 -0.907795 0
M  V30 5 C 0.905233 -2.742630 0.339786 0
M  V30 6 C 1.148208 -1.660682 1.155129 0
M  V30 7 C 0.501393 -1.589883 2.346652 0
M  V30 8 N 0.540689 -0.555599 3.303972 0
M  V30 9 C 0.958333 0.789315 2.974768 0
M  V30 10 N 2.015561 1.599223 2.993270 0
M  V30 11 C 1.903319 2.865071 2.537405 0
M  V30 12 C 0.703166 3.333314 2.048818 0
M  V30 13 C -0.414073 2.514099 2.016706 0
M  V30 14 C -1.714873 2.969754 1.468312 0
M  V30 15 C -2.641548 1.912014 1.517834 0
M  V30 16 C -3.915869 2.147277 1.033538 0
M  V30 17 C -4.126258 3.432452 0.547082 0
M  V30 18 N -5.428881 3.673563 0.049335 0
M  V30 19 C -3.233464 4.475326 0.492486 0
M  V30 20 C -1.958496 4.219160 0.982281 0
M  V30 21 N -0.176001 1.286930 2.495975 0
M  V30 22 C -0.361680 -2.612741 2.670412 0
M  V30 23 C -0.613916 -3.701512 1.859045 0
M  V30 24 C 0.026986 -3.792960 0.643618 0
M  V30 25 N -0.164745 -4.862294 -0.288968 0
M  V30 26 C -1.092701 -5.923817 0.079360 0
M  V30 27 C 0.555516 -4.828345 -1.532065 0
M  V30 28 O 0.690063 -6.042016 -1.956723 0
M  V30 29 C 0.950336 -3.476649 -1.999569 0 CFG=1
M  V30 30 C -0.274029 -2.768121 -2.494870 0
M  V30 31 H 2.759322 -1.143969 -3.121563 0
M  V30 32 H 1.834251 -0.304545 -1.885365 0
M  V30 33 H 3.689487 -0.210785 -1.954668 0
M  V30 34 H 3.474957 -2.836022 -1.847094 0
M  V30 35 H 4.079505 -0.920227 0.244570 0
M  V30 36 H 4.826031 -2.450737 -0.156020 0
M  V30 37 H 3.453616 -2.543370 0.927300 0
M  V30 38 H 1.809800 -0.882102 0.879053 0
M  V30 39 H 0.290767 -0.642550 4.303434 0
M  V30 40 H 2.825847 3.408137 2.607828 0
M  V30 41 H 0.653728 4.337079 1.696209 0
M  V30 42 H -2.449327 0.922157 1.907962 0
M  V30 43 H -4.704753 1.408540 1.024749 0
M  V30 44 H -6.317253 3.126122 0.065840 0
M  V30 45 H -6.376022 3.852463 -0.314287 0
M  V30 46 H -3.478628 5.452234 0.099568 0
M  V30 47 H -1.172177 4.927471 1.003022 0
M  V30 48 H -0.908496 -2.636573 3.594647 0
M  V30 49 H -1.287839 -4.520271 2.086027 0
M  V30 50 H -1.376486 -6.505619 -0.835993 0
M  V30 51 H -2.031788 -5.520642 0.478548 0
M  V30 52 H -0.643680 -6.610546 0.830711 0
M  V30 53 H 1.654403 -3.598059 -2.841551 0
M  V30 54 H -0.076474 -1.832967 -3.052744 0
M  V30 55 H -0.995926 -2.570104 -1.646935 0
M  V30 56 H -0.789856 -3.481585 -3.181173 0
M  V30 END ATOM
M  V30 BEGIN BOND
M  V30 1 1 1 2
M  V30 2 1 2 3
M  V30 3 1 2 4
M  V30 4 1 4 5
M  V30 5 2 5 6
M  V30 6 1 6 7
M  V30 7 1 7 8
M  V30 8 1 8 9
M  V30 9 2 9 10
M  V30 10 1 10 11
M  V30 11 2 11 12
M  V30 12 1 12 13
M  V30 13 1 13 14
M  V30 14 2 14 15
M  V30 15 1 15 16
M  V30 16 2 16 17
M  V30 17 1 17 18
M  V30 18 1 17 19
M  V30 19 2 19 20
M  V30 20 2 13 21
M  V30 21 2 7 22
M  V30 22 1 22 23
M  V30 23 2 23 24
M  V30 24 1 24 25
M  V30 25 1 25 26
M  V30 26 1 25 27
M  V30 27 2 27 28
M  V30 28 1 27 29
M  V30 29 1 29 30
M  V30 30 1 29 4
M  V30 31 1 24 5
M  V30 32 1 21 9
M  V30 33 1 20 14
M  V30 34 1 1 31
M  V30 35 1 1 32
M  V30 36 1 1 33
M  V30 37 1 2 34
M  V30 38 1 3 35
M  V30 39 1 3 36
M  V30 40 1 3 37
M  V30 41 1 6 38
M  V30 42 1 8 39
M  V30 43 1 11 40
M  V30 44 1 12 41
M  V30 45 1 15 42
M  V30 46 1 16 43
M  V30 47 1 18 44
M  V30 48 1 18 45
M  V30 49 1 19 46
M  V30 50 1 20 47
M  V30 51 1 22 48
M  V30 52 1 23 49
M  V30 53 1 26 50
M  V30 54 1 26 51
M  V30 55 1 26 52
M  V30 56 1 29 53 CFG=3
M  V30 57 1 30 54
M  V30 58 1 30 55
M  V30 59 1 30 56
M  V30 END BOND
M  V30 END CTAB
M  END
>  <Dataset>  (144) 
ChEMBL_Kinases

>  <Ligand_Instance>  (144) 
nan

>  <PDB_ID>  (144) 
nan

>  <Standardized_SMILES>  (144) 
CC(C)N1c2cc(Nc3nccc(-c4ccc(N)cc4)n3)ccc2N(C)C(=O)[C@H]1C

>  <Name>  (144) 
nan

>  <Pocket>  (144) 
nan

>  <ATP_Site>  (144) 
nan

>  <Peripheral>  (144) 
nan

>  <Num_H_Atoms_ProtBoundConf>  (144) 
nan

>  <Num_Resolved_Atoms>  (144) 
nan

>  <Num_Not_Resolved_Atoms>  (144) 
nan

$$$$
CHEMBL4461296
     RDKit          3D

  0  0  0  0  0  0  0  0  0  0999 V3000
M  V30 BEGIN CTAB
M  V30 COUNTS 67 71 0 0 0
M  V30 BEGIN ATOM
M  V30 1 C 2.723335 -4.027886 1.575909 0
M  V30 2 C 2.896654 -2.992187 0.541246 0
M  V30 3 N 4.061599 -2.968722 -0.127071 0
M  V30 4 C 4.372324 -2.069138 -1.068198 0
M  V30 5 C 3.404195 -1.137511 -1.324661 0
M  V30 6 N 3.683852 -0.157139 -2.317199 0
M  V30 7 C 4.276343 1.135075 -2.272913 0
M  V30 8 O 4.640182 1.515842 -1.115404 0
M  V30 9 C 4.409371 1.880579 -3.509513 0
M  V30 10 C 4.032230 1.496150 -4.772720 0
M  V30 11 C 4.238900 2.347966 -5.845102 0
M  V30 12 C 4.816231 3.594970 -5.723591 0
M  V30 13 C 5.186762 3.957895 -4.441546 0
M  V30 14 C 5.814593 5.314616 -4.309021 0
M  V30 15 F 5.526657 5.874947 -3.062429 0
M  V30 16 F 7.167479 5.148023 -4.367926 0
M  V30 17 F 5.411148 6.156846 -5.307613 0
M  V30 18 C 4.991004 3.124303 -3.352399 0
M  V30 19 C 2.215288 -1.155949 -0.647957 0
M  V30 20 C 1.900859 -2.089168 0.322511 0
M  V30 21 C 0.610900 -1.959717 0.951981 0
M  V30 22 C -0.107224 -2.815607 1.735066 0
M  V30 23 C -1.353445 -2.581793 2.258993 0
M  V30 24 N -2.000479 -3.549921 3.061593 0
M  V30 25 C -2.478871 -3.519581 4.429563 0
M  V30 26 C -3.945822 -3.898645 4.405375 0
M  V30 27 O -4.100688 -5.230677 4.023988 0
M  V30 28 C -3.708099 -5.300068 2.691042 0
M  V30 29 C -2.281159 -4.854263 2.492470 0
M  V30 30 C -1.971784 -1.382330 1.991451 0
M  V30 31 O -3.231587 -1.112227 2.504740 0
M  V30 32 C -3.916348 0.090848 2.269853 0
M  V30 33 C -5.242723 -0.149530 1.597088 0
M  V30 34 C -6.339779 0.725147 2.167362 0
M  V30 35 O -5.808728 1.994617 2.352003 0
M  V30 36 C -4.965911 2.042498 3.445360 0
M  V30 37 C -4.047052 0.865891 3.566737 0
M  V30 38 N -1.263868 -0.542888 1.220319 0
M  V30 39 N -0.066937 -0.816010 0.741182 0
M  V30 40 H 2.155664 -4.906544 1.286138 0
M  V30 41 H 3.760885 -4.455141 1.805287 0
M  V30 42 H 2.464337 -3.582682 2.580388 0
M  V30 43 H 5.339150 -2.152826 -1.535221 0
M  V30 44 H 3.326801 -0.632620 -3.173503 0
M  V30 45 H 3.583152 0.515404 -4.839224 0
M  V30 46 H 3.908495 1.961414 -6.813602 0
M  V30 47 H 4.944722 4.203171 -6.607292 0
M  V30 48 H 5.336107 3.553295 -2.409468 0
M  V30 49 H 1.526959 -0.353580 -0.950393 0
M  V30 50 H 0.311935 -3.758697 1.952388 0
M  V30 51 H -1.900341 -4.238124 5.075388 0
M  V30 52 H -2.365467 -2.539710 4.906411 0
M  V30 53 H -4.458406 -3.289064 3.650739 0
M  V30 54 H -4.455346 -3.730289 5.377349 0
M  V30 55 H -4.336860 -4.657704 2.031815 0
M  V30 56 H -3.764316 -6.331590 2.290865 0
M  V30 57 H -1.621945 -5.570627 3.024323 0
M  V30 58 H -2.107511 -4.845245 1.401542 0
M  V30 59 H -3.259187 0.741284 1.620392 0
M  V30 60 H -5.475834 -1.230814 1.649658 0
M  V30 61 H -5.113844 0.106504 0.513436 0
M  V30 62 H -6.660439 0.306146 3.138784 0
M  V30 63 H -7.183087 0.781374 1.448685 0
M  V30 64 H -4.400024 3.012249 3.368375 0
M  V30 65 H -5.605292 2.178804 4.359706 0
M  V30 66 H -4.456799 0.214483 4.365160 0
M  V30 67 H -3.032151 1.245659 3.806079 0
M  V30 END ATOM
M  V30 BEGIN BOND
M  V30 1 1 1 2
M  V30 2 2 2 3
M  V30 3 1 3 4
M  V30 4 2 4 5
M  V30 5 1 5 6
M  V30 6 1 6 7
M  V30 7 2 7 8
M  V30 8 1 7 9
M  V30 9 2 9 10
M  V30 10 1 10 11
M  V30 11 2 11 12
M  V30 12 1 12 13
M  V30 13 1 13 14
M  V30 14 1 14 15
M  V30 15 1 14 16
M  V30 16 1 14 17
M  V30 17 2 13 18
M  V30 18 1 5 19
M  V30 19 2 19 20
M  V30 20 1 20 21
M  V30 21 2 21 22
M  V30 22 1 22 23
M  V30 23 1 23 24
M  V30 24 1 24 25
M  V30 25 1 25 26
M  V30 26 1 26 27
M  V30 27 1 27 28
M  V30 28 1 28 29
M  V30 29 2 23 30
M  V30 30 1 30 31
M  V30 31 1 31 32
M  V30 32 1 32 33
M  V30 33 1 33 34
M  V30 34 1 34 35
M  V30 35 1 35 36
M  V30 36 1 36 37
M  V30 37 1 30 38
M  V30 38 2 38 39
M  V30 39 1 20 2
M  V30 40 1 39 21
M  V30 41 1 18 9
M  V30 42 1 29 24
M  V30 43 1 37 32
M  V30 44 1 1 40
M  V30 45 1 1 41
M  V30 46 1 1 42
M  V30 47 1 4 43
M  V30 48 1 6 44
M  V30 49 1 10 45
M  V30 50 1 11 46
M  V30 51 1 12 47
M  V30 52 1 18 48
M  V30 53 1 19 49
M  V30 54 1 22 50
M  V30 55 1 25 51
M  V30 56 1 25 52
M  V30 57 1 26 53
M  V30 58 1 26 54
M  V30 59 1 28 55
M  V30 60 1 28 56
M  V30 61 1 29 57
M  V30 62 1 29 58
M  V30 63 1 32 59
M  V30 64 1 33 60
M  V30 65 1 33 61
M  V30 66 1 34 62
M  V30 67 1 34 63
M  V30 68 1 36 64
M  V30 69 1 36 65
M  V30 70 1 37 66
M  V30 71 1 37 67
M  V30 END BOND
M  V30 END CTAB
M  END
>  <Dataset>  (145) 
ChEMBL_Kinases

>  <Ligand_Instance>  (145) 
nan

>  <PDB_ID>  (145) 
nan

>  <Standardized_SMILES>  (145) 
Cc1ncc(NC(=O)c2cccc(C(F)(F)F)c2)cc1-c1cc(N2CCOCC2)c(OC2CCOCC2)nn1

>  <Name>  (145) 
nan

>  <Pocket>  (145) 
nan

>  <ATP_Site>  (145) 
nan

>  <Peripheral>  (145) 
nan

>  <Num_H_Atoms_ProtBoundConf>  (145) 
nan

>  <Num_Resolved_Atoms>  (145) 
nan

>  <Num_Not_Resolved_Atoms>  (145) 
nan

$$$$
CHEMBL4740604
     RDKit          3D

  0  0  0  0  0  0  0  0  0  0999 V3000
M  V30 BEGIN CTAB
M  V30 COUNTS 40 42 0 0 0
M  V30 BEGIN ATOM
M  V30 1 C 1.067454 -6.158467 1.207301 0
M  V30 2 C 2.123189 -5.872967 0.128483 0
M  V30 3 C 3.260842 -5.194304 0.868445 0
M  V30 4 S 1.379312 -4.861800 -1.146922 0
M  V30 5 C 0.966925 -3.228413 -0.641819 0
M  V30 6 C -0.197744 -2.725081 -0.075430 0
M  V30 7 C -0.333887 -1.394638 0.250148 0
M  V30 8 C 0.722133 -0.552148 0.001712 0
M  V30 9 C 0.618163 0.850862 0.342093 0
M  V30 10 C 1.430346 1.875379 0.171448 0
M  V30 11 C 1.139052 3.143135 0.562960 0
M  V30 12 N 1.797022 4.314009 0.511102 0
M  V30 13 C 1.277140 5.432878 0.994576 0
M  V30 14 N 0.061436 5.585294 1.591422 0
M  V30 15 C -0.686192 4.491327 1.700738 0
M  V30 16 S -2.220922 4.559541 2.496107 0
M  V30 17 C -3.251350 3.119114 2.509277 0
M  V30 18 C -3.904391 2.821196 1.177473 0
M  V30 19 O -3.810006 2.115050 0.119907 0
M  V30 20 O -5.057545 3.614990 1.020473 0
M  V30 21 C -0.112191 3.269755 1.169713 0
M  V30 22 S -0.791238 1.572180 1.142071 0
M  V30 23 C 1.935422 -0.966456 -0.565994 0
M  V30 24 C 2.007898 -2.321645 -0.871035 0
M  V30 25 H 1.137060 -5.405557 2.004771 0
M  V30 26 H 0.062890 -6.049181 0.722208 0
M  V30 27 H 1.166600 -7.199014 1.592762 0
M  V30 28 H 2.471172 -6.845645 -0.240346 0
M  V30 29 H 3.560380 -5.908736 1.674434 0
M  V30 30 H 4.138897 -4.981583 0.264594 0
M  V30 31 H 2.819451 -4.315450 1.399731 0
M  V30 32 H -0.947150 -3.485555 0.066094 0
M  V30 33 H -1.267404 -1.080060 0.685788 0
M  V30 34 H 2.400921 1.679985 -0.317616 0
M  V30 35 H 1.957137 6.293998 0.867702 0
M  V30 36 H -4.041522 3.197465 3.266199 0
M  V30 37 H -2.672641 2.194500 2.813308 0
M  V30 38 H -5.724972 3.428996 0.298522 0
M  V30 39 H 2.746906 -0.276718 -0.747125 0
M  V30 40 H 2.974888 -2.584681 -1.309449 0
M  V30 END ATOM
M  V30 BEGIN BOND
M  V30 1 1 1 2
M  V30 2 1 2 3
M  V30 3 1 2 4
M  V30 4 1 4 5
M  V30 5 2 5 6
M  V30 6 1 6 7
M  V30 7 2 7 8
M  V30 8 1 8 9
M  V30 9 2 9 10
M  V30 10 1 10 11
M  V30 11 2 11 12
M  V30 12 1 12 13
M  V30 13 2 13 14
M  V30 14 1 14 15
M  V30 15 1 15 16
M  V30 16 1 16 17
M  V30 17 1 17 18
M  V30 18 2 18 19
M  V30 19 1 18 20
M  V30 20 2 15 21
M  V30 21 1 21 22
M  V30 22 1 8 23
M  V30 23 2 23 24
M  V30 24 1 24 5
M  V30 25 1 22 9
M  V30 26 1 21 11
M  V30 27 1 1 25
M  V30 28 1 1 26
M  V30 29 1 1 27
M  V30 30 1 2 28
M  V30 31 1 3 29
M  V30 32 1 3 30
M  V30 33 1 3 31
M  V30 34 1 6 32
M  V30 35 1 7 33
M  V30 36 1 10 34
M  V30 37 1 13 35
M  V30 38 1 17 36
M  V30 39 1 17 37
M  V30 40 1 20 38
M  V30 41 1 23 39
M  V30 42 1 24 40
M  V30 END BOND
M  V30 END CTAB
M  END
>  <Dataset>  (146) 
ChEMBL_Kinases

>  <Ligand_Instance>  (146) 
nan

>  <PDB_ID>  (146) 
nan

>  <Standardized_SMILES>  (146) 
CC(C)Sc1ccc(-c2cc3ncnc(SCC(=O)O)c3s2)cc1

>  <Name>  (146) 
nan

>  <Pocket>  (146) 
nan

>  <ATP_Site>  (146) 
nan

>  <Peripheral>  (146) 
nan

>  <Num_H_Atoms_ProtBoundConf>  (146) 
nan

>  <Num_Resolved_Atoms>  (146) 
nan

>  <Num_Not_Resolved_Atoms>  (146) 
nan

$$$$
CHEMBL4461276
     RDKit          3D

  0  0  0  0  0  0  0  0  0  0999 V3000
M  V30 BEGIN CTAB
M  V30 COUNTS 62 67 0 0 0
M  V30 BEGIN ATOM
M  V30 1 C 3.993326 -1.358451 6.799754 0
M  V30 2 C 3.292995 -1.062212 5.541081 0
M  V30 3 N 3.830228 -1.450299 4.377066 0
M  V30 4 C 3.251007 -1.218620 3.183639 0
M  V30 5 N 3.881439 -1.663875 1.994234 0
M  V30 6 C 3.449816 -1.529547 0.649120 0
M  V30 7 N 4.192560 -2.037645 -0.335872 0
M  V30 8 C 3.875564 -1.968403 -1.634172 0
M  V30 9 C 2.713753 -1.339105 -2.017526 0
M  V30 10 C 1.970890 -0.827917 -0.999387 0
M  V30 11 C 0.701787 -0.128354 -1.236807 0
M  V30 12 S 0.060175 1.586787 -1.037901 0
M  V30 13 C -1.667106 1.081396 -1.710743 0
M  V30 14 C -2.756820 2.088100 -1.825701 0
M  V30 15 C -3.361829 2.102180 -3.191679 0
M  V30 16 C -4.467971 1.078006 -3.351824 0
M  V30 17 N -4.313722 -0.000893 -2.401987 0
M  V30 18 C -4.486008 0.439565 -1.036278 0
M  V30 19 C -3.812781 1.743618 -0.767913 0
M  V30 20 N -1.543609 -0.073552 -1.943750 0
M  V30 21 C -0.437686 -0.782659 -1.756648 0
M  V30 22 C -0.479746 -2.221225 -2.108259 0
M  V30 23 C -0.733319 -2.598507 -3.431545 0
M  V30 24 C -0.768770 -3.940671 -3.734497 0
M  V30 25 C -0.567533 -4.935883 -2.803409 0
M  V30 26 F -0.623672 -6.237811 -3.209073 0
M  V30 27 C -0.316437 -4.548102 -1.491282 0
M  V30 28 C -0.275299 -3.200986 -1.159034 0
M  V30 29 N 2.322158 -0.917759 0.284010 0
M  V30 30 C 2.052805 -0.544748 3.264707 0
M  V30 31 C 1.448565 -0.118910 4.437667 0
M  V30 32 C 0.148808 0.593576 4.371063 0
M  V30 33 C -1.056828 -0.276442 4.323862 0
M  V30 34 C -0.796192 0.660993 5.486304 0
M  V30 35 C 2.098706 -0.391101 5.615824 0
M  V30 36 F 1.588400 -0.014195 6.799421 0
M  V30 37 H 4.447438 -2.382281 6.758307 0
M  V30 38 H 3.296451 -1.392422 7.673666 0
M  V30 39 H 4.845772 -0.669575 6.988784 0
M  V30 40 H 4.808432 -2.168668 2.137148 0
M  V30 41 H 4.548452 -2.415859 -2.368005 0
M  V30 42 H 2.413228 -1.254911 -3.039237 0
M  V30 43 H -2.400041 3.111806 -1.569152 0
M  V30 44 H -3.791595 3.107600 -3.362490 0
M  V30 45 H -2.555516 1.943819 -3.949901 0
M  V30 46 H -5.482382 1.555345 -3.310904 0
M  V30 47 H -4.396567 0.644392 -4.365688 0
M  V30 48 H -5.040206 -0.720525 -2.604675 0
M  V30 49 H -5.556895 0.462060 -0.716669 0
M  V30 50 H -3.987949 -0.344817 -0.397651 0
M  V30 51 H -3.308099 1.775584 0.212343 0
M  V30 52 H -4.552193 2.584457 -0.781583 0
M  V30 53 H -0.895202 -1.846608 -4.179298 0
M  V30 54 H -0.972537 -4.167657 -4.791083 0
M  V30 55 H -0.156267 -5.329173 -0.743970 0
M  V30 56 H -0.084023 -2.878777 -0.154931 0
M  V30 57 H 1.529247 -0.321201 2.369002 0
M  V30 58 H 0.113628 1.455108 3.646895 0
M  V30 59 H -1.944424 0.016045 3.704788 0
M  V30 60 H -0.992522 -1.356661 4.537517 0
M  V30 61 H -1.446715 1.580985 5.573016 0
M  V30 62 H -0.648352 0.203345 6.475017 0
M  V30 END ATOM
M  V30 BEGIN BOND
M  V30 1 1 1 2
M  V30 2 2 2 3
M  V30 3 1 3 4
M  V30 4 1 4 5
M  V30 5 1 5 6
M  V30 6 2 6 7
M  V30 7 1 7 8
M  V30 8 2 8 9
M  V30 9 1 9 10
M  V30 10 1 10 11
M  V30 11 1 11 12
M  V30 12 1 12 13
M  V30 13 1 13 14
M  V30 14 1 14 15
M  V30 15 1 15 16
M  V30 16 1 16 17
M  V30 17 1 17 18
M  V30 18 1 18 19
M  V30 19 2 13 20
M  V30 20 1 20 21
M  V30 21 1 21 22
M  V30 22 2 22 23
M  V30 23 1 23 24
M  V30 24 2 24 25
M  V30 25 1 25 26
M  V30 26 1 25 27
M  V30 27 2 27 28
M  V30 28 2 10 29
M  V30 29 2 4 30
M  V30 30 1 30 31
M  V30 31 1 31 32
M  V30 32 1 32 33
M  V30 33 1 33 34
M  V30 34 2 31 35
M  V30 35 1 35 36
M  V30 36 1 35 2
M  V30 37 1 29 6
M  V30 38 1 34 32
M  V30 39 2 21 11
M  V30 40 1 28 22
M  V30 41 1 19 14
M  V30 42 1 1 37
M  V30 43 1 1 38
M  V30 44 1 1 39
M  V30 45 1 5 40
M  V30 46 1 8 41
M  V30 47 1 9 42
M  V30 48 1 14 43
M  V30 49 1 15 44
M  V30 50 1 15 45
M  V30 51 1 16 46
M  V30 52 1 16 47
M  V30 53 1 17 48
M  V30 54 1 18 49
M  V30 55 1 18 50
M  V30 56 1 19 51
M  V30 57 1 19 52
M  V30 58 1 23 53
M  V30 59 1 24 54
M  V30 60 1 27 55
M  V30 61 1 28 56
M  V30 62 1 30 57
M  V30 63 1 32 58
M  V30 64 1 33 59
M  V30 65 1 33 60
M  V30 66 1 34 61
M  V30 67 1 34 62
M  V30 END BOND
M  V30 END CTAB
M  END
>  <Dataset>  (147) 
ChEMBL_Kinases

>  <Ligand_Instance>  (147) 
nan

>  <PDB_ID>  (147) 
nan

>  <Standardized_SMILES>  (147) 
Cc1nc(Nc2nccc(-c3sc(C4CCNCC4)nc3-c3ccc(F)cc3)n2)cc(C2CC2)c1F

>  <Name>  (147) 
nan

>  <Pocket>  (147) 
nan

>  <ATP_Site>  (147) 
nan

>  <Peripheral>  (147) 
nan

>  <Num_H_Atoms_ProtBoundConf>  (147) 
nan

>  <Num_Resolved_Atoms>  (147) 
nan

>  <Num_Not_Resolved_Atoms>  (147) 
nan

$$$$
CHEMBL4740635
     RDKit          3D

  0  0  0  0  0  0  0  0  0  0999 V3000
M  V30 BEGIN CTAB
M  V30 COUNTS 37 40 0 0 0
M  V30 BEGIN ATOM
M  V30 1 O -0.897147 -1.987923 1.476720 0
M  V30 2 C -0.312420 -0.892460 1.551284 0
M  V30 3 C 1.042976 -0.735936 1.300295 0
M  V30 4 C 1.799836 -1.850563 0.947312 0
M  V30 5 C 3.166483 -1.735505 0.687166 0
M  V30 6 C 4.015056 -2.861876 0.311403 0
M  V30 7 C 4.000381 -4.202100 0.623038 0
M  V30 8 N 5.034794 -4.809515 -0.008080 0
M  V30 9 N 5.711883 -3.909808 -0.712503 0
M  V30 10 C 5.116066 -2.718254 -0.537856 0
M  V30 11 C 3.709930 -0.474165 0.799268 0
M  V30 12 C 3.024761 0.673548 1.143376 0
M  V30 13 C 1.675166 0.486331 1.387084 0
M  V30 14 N 0.929754 1.573057 1.733274 0
M  V30 15 C -0.399099 1.435515 1.982131 0
M  V30 16 N -0.996058 0.230528 1.890962 0
M  V30 17 C -2.421053 0.210392 2.179053 0
M  V30 18 C -3.160254 0.455837 0.897559 0
M  V30 19 C -3.407525 1.808812 0.640023 0
M  V30 20 C -4.074517 2.131412 -0.503131 0
M  V30 21 C -4.491922 1.153305 -1.377774 0
M  V30 22 C -4.251822 -0.175924 -1.129387 0
M  V30 23 C -3.568519 -0.529595 0.038354 0
M  V30 24 H 1.347738 -2.822707 0.867448 0
M  V30 25 H 3.240088 -4.602348 1.277467 0
M  V30 26 H 6.526551 -4.293091 -1.230801 0
M  V30 27 H 5.533820 -1.864515 -1.040872 0
M  V30 28 H 4.771167 -0.379839 0.598178 0
M  V30 29 H 3.505579 1.639547 1.216042 0
M  V30 30 H -0.904134 2.352089 2.249250 0
M  V30 31 H -2.694942 0.951404 2.926159 0
M  V30 32 H -2.662376 -0.836453 2.479104 0
M  V30 33 H -3.097850 2.614001 1.298856 0
M  V30 34 H -4.295308 3.158065 -0.756749 0
M  V30 35 H -5.028040 1.419839 -2.292724 0
M  V30 36 H -4.546523 -0.999876 -1.767258 0
M  V30 37 H -3.344871 -1.567652 0.299298 0
M  V30 END ATOM
M  V30 BEGIN BOND
M  V30 1 2 1 2
M  V30 2 1 2 3
M  V30 3 2 3 4
M  V30 4 1 4 5
M  V30 5 1 5 6
M  V30 6 1 6 7
M  V30 7 2 7 8
M  V30 8 1 8 9
M  V30 9 1 9 10
M  V30 10 2 5 11
M  V30 11 1 11 12
M  V30 12 2 12 13
M  V30 13 1 13 14
M  V30 14 2 14 15
M  V30 15 1 15 16
M  V30 16 1 16 17
M  V30 17 1 17 18
M  V30 18 2 18 19
M  V30 19 1 19 20
M  V30 20 2 20 21
M  V30 21 1 21 22
M  V30 22 2 22 23
M  V30 23 1 16 2
M  V30 24 1 23 18
M  V30 25 1 13 3
M  V30 26 2 10 6
M  V30 27 1 4 24
M  V30 28 1 7 25
M  V30 29 1 9 26
M  V30 30 1 10 27
M  V30 31 1 11 28
M  V30 32 1 12 29
M  V30 33 1 15 30
M  V30 34 1 17 31
M  V30 35 1 17 32
M  V30 36 1 19 33
M  V30 37 1 20 34
M  V30 38 1 21 35
M  V30 39 1 22 36
M  V30 40 1 23 37
M  V30 END BOND
M  V30 END CTAB
M  END
>  <Dataset>  (148) 
ChEMBL_Kinases

>  <Ligand_Instance>  (148) 
nan

>  <PDB_ID>  (148) 
nan

>  <Standardized_SMILES>  (148) 
O=c1c2cc(-c3cn[nH]c3)ccc2ncn1Cc1ccccc1

>  <Name>  (148) 
nan

>  <Pocket>  (148) 
nan

>  <ATP_Site>  (148) 
nan

>  <Peripheral>  (148) 
nan

>  <Num_H_Atoms_ProtBoundConf>  (148) 
nan

>  <Num_Resolved_Atoms>  (148) 
nan

>  <Num_Not_Resolved_Atoms>  (148) 
nan

$$$$
CHEMBL4740577
     RDKit          3D

  0  0  0  0  0  0  0  0  0  0999 V3000
M  V30 BEGIN CTAB
M  V30 COUNTS 69 73 0 0 0
M  V30 BEGIN ATOM
M  V30 1 C 5.314977 2.433777 2.928421 0
M  V30 2 C 4.404532 2.701011 1.774800 0
M  V30 3 C 5.233130 2.604162 0.515520 0
M  V30 4 O 5.460695 3.579288 -0.270960 0
M  V30 5 N 5.886849 1.453187 -0.004547 0
M  V30 6 C 6.545946 1.807370 -1.203626 0
M  V30 7 C 7.747381 2.261998 -1.641681 0
M  V30 8 C 7.628072 2.373945 -2.999188 0
M  V30 9 C 8.727057 2.842522 -3.885735 0
M  V30 10 C 8.805689 2.307522 -5.268919 0
M  V30 11 C 8.327869 3.765373 -5.049992 0
M  V30 12 N 6.415408 2.009162 -3.395786 0
M  V30 13 N 5.742569 1.658617 -2.294513 0
M  V30 14 C 3.228178 1.804943 1.741851 0
M  V30 15 C 3.238916 0.447096 1.976472 0
M  V30 16 C 2.132436 -0.374387 1.928585 0
M  V30 17 C 0.891326 0.197883 1.618957 0
M  V30 18 C -0.277701 -0.672366 1.563319 0
M  V30 19 C -1.271915 -0.318555 0.674389 0
M  V30 20 C -2.406377 -1.096315 0.561460 0
M  V30 21 C -2.580510 -2.251400 1.334418 0
M  V30 22 N -3.759034 -3.032419 1.186271 0
M  V30 23 C -3.942074 -4.204146 1.981858 0
M  V30 24 O -2.985965 -4.415855 2.764372 0
M  V30 25 C -5.119506 -5.054677 1.884152 0
M  V30 26 C -6.103941 -4.799072 1.045034 0
M  V30 27 C -7.318854 -5.598848 0.882862 0
M  V30 28 N -8.533932 -4.901620 1.143960 0
M  V30 29 C -8.774665 -4.524179 2.494600 0
M  V30 30 C -9.173605 -3.057260 2.530836 0
M  V30 31 O -10.336226 -2.872703 1.803211 0
M  V30 32 C -10.192669 -3.309178 0.493424 0
M  V30 33 C -8.816080 -3.852232 0.189654 0
M  V30 34 N -1.591743 -2.565706 2.190219 0
M  V30 35 C -0.467334 -1.804087 2.309418 0
M  V30 36 C 0.836296 1.553366 1.377561 0
M  V30 37 C 1.979617 2.362406 1.433894 0
M  V30 38 H 4.712648 2.527693 3.860903 0
M  V30 39 H 6.208974 3.075323 2.944017 0
M  V30 40 H 5.660428 1.385678 2.895989 0
M  V30 41 H 4.065356 3.781525 1.763038 0
M  V30 42 H 5.778131 0.562212 0.568503 0
M  V30 43 H 8.513616 2.440427 -0.925589 0
M  V30 44 H 9.688883 3.091741 -3.407940 0
M  V30 45 H 8.017869 1.648562 -5.690032 0
M  V30 46 H 9.792489 2.167844 -5.743835 0
M  V30 47 H 7.236238 3.961057 -5.133192 0
M  V30 48 H 9.056021 4.546575 -5.351668 0
M  V30 49 H 6.036343 1.993286 -4.387471 0
M  V30 50 H 4.169103 -0.009273 2.217703 0
M  V30 51 H 2.193436 -1.427987 2.119835 0
M  V30 52 H -1.174907 0.554306 0.069049 0
M  V30 53 H -3.174449 -0.786335 -0.153130 0
M  V30 54 H -4.479133 -2.737865 0.494502 0
M  V30 55 H -5.192803 -5.922068 2.516645 0
M  V30 56 H -6.095337 -3.946730 0.383940 0
M  V30 57 H -7.323203 -6.499480 1.565250 0
M  V30 58 H -7.379890 -5.970627 -0.173694 0
M  V30 59 H -7.981155 -4.750165 3.215812 0
M  V30 60 H -9.676916 -5.119457 2.828103 0
M  V30 61 H -8.367020 -2.484171 2.048941 0
M  V30 62 H -9.336119 -2.729556 3.593669 0
M  V30 63 H -10.967041 -4.092669 0.326416 0
M  V30 64 H -10.460682 -2.458300 -0.164556 0
M  V30 65 H -8.069021 -3.063024 0.128183 0
M  V30 66 H -8.876640 -4.358058 -0.802131 0
M  V30 67 H 0.326770 -2.055345 2.997248 0
M  V30 68 H -0.113107 1.981253 1.142392 0
M  V30 69 H 1.925145 3.429221 1.242855 0
M  V30 END ATOM
M  V30 BEGIN BOND
M  V30 1 1 1 2
M  V30 2 1 2 3
M  V30 3 2 3 4
M  V30 4 1 3 5
M  V30 5 1 5 6
M  V30 6 1 6 7
M  V30 7 2 7 8
M  V30 8 1 8 9
M  V30 9 1 9 10
M  V30 10 1 10 11
M  V30 11 1 8 12
M  V30 12 1 12 13
M  V30 13 1 2 14
M  V30 14 2 14 15
M  V30 15 1 15 16
M  V30 16 2 16 17
M  V30 17 1 17 18
M  V30 18 2 18 19
M  V30 19 1 19 20
M  V30 20 2 20 21
M  V30 21 1 21 22
M  V30 22 1 22 23
M  V30 23 2 23 24
M  V30 24 1 23 25
M  V30 25 2 25 26
M  V30 26 1 26 27
M  V30 27 1 27 28
M  V30 28 1 28 29
M  V30 29 1 29 30
M  V30 30 1 30 31
M  V30 31 1 31 32
M  V30 32 1 32 33
M  V30 33 1 21 34
M  V30 34 2 34 35
M  V30 35 1 17 36
M  V30 36 2 36 37
M  V30 37 2 13 6
M  V30 38 1 37 14
M  V30 39 1 11 9
M  V30 40 1 35 18
M  V30 41 1 33 28
M  V30 42 1 1 38
M  V30 43 1 1 39
M  V30 44 1 1 40
M  V30 45 1 2 41
M  V30 46 1 5 42
M  V30 47 1 7 43
M  V30 48 1 9 44
M  V30 49 1 10 45
M  V30 50 1 10 46
M  V30 51 1 11 47
M  V30 52 1 11 48
M  V30 53 1 12 49
M  V30 54 1 15 50
M  V30 55 1 16 51
M  V30 56 1 19 52
M  V30 57 1 20 53
M  V30 58 1 22 54
M  V30 59 1 25 55
M  V30 60 1 26 56
M  V30 61 1 27 57
M  V30 62 1 27 58
M  V30 63 1 29 59
M  V30 64 1 29 60
M  V30 65 1 30 61
M  V30 66 1 30 62
M  V30 67 1 32 63
M  V30 68 1 32 64
M  V30 69 1 33 65
M  V30 70 1 33 66
M  V30 71 1 35 67
M  V30 72 1 36 68
M  V30 73 1 37 69
M  V30 END BOND
M  V30 END CTAB
M  END
>  <Dataset>  (149) 
ChEMBL_Kinases

>  <Ligand_Instance>  (149) 
nan

>  <PDB_ID>  (149) 
nan

>  <Standardized_SMILES>  (149) 
CC(C(=O)Nc1cc(C2CC2)[nH]n1)c1ccc(-c2ccc(NC(=O)/C=C/CN3CCOCC3)nc2)cc1

>  <Name>  (149) 
nan

>  <Pocket>  (149) 
nan

>  <ATP_Site>  (149) 
nan

>  <Peripheral>  (149) 
nan

>  <Num_H_Atoms_ProtBoundConf>  (149) 
nan

>  <Num_Resolved_Atoms>  (149) 
nan

>  <Num_Not_Resolved_Atoms>  (149) 
nan

$$$$
CHEMBL4463799
     RDKit          3D

  0  0  0  0  0  0  0  0  0  0999 V3000
M  V30 BEGIN CTAB
M  V30 COUNTS 42 45 0 0 0
M  V30 BEGIN ATOM
M  V30 1 C 1.528266 -2.767744 0.762908 0
M  V30 2 C 1.057559 -2.257299 2.096365 0
M  V30 3 C 0.825748 -3.385620 3.084292 0
M  V30 4 N -0.493965 -3.923984 2.756630 0
M  V30 5 C -1.526716 -3.085754 3.325030 0
M  V30 6 C -1.282465 -1.657312 2.966532 0
M  V30 7 N -0.193208 -1.532735 2.020018 0
M  V30 8 C -0.126751 -0.688546 0.850030 0
M  V30 9 C 0.872702 0.284875 0.818582 0
M  V30 10 C 1.051122 1.161353 -0.229524 0
M  V30 11 C 2.099043 2.176284 -0.254004 0
M  V30 12 C 3.025164 2.384770 0.745761 0
M  V30 13 C 3.986662 3.388261 0.616107 0
M  V30 14 N 4.052549 4.181768 -0.467965 0
M  V30 15 C 3.154638 3.989736 -1.452266 0
M  V30 16 C 2.198367 3.008785 -1.348662 0
M  V30 17 N 0.194044 1.038650 -1.258975 0
M  V30 18 C -0.784611 0.131846 -1.297191 0
M  V30 19 C -1.635084 0.049566 -2.379941 0
M  V30 20 N -2.590230 -0.882877 -2.349576 0
M  V30 21 C -2.776838 -1.752340 -1.323969 0
M  V30 22 C -1.936170 -1.683890 -0.234518 0
M  V30 23 C -0.957619 -0.740433 -0.247763 0
M  V30 24 H 2.375383 -3.451457 0.949328 0
M  V30 25 H 0.748945 -3.370564 0.261309 0
M  V30 26 H 1.832973 -1.887101 0.158107 0
M  V30 27 H 1.876270 -1.636304 2.514450 0
M  V30 28 H 0.737426 -2.937564 4.098269 0
M  V30 29 H 1.596810 -4.174898 3.010177 0
M  V30 30 H -0.579301 -3.893514 1.718114 0
M  V30 31 H -2.515828 -3.373081 2.899947 0
M  V30 32 H -1.583300 -3.255132 4.436272 0
M  V30 33 H -2.190545 -1.137587 2.633862 0
M  V30 34 H -0.962750 -1.149471 3.925245 0
M  V30 35 H 1.531424 0.350433 1.652373 0
M  V30 36 H 2.987567 1.765880 1.610782 0
M  V30 37 H 4.674565 3.468351 1.469624 0
M  V30 38 H 3.232142 4.647566 -2.318603 0
M  V30 39 H 1.538170 2.945526 -2.188015 0
M  V30 40 H -1.539334 0.719735 -3.238645 0
M  V30 41 H -3.568283 -2.495082 -1.343263 0
M  V30 42 H -2.069646 -2.365641 0.584481 0
M  V30 END ATOM
M  V30 BEGIN BOND
M  V30 1 1 1 2
M  V30 2 1 2 3
M  V30 3 1 3 4
M  V30 4 1 4 5
M  V30 5 1 5 6
M  V30 6 1 6 7
M  V30 7 1 7 8
M  V30 8 2 8 9
M  V30 9 1 9 10
M  V30 10 1 10 11
M  V30 11 2 11 12
M  V30 12 1 12 13
M  V30 13 2 13 14
M  V30 14 1 14 15
M  V30 15 2 15 16
M  V30 16 2 10 17
M  V30 17 1 17 18
M  V30 18 2 18 19
M  V30 19 1 19 20
M  V30 20 2 20 21
M  V30 21 1 21 22
M  V30 22 2 22 23
M  V30 23 1 7 2
M  V30 24 1 23 8
M  V30 25 1 16 11
M  V30 26 1 23 18
M  V30 27 1 1 24
M  V30 28 1 1 25
M  V30 29 1 1 26
M  V30 30 1 2 27
M  V30 31 1 3 28
M  V30 32 1 3 29
M  V30 33 1 4 30
M  V30 34 1 5 31
M  V30 35 1 5 32
M  V30 36 1 6 33
M  V30 37 1 6 34
M  V30 38 1 9 35
M  V30 39 1 12 36
M  V30 40 1 13 37
M  V30 41 1 15 38
M  V30 42 1 16 39
M  V30 43 1 19 40
M  V30 44 1 21 41
M  V30 45 1 22 42
M  V30 END BOND
M  V30 END CTAB
M  END
>  <Dataset>  (150) 
ChEMBL_Kinases

>  <Ligand_Instance>  (150) 
nan

>  <PDB_ID>  (150) 
nan

>  <Standardized_SMILES>  (150) 
CC1CNCCN1c1cc(-c2ccncc2)nc2cnccc12

>  <Name>  (150) 
nan

>  <Pocket>  (150) 
nan

>  <ATP_Site>  (150) 
nan

>  <Peripheral>  (150) 
nan

>  <Num_H_Atoms_ProtBoundConf>  (150) 
nan

>  <Num_Resolved_Atoms>  (150) 
nan

>  <Num_Not_Resolved_Atoms>  (150) 
nan

$$$$
CHEMBL4463661
     RDKit          3D

  0  0  0  0  0  0  0  0  0  0999 V3000
M  V30 BEGIN CTAB
M  V30 COUNTS 47 51 0 0 0
M  V30 BEGIN ATOM
M  V30 1 O 1.756873 2.084159 4.583112 0
M  V30 2 S 1.779554 0.649954 4.149511 0
M  V30 3 O 1.818604 -0.223425 5.379905 0
M  V30 4 C 3.253582 0.292413 3.241279 0
M  V30 5 C 4.233032 1.175470 2.839360 0
M  V30 6 C 5.307266 0.676879 2.134313 0
M  V30 7 C 5.412084 -0.662746 1.832998 0
M  V30 8 F 6.483730 -1.116280 1.137447 0
M  V30 9 C 4.433200 -1.547268 2.234350 0
M  V30 10 C 3.346334 -1.054924 2.945535 0
M  V30 11 F 2.453145 -2.023489 3.282708 0
M  V30 12 N 0.460716 0.193492 3.201443 0
M  V30 13 C 0.356775 0.893244 1.963908 0
M  V30 14 C -0.427701 0.141674 0.919614 0
M  V30 15 C -1.805928 -0.008168 1.408610 0
M  V30 16 C -1.846299 0.003103 2.786692 0
M  V30 17 S -3.505400 -0.176276 3.291061 0
M  V30 18 C -4.159527 -0.269110 1.553840 0
M  V30 19 N -5.425272 -0.416538 1.040775 0
M  V30 20 C -5.582914 -0.449736 -0.290414 0
M  V30 21 N -4.481653 -0.335372 -1.034675 0
M  V30 22 C -3.230755 -0.190344 -0.588435 0
M  V30 23 N -2.181074 -0.083927 -1.541385 0
M  V30 24 C -1.375333 -1.097045 -2.134307 0
M  V30 25 C -1.611218 -2.400586 -1.754264 0
M  V30 26 C -0.795819 -3.359918 -2.361450 0
M  V30 27 C 0.168065 -2.963261 -3.277094 0
M  V30 28 Cl 1.209307 -4.135060 -4.059145 0
M  V30 29 C 0.356531 -1.636269 -3.617715 0
M  V30 30 C -0.438689 -0.648265 -3.032329 0
M  V30 31 C -2.985047 -0.147141 0.763491 0
M  V30 32 C -0.811432 0.131927 3.887181 0
M  V30 33 H 4.033522 2.194822 3.137126 0
M  V30 34 H 6.045939 1.405844 1.842496 0
M  V30 35 H 4.570305 -2.588675 1.968089 0
M  V30 36 H -0.107828 1.877738 2.176470 0
M  V30 37 H 1.368328 1.117495 1.582790 0
M  V30 38 H 0.061902 -0.766979 0.576118 0
M  V30 39 H -0.483010 0.828988 0.024385 0
M  V30 40 H -6.611623 -0.567949 -0.574272 0
M  V30 41 H -2.110278 0.939539 -1.734445 0
M  V30 42 H -2.377068 -2.654860 -1.034558 0
M  V30 43 H -0.919860 -4.405932 -2.114972 0
M  V30 44 H 1.111723 -1.308540 -4.337361 0
M  V30 45 H -0.322431 0.397125 -3.271516 0
M  V30 46 H -0.832640 -0.771355 4.531024 0
M  V30 47 H -1.001632 1.061302 4.464303 0
M  V30 END ATOM
M  V30 BEGIN BOND
M  V30 1 2 1 2
M  V30 2 2 2 3
M  V30 3 1 2 4
M  V30 4 2 4 5
M  V30 5 1 5 6
M  V30 6 2 6 7
M  V30 7 1 7 8
M  V30 8 1 7 9
M  V30 9 2 9 10
M  V30 10 1 10 11
M  V30 11 1 2 12
M  V30 12 1 12 13
M  V30 13 1 13 14
M  V30 14 1 14 15
M  V30 15 2 15 16
M  V30 16 1 16 17
M  V30 17 1 17 18
M  V30 18 2 18 19
M  V30 19 1 19 20
M  V30 20 2 20 21
M  V30 21 1 21 22
M  V30 22 1 22 23
M  V30 23 1 23 24
M  V30 24 2 24 25
M  V30 25 1 25 26
M  V30 26 2 26 27
M  V30 27 1 27 28
M  V30 28 1 27 29
M  V30 29 2 29 30
M  V30 30 2 22 31
M  V30 31 1 16 32
M  V30 32 1 10 4
M  V30 33 1 32 12
M  V30 34 1 31 15
M  V30 35 1 31 18
M  V30 36 1 30 24
M  V30 37 1 5 33
M  V30 38 1 6 34
M  V30 39 1 9 35
M  V30 40 1 13 36
M  V30 41 1 13 37
M  V30 42 1 14 38
M  V30 43 1 14 39
M  V30 44 1 20 40
M  V30 45 1 23 41
M  V30 46 1 25 42
M  V30 47 1 26 43
M  V30 48 1 29 44
M  V30 49 1 30 45
M  V30 50 1 32 46
M  V30 51 1 32 47
M  V30 END BOND
M  V30 END CTAB
M  END
>  <Dataset>  (151) 
ChEMBL_Kinases

>  <Ligand_Instance>  (151) 
nan

>  <PDB_ID>  (151) 
nan

>  <Standardized_SMILES>  (151) 
O=S(=O)(c1ccc(F)cc1F)N1CCc2c(sc3ncnc(Nc4ccc(Cl)cc4)c23)C1

>  <Name>  (151) 
nan

>  <Pocket>  (151) 
nan

>  <ATP_Site>  (151) 
nan

>  <Peripheral>  (151) 
nan

>  <Num_H_Atoms_ProtBoundConf>  (151) 
nan

>  <Num_Resolved_Atoms>  (151) 
nan

>  <Num_Not_Resolved_Atoms>  (151) 
nan

$$$$
CHEMBL4463624
     RDKit          3D

  0  0  0  0  0  0  0  0  0  0999 V3000
M  V30 BEGIN CTAB
M  V30 COUNTS 56 60 0 0 0
M  V30 BEGIN ATOM
M  V30 1 C -0.688494 -0.630208 7.713474 0
M  V30 2 N -0.835264 -1.865417 6.977863 0
M  V30 3 C -0.939598 -3.126220 7.674563 0
M  V30 4 C -0.802128 -4.288919 6.721949 0
M  V30 5 O -1.448965 -4.045540 5.485587 0
M  V30 6 C -1.180262 -2.863072 4.810784 0
M  V30 7 C -0.868549 -1.755979 5.569836 0
M  V30 8 C -0.609253 -0.604288 4.857032 0
M  V30 9 N -0.659579 -0.574292 3.518260 0
M  V30 10 N -0.954820 -1.616003 2.758840 0
M  V30 11 C -1.064654 -1.823141 1.425884 0
M  V30 12 C -0.868859 -0.862465 0.358019 0
M  V30 13 O -1.023029 -1.273808 -0.813540 0
M  V30 14 N -0.521959 0.496135 0.469230 0
M  V30 15 C -0.291722 1.548384 -0.436633 0
M  V30 16 C -0.066596 2.761982 0.226521 0
M  V30 17 C 0.180905 3.919715 -0.464896 0
M  V30 18 C 0.211002 3.901850 -1.832578 0
M  V30 19 C -0.006377 2.726129 -2.500051 0
M  V30 20 C -0.252588 1.571661 -1.802863 0
M  V30 21 O -0.464615 0.423252 -2.441556 0
M  V30 22 C -0.504924 -0.004656 -3.743501 0
M  V30 23 C 0.749872 0.114778 -4.552995 0
M  V30 24 C 1.896946 -0.692321 -3.930971 0
M  V30 25 C 1.435427 -2.078437 -3.617801 0
M  V30 26 N 0.688095 -2.585604 -4.750297 0
M  V30 27 C 1.046360 -1.905335 -5.978080 0
M  V30 28 C 0.556324 -0.484658 -5.950130 0
M  V30 29 N -1.390915 -3.096734 1.300317 0
M  V30 30 N -1.479529 -3.653418 2.494129 0
M  V30 31 C -1.208500 -2.739478 3.437311 0
M  V30 32 H 0.231479 -0.073644 7.403229 0
M  V30 33 H -1.544839 0.052108 7.619319 0
M  V30 34 H -0.532390 -0.810515 8.810928 0
M  V30 35 H -0.093389 -3.194333 8.383935 0
M  V30 36 H -1.927028 -3.164011 8.191291 0
M  V30 37 H -1.273067 -5.190045 7.192409 0
M  V30 38 H 0.263793 -4.476266 6.497635 0
M  V30 39 H -0.359511 0.291529 5.414433 0
M  V30 40 H -0.440208 0.640395 1.519944 0
M  V30 41 H -0.066184 2.901784 1.322098 0
M  V30 42 H 0.352881 4.849953 0.054877 0
M  V30 43 H 0.408124 4.830897 -2.338115 0
M  V30 44 H 0.026866 2.827080 -3.567722 0
M  V30 45 H -0.893350 -1.058188 -3.737238 0
M  V30 46 H -1.280414 0.611434 -4.298807 0
M  V30 47 H 1.113939 1.145272 -4.681211 0
M  V30 48 H 2.684343 -0.705786 -4.716636 0
M  V30 49 H 2.201788 -0.114726 -3.034441 0
M  V30 50 H 2.321497 -2.705902 -3.374909 0
M  V30 51 H 0.738563 -2.032486 -2.758862 0
M  V30 52 H 0.736524 -3.619051 -4.830767 0
M  V30 53 H 0.504476 -2.419481 -6.799205 0
M  V30 54 H 2.126129 -1.984494 -6.213200 0
M  V30 55 H 1.185480 0.085429 -6.642567 0
M  V30 56 H -0.495749 -0.386710 -6.277281 0
M  V30 END ATOM
M  V30 BEGIN BOND
M  V30 1 1 1 2
M  V30 2 1 2 3
M  V30 3 1 3 4
M  V30 4 1 4 5
M  V30 5 1 5 6
M  V30 6 2 6 7
M  V30 7 1 7 8
M  V30 8 2 8 9
M  V30 9 1 9 10
M  V30 10 1 10 11
M  V30 11 1 11 12
M  V30 12 2 12 13
M  V30 13 1 12 14
M  V30 14 1 14 15
M  V30 15 2 15 16
M  V30 16 1 16 17
M  V30 17 2 17 18
M  V30 18 1 18 19
M  V30 19 2 19 20
M  V30 20 1 20 21
M  V30 21 1 21 22
M  V30 22 1 22 23
M  V30 23 1 23 24
M  V30 24 1 24 25
M  V30 25 1 25 26
M  V30 26 1 26 27
M  V30 27 1 27 28
M  V30 28 2 11 29
M  V30 29 1 29 30
M  V30 30 2 30 31
M  V30 31 1 7 2
M  V30 32 1 31 10
M  V30 33 1 31 6
M  V30 34 1 20 15
M  V30 35 1 28 23
M  V30 36 1 1 32
M  V30 37 1 1 33
M  V30 38 1 1 34
M  V30 39 1 3 35
M  V30 40 1 3 36
M  V30 41 1 4 37
M  V30 42 1 4 38
M  V30 43 1 8 39
M  V30 44 1 14 40
M  V30 45 1 16 41
M  V30 46 1 17 42
M  V30 47 1 18 43
M  V30 48 1 19 44
M  V30 49 1 22 45
M  V30 50 1 22 46
M  V30 51 1 23 47
M  V30 52 1 24 48
M  V30 53 1 24 49
M  V30 54 1 25 50
M  V30 55 1 25 51
M  V30 56 1 26 52
M  V30 57 1 27 53
M  V30 58 1 27 54
M  V30 59 1 28 55
M  V30 60 1 28 56
M  V30 END BOND
M  V30 END CTAB
M  END
>  <Dataset>  (152) 
ChEMBL_Kinases

>  <Ligand_Instance>  (152) 
nan

>  <PDB_ID>  (152) 
nan

>  <Standardized_SMILES>  (152) 
CN1CCOc2c1cnn1c(C(=O)Nc3ccccc3OCC3CCNCC3)nnc21

>  <Name>  (152) 
nan

>  <Pocket>  (152) 
nan

>  <ATP_Site>  (152) 
nan

>  <Peripheral>  (152) 
nan

>  <Num_H_Atoms_ProtBoundConf>  (152) 
nan

>  <Num_Resolved_Atoms>  (152) 
nan

>  <Num_Not_Resolved_Atoms>  (152) 
nan

$$$$
CHEMBL4463440
     RDKit          3D

  0  0  0  0  0  0  0  0  0  0999 V3000
M  V30 BEGIN CTAB
M  V30 COUNTS 45 48 0 0 0
M  V30 BEGIN ATOM
M  V30 1 O -0.422859 -3.972124 2.246924 0
M  V30 2 C -0.542081 -2.730547 2.280879 0
M  V30 3 C 0.352393 -1.892530 1.484401 0
M  V30 4 C 1.288115 -2.430816 0.725742 0
M  V30 5 C 2.221477 -1.697702 -0.097855 0
M  V30 6 C 3.182222 -2.356639 -0.873840 0
M  V30 7 N 4.050946 -1.666094 -1.642671 0
M  V30 8 C 4.057747 -0.314260 -1.718878 0
M  V30 9 N 4.807162 0.579710 -2.398699 0
M  V30 10 C 4.365881 1.824442 -2.091552 0
M  V30 11 C 3.305804 1.752474 -1.192544 0
M  V30 12 C 2.564210 2.869657 -0.620371 0
M  V30 13 C 2.138883 3.891040 -1.431817 0
M  V30 14 C 1.442187 4.928527 -0.839333 0
M  V30 15 C 1.162998 4.976260 0.511253 0
M  V30 16 C 1.584263 3.956028 1.340931 0
M  V30 17 C 2.281245 2.922864 0.733933 0
M  V30 18 C 3.124690 0.407138 -0.969163 0
M  V30 19 C 2.250297 -0.320572 -0.193944 0
M  V30 20 N -1.541444 -2.133368 3.088154 0
M  V30 21 C -2.506613 -2.810652 3.933007 0
M  V30 22 C -3.564300 -3.365886 3.049706 0
M  V30 23 C -3.628082 -4.612419 2.465283 0
M  V30 24 C -4.691994 -4.961932 1.662451 0
M  V30 25 N -5.714318 -4.119001 1.407069 0
M  V30 26 C -5.693724 -2.875477 1.963909 0
M  V30 27 C -4.632286 -2.524817 2.765753 0
M  V30 28 H 0.260247 -0.836515 1.505270 0
M  V30 29 H 1.347981 -3.508663 0.732002 0
M  V30 30 H 3.219157 -3.453624 -0.847905 0
M  V30 31 H 5.600571 0.361085 -3.057890 0
M  V30 32 H 4.786099 2.749478 -2.495270 0
M  V30 33 H 2.318405 3.923884 -2.491959 0
M  V30 34 H 1.068895 5.772839 -1.395694 0
M  V30 35 H 0.611380 5.799005 0.974732 0
M  V30 36 H 1.384541 3.957711 2.404720 0
M  V30 37 H 2.599856 2.134388 1.417958 0
M  V30 38 H 1.546147 0.259553 0.368714 0
M  V30 39 H -1.584353 -1.071173 3.068211 0
M  V30 40 H -2.955290 -2.111488 4.659406 0
M  V30 41 H -1.966101 -3.649111 4.453882 0
M  V30 42 H -2.794510 -5.259987 2.693442 0
M  V30 43 H -4.649424 -5.966877 1.249000 0
M  V30 44 H -6.530223 -2.270041 1.717849 0
M  V30 45 H -4.677366 -1.526772 3.174948 0
M  V30 END ATOM
M  V30 BEGIN BOND
M  V30 1 2 1 2
M  V30 2 1 2 3
M  V30 3 2 3 4
M  V30 4 1 4 5
M  V30 5 2 5 6
M  V30 6 1 6 7
M  V30 7 2 7 8
M  V30 8 1 8 9
M  V30 9 1 9 10
M  V30 10 2 10 11
M  V30 11 1 11 12
M  V30 12 2 12 13
M  V30 13 1 13 14
M  V30 14 2 14 15
M  V30 15 1 15 16
M  V30 16 2 16 17
M  V30 17 1 11 18
M  V30 18 2 18 19
M  V30 19 1 2 20
M  V30 20 1 20 21
M  V30 21 1 21 22
M  V30 22 2 22 23
M  V30 23 1 23 24
M  V30 24 2 24 25
M  V30 25 1 25 26
M  V30 26 2 26 27
M  V30 27 1 19 5
M  V30 28 1 27 22
M  V30 29 1 18 8
M  V30 30 1 17 12
M  V30 31 1 3 28
M  V30 32 1 4 29
M  V30 33 1 6 30
M  V30 34 1 9 31
M  V30 35 1 10 32
M  V30 36 1 13 33
M  V30 37 1 14 34
M  V30 38 1 15 35
M  V30 39 1 16 36
M  V30 40 1 17 37
M  V30 41 1 19 38
M  V30 42 1 20 39
M  V30 43 1 21 40
M  V30 44 1 21 41
M  V30 45 1 23 42
M  V30 46 1 24 43
M  V30 47 1 26 44
M  V30 48 1 27 45
M  V30 END BOND
M  V30 END CTAB
M  END
>  <Dataset>  (153) 
ChEMBL_Kinases

>  <Ligand_Instance>  (153) 
nan

>  <PDB_ID>  (153) 
nan

>  <Standardized_SMILES>  (153) 
O=C(/C=C/c1cnc2[nH]cc(-c3ccccc3)c2c1)NCc1ccncc1

>  <Name>  (153) 
nan

>  <Pocket>  (153) 
nan

>  <ATP_Site>  (153) 
nan

>  <Peripheral>  (153) 
nan

>  <Num_H_Atoms_ProtBoundConf>  (153) 
nan

>  <Num_Resolved_Atoms>  (153) 
nan

>  <Num_Not_Resolved_Atoms>  (153) 
nan

$$$$
CHEMBL4463415
     RDKit          3D

  0  0  0  0  0  0  0  0  0  0999 V3000
M  V30 BEGIN CTAB
M  V30 COUNTS 42 45 0 0 0
M  V30 BEGIN ATOM
M  V30 1 C -0.480473 -4.362449 2.062399 0
M  V30 2 C -0.538930 -3.062598 2.798984 0 CFG=1
M  V30 3 C 0.555861 -3.095020 3.870067 0
M  V30 4 C 1.786880 -2.538415 3.183882 0
M  V30 5 C 1.337550 -2.173533 1.762197 0
M  V30 6 C -0.127834 -1.875460 2.005397 0 CFG=1
M  V30 7 N -0.884419 -1.682770 0.792663 0
M  V30 8 C -0.552919 -0.562975 -0.017061 0
M  V30 9 N 0.436373 0.246234 0.388885 0
M  V30 10 C 0.818925 1.336285 -0.320194 0
M  V30 11 C 1.899350 2.162182 0.187696 0
M  V30 12 C 2.304143 3.279612 -0.522477 0
M  V30 13 C 3.341727 4.040120 0.001722 0
M  V30 14 N 3.969404 3.745552 1.159838 0
M  V30 15 C 3.597019 2.665995 1.870644 0
M  V30 16 C 2.566509 1.914026 1.346281 0
M  V30 17 N 0.208661 1.636549 -1.461524 0
M  V30 18 C -0.789841 0.871132 -1.928445 0
M  V30 19 C -1.486326 1.092057 -3.095307 0
M  V30 20 N -2.476498 0.312468 -3.535399 0
M  V30 21 C -2.865657 -0.779875 -2.832498 0
M  V30 22 C -2.187539 -1.030739 -1.656553 0
M  V30 23 C -1.167723 -0.228221 -1.202825 0
M  V30 24 H 0.551621 -4.743224 1.929838 0
M  V30 25 H -0.976438 -5.121462 2.735389 0
M  V30 26 H -1.049982 -4.333662 1.110393 0
M  V30 27 H -1.539609 -2.941758 3.278896 0
M  V30 28 H 0.715052 -4.114475 4.250372 0
M  V30 29 H 0.215286 -2.367535 4.635275 0
M  V30 30 H 2.608033 -3.283616 3.141202 0
M  V30 31 H 2.120441 -1.588988 3.650848 0
M  V30 32 H 1.913079 -1.344760 1.356735 0
M  V30 33 H 1.441154 -3.077166 1.158744 0
M  V30 34 H -0.222018 -0.981157 2.631372 0
M  V30 35 H -1.618182 -2.399671 0.623016 0
M  V30 36 H 1.829160 3.552755 -1.454849 0
M  V30 37 H 3.618178 4.909001 -0.601114 0
M  V30 38 H 4.095757 2.425036 2.798556 0
M  V30 39 H 2.271299 1.047998 1.921143 0
M  V30 40 H -1.200491 1.966066 -3.691491 0
M  V30 41 H -3.661327 -1.405121 -3.187484 0
M  V30 42 H -2.510365 -1.900966 -1.113499 0
M  V30 END ATOM
M  V30 BEGIN BOND
M  V30 1 1 1 2
M  V30 2 1 2 3
M  V30 3 1 3 4
M  V30 4 1 4 5
M  V30 5 1 5 6
M  V30 6 1 6 7
M  V30 7 1 7 8
M  V30 8 2 8 9
M  V30 9 1 9 10
M  V30 10 1 10 11
M  V30 11 2 11 12
M  V30 12 1 12 13
M  V30 13 2 13 14
M  V30 14 1 14 15
M  V30 15 2 15 16
M  V30 16 2 10 17
M  V30 17 1 17 18
M  V30 18 2 18 19
M  V30 19 1 19 20
M  V30 20 2 20 21
M  V30 21 1 21 22
M  V30 22 2 22 23
M  V30 23 1 6 2
M  V30 24 1 23 8
M  V30 25 1 16 11
M  V30 26 1 23 18
M  V30 27 1 1 24
M  V30 28 1 1 25
M  V30 29 1 1 26
M  V30 30 1 2 27 CFG=1
M  V30 31 1 3 28
M  V30 32 1 3 29
M  V30 33 1 4 30
M  V30 34 1 4 31
M  V30 35 1 5 32
M  V30 36 1 5 33
M  V30 37 1 6 34 CFG=1
M  V30 38 1 7 35
M  V30 39 1 12 36
M  V30 40 1 13 37
M  V30 41 1 15 38
M  V30 42 1 16 39
M  V30 43 1 19 40
M  V30 44 1 21 41
M  V30 45 1 22 42
M  V30 END BOND
M  V30 END CTAB
M  END
>  <Dataset>  (154) 
ChEMBL_Kinases

>  <Ligand_Instance>  (154) 
nan

>  <PDB_ID>  (154) 
nan

>  <Standardized_SMILES>  (154) 
C[C@H]1CCC[C@H]1Nc1nc(-c2ccncc2)nc2cnccc12

>  <Name>  (154) 
nan

>  <Pocket>  (154) 
nan

>  <ATP_Site>  (154) 
nan

>  <Peripheral>  (154) 
nan

>  <Num_H_Atoms_ProtBoundConf>  (154) 
nan

>  <Num_Resolved_Atoms>  (154) 
nan

>  <Num_Not_Resolved_Atoms>  (154) 
nan

$$$$
CHEMBL4463357
     RDKit          3D

  0  0  0  0  0  0  0  0  0  0999 V3000
M  V30 BEGIN CTAB
M  V30 COUNTS 40 43 0 0 0
M  V30 BEGIN ATOM
M  V30 1 C 1.801646 -6.502627 3.189863 0
M  V30 2 O 2.130614 -5.521935 2.259641 0
M  V30 3 C 1.629074 -4.232258 2.218175 0
M  V30 4 C 1.950216 -3.245509 1.270429 0
M  V30 5 C 1.375771 -2.000372 1.343474 0
M  V30 6 C 0.472855 -1.672494 2.334711 0
M  V30 7 N -0.148819 -0.387355 2.331830 0
M  V30 8 C -0.296299 0.419583 1.179915 0
M  V30 9 N 0.418832 1.512544 0.812559 0
M  V30 10 C 0.133415 2.175693 -0.319772 0
M  V30 11 C 0.866655 3.342576 -0.768805 0
M  V30 12 C 0.511762 3.905207 -2.004542 0
M  V30 13 C 1.081524 4.986165 -2.595699 0
M  V30 14 N 2.079636 5.530972 -1.882157 0
M  V30 15 C 2.497392 5.085198 -0.710842 0
M  V30 16 C 1.894691 3.973134 -0.124182 0
M  V30 17 N -0.874806 1.711887 -1.055480 0
M  V30 18 C -1.636758 0.641050 -0.771603 0
M  V30 19 C -2.671173 0.192080 -1.556924 0
M  V30 20 N -3.427447 -0.856080 -1.292850 0
M  V30 21 C -3.196883 -1.592305 -0.151106 0
M  V30 22 C -2.162260 -1.127058 0.616117 0
M  V30 23 C -1.330078 -0.057279 0.424592 0
M  V30 24 C 0.147639 -2.634327 3.277069 0
M  V30 25 C 0.729540 -3.895897 3.203167 0
M  V30 26 H 0.709944 -6.495431 3.453846 0
M  V30 27 H 2.058140 -7.493512 2.737598 0
M  V30 28 H 2.450319 -6.431049 4.084093 0
M  V30 29 H 2.647018 -3.515014 0.512632 0
M  V30 30 H 1.641890 -1.233977 0.599032 0
M  V30 31 H -0.478774 -0.095412 3.271116 0
M  V30 32 H -0.306968 3.431473 -2.562683 0
M  V30 33 H 0.724139 5.335093 -3.563411 0
M  V30 34 H 3.314546 5.568090 -0.154924 0
M  V30 35 H 2.189321 3.562152 0.823944 0
M  V30 36 H -2.823741 0.794199 -2.458355 0
M  V30 37 H -3.761919 -2.458416 0.146716 0
M  V30 38 H -1.944965 -1.682047 1.546115 0
M  V30 39 H -0.563304 -2.340003 4.025174 0
M  V30 40 H 0.371091 -4.545185 4.017358 0
M  V30 END ATOM
M  V30 BEGIN BOND
M  V30 1 1 1 2
M  V30 2 1 2 3
M  V30 3 2 3 4
M  V30 4 1 4 5
M  V30 5 2 5 6
M  V30 6 1 6 7
M  V30 7 1 7 8
M  V30 8 2 8 9
M  V30 9 1 9 10
M  V30 10 1 10 11
M  V30 11 2 11 12
M  V30 12 1 12 13
M  V30 13 2 13 14
M  V30 14 1 14 15
M  V30 15 2 15 16
M  V30 16 2 10 17
M  V30 17 1 17 18
M  V30 18 2 18 19
M  V30 19 1 19 20
M  V30 20 2 20 21
M  V30 21 1 21 22
M  V30 22 2 22 23
M  V30 23 1 6 24
M  V30 24 2 24 25
M  V30 25 1 25 3
M  V30 26 1 23 8
M  V30 27 1 16 11
M  V30 28 1 23 18
M  V30 29 1 1 26
M  V30 30 1 1 27
M  V30 31 1 1 28
M  V30 32 1 4 29
M  V30 33 1 5 30
M  V30 34 1 7 31
M  V30 35 1 12 32
M  V30 36 1 13 33
M  V30 37 1 15 34
M  V30 38 1 16 35
M  V30 39 1 19 36
M  V30 40 1 21 37
M  V30 41 1 22 38
M  V30 42 1 24 39
M  V30 43 1 25 40
M  V30 END BOND
M  V30 END CTAB
M  END
>  <Dataset>  (155) 
ChEMBL_Kinases

>  <Ligand_Instance>  (155) 
nan

>  <PDB_ID>  (155) 
nan

>  <Standardized_SMILES>  (155) 
COc1ccc(Nc2nc(-c3ccncc3)nc3cnccc23)cc1

>  <Name>  (155) 
nan

>  <Pocket>  (155) 
nan

>  <ATP_Site>  (155) 
nan

>  <Peripheral>  (155) 
nan

>  <Num_H_Atoms_ProtBoundConf>  (155) 
nan

>  <Num_Resolved_Atoms>  (155) 
nan

>  <Num_Not_Resolved_Atoms>  (155) 
nan

$$$$
CHEMBL4463150
     RDKit          3D

  0  0  0  0  0  0  0  0  0  0999 V3000
M  V30 BEGIN CTAB
M  V30 COUNTS 40 43 0 0 0
M  V30 BEGIN ATOM
M  V30 1 C 0.922057 -2.361583 2.512773 0
M  V30 2 C -0.528728 -2.036324 2.229999 0 CFG=2
M  V30 3 N -0.880746 -0.650247 2.260808 0
M  V30 4 C -0.240799 0.232749 1.360356 0
M  V30 5 N 0.667702 -0.292384 0.523788 0
M  V30 6 C 1.333951 0.485834 -0.379008 0
M  V30 7 C 2.320040 -0.093863 -1.284721 0
M  V30 8 C 2.603939 -1.443239 -1.251804 0
M  V30 9 C 3.564730 -1.882977 -2.165416 0
M  V30 10 N 4.210515 -1.111323 -3.044559 0
M  V30 11 C 3.929230 0.220504 -3.075898 0
M  V30 12 C 2.992458 0.694208 -2.196294 0
M  V30 13 N 1.085105 1.807400 -0.442738 0
M  V30 14 C 0.186405 2.404491 0.365505 0
M  V30 15 C -0.066260 3.759569 0.297512 0
M  V30 16 N -0.986000 4.319180 1.137480 0
M  V30 17 C -1.613682 3.502922 2.008676 0
M  V30 18 C -1.394820 2.144663 2.113444 0
M  V30 19 C -0.467589 1.587917 1.264789 0
M  V30 20 C -1.448259 -3.011564 2.883270 0
M  V30 21 C -2.289349 -2.990607 1.607865 0 CFG=1
M  V30 22 O -3.203217 -1.947916 1.708982 0
M  V30 23 C -1.002849 -2.628783 0.895027 0
M  V30 24 H 1.357451 -1.462782 2.994448 0
M  V30 25 H 0.994902 -3.179315 3.284729 0
M  V30 26 H 1.461473 -2.740668 1.643938 0
M  V30 27 H -1.604038 -0.437548 2.978344 0
M  V30 28 H 2.126691 -2.118056 -0.576153 0
M  V30 29 H 3.857478 -2.924079 -2.218497 0
M  V30 30 H 4.405523 0.901944 -3.752190 0
M  V30 31 H 2.750259 1.767989 -2.205156 0
M  V30 32 H 0.492408 4.341428 -0.441934 0
M  V30 33 H -2.333364 4.005052 2.649968 0
M  V30 34 H -1.923498 1.557210 2.822356 0
M  V30 35 H -1.959989 -2.704625 3.800251 0
M  V30 36 H -0.948649 -4.012067 2.924272 0
M  V30 37 H -2.732860 -3.963520 1.356110 0
M  V30 38 H -3.861986 -2.137976 2.406022 0
M  V30 39 H -1.124438 -1.894297 0.086770 0
M  V30 40 H -0.447719 -3.555765 0.622713 0
M  V30 END ATOM
M  V30 BEGIN BOND
M  V30 1 1 1 2
M  V30 2 1 2 3 CFG=3
M  V30 3 1 3 4
M  V30 4 2 4 5
M  V30 5 1 5 6
M  V30 6 1 6 7
M  V30 7 2 7 8
M  V30 8 1 8 9
M  V30 9 2 9 10
M  V30 10 1 10 11
M  V30 11 2 11 12
M  V30 12 2 6 13
M  V30 13 1 13 14
M  V30 14 2 14 15
M  V30 15 1 15 16
M  V30 16 2 16 17
M  V30 17 1 17 18
M  V30 18 2 18 19
M  V30 19 1 2 20
M  V30 20 1 20 21
M  V30 21 1 21 22
M  V30 22 1 21 23
M  V30 23 1 23 2
M  V30 24 1 19 4
M  V30 25 1 12 7
M  V30 26 1 19 14
M  V30 27 1 1 24
M  V30 28 1 1 25
M  V30 29 1 1 26
M  V30 30 1 3 27
M  V30 31 1 8 28
M  V30 32 1 9 29
M  V30 33 1 11 30
M  V30 34 1 12 31
M  V30 35 1 15 32
M  V30 36 1 17 33
M  V30 37 1 18 34
M  V30 38 1 20 35
M  V30 39 1 20 36
M  V30 40 1 21 37 CFG=3
M  V30 41 1 22 38
M  V30 42 1 23 39
M  V30 43 1 23 40
M  V30 END BOND
M  V30 END CTAB
M  END
>  <Dataset>  (156) 
ChEMBL_Kinases

>  <Ligand_Instance>  (156) 
nan

>  <PDB_ID>  (156) 
nan

>  <Standardized_SMILES>  (156) 
C[C@]1(Nc2nc(-c3ccncc3)nc3cnccc23)C[C@@H](O)C1

>  <Name>  (156) 
nan

>  <Pocket>  (156) 
nan

>  <ATP_Site>  (156) 
nan

>  <Peripheral>  (156) 
nan

>  <Num_H_Atoms_ProtBoundConf>  (156) 
nan

>  <Num_Resolved_Atoms>  (156) 
nan

>  <Num_Not_Resolved_Atoms>  (156) 
nan

$$$$
CHEMBL4463018
     RDKit          3D

  0  0  0  0  0  0  0  0  0  0999 V3000
M  V30 BEGIN CTAB
M  V30 COUNTS 42 45 0 0 0
M  V30 BEGIN ATOM
M  V30 1 C 0.294229 -4.623561 0.377657 0
M  V30 2 C 1.220197 -3.828348 1.287575 0 CFG=2
M  V30 3 C 0.912170 -4.140049 2.716357 0
M  V30 4 C 0.346086 -2.862815 3.289627 0
M  V30 5 C 1.037310 -1.772837 2.494712 0
M  V30 6 C 1.122585 -2.340967 1.082209 0 CFG=2
M  V30 7 N -0.030366 -2.005780 0.304747 0
M  V30 8 C -0.179787 -0.628894 0.004326 0
M  V30 9 N 0.720365 0.263766 0.430469 0
M  V30 10 C 0.632057 1.602478 0.173835 0
M  V30 11 C 1.654490 2.514937 0.673122 0
M  V30 12 C 2.704486 2.016030 1.402016 0
M  V30 13 C 3.705690 2.846959 1.900345 0
M  V30 14 N 3.609317 4.183777 1.639105 0
M  V30 15 C 2.569143 4.652584 0.920861 0
M  V30 16 C 1.550797 3.879322 0.403173 0
M  V30 17 N -0.411412 2.092062 -0.549759 0
M  V30 18 C -1.371630 1.245246 -1.020214 0
M  V30 19 C -2.436692 1.725610 -1.755846 0
M  V30 20 N -3.364482 0.864157 -2.203875 0
M  V30 21 C -3.272042 -0.473203 -1.944864 0
M  V30 22 C -2.193612 -0.913347 -1.206968 0
M  V30 23 C -1.219596 -0.091822 -0.724138 0
M  V30 24 H 0.699733 -5.681695 0.438936 0
M  V30 25 H -0.748507 -4.641463 0.718439 0
M  V30 26 H 0.364706 -4.338727 -0.673349 0
M  V30 27 H 2.266901 -4.166775 1.009732 0
M  V30 28 H 1.819785 -4.458628 3.290899 0
M  V30 29 H 0.153035 -4.960922 2.745320 0
M  V30 30 H -0.742795 -2.852350 3.161537 0
M  V30 31 H 0.634128 -2.825322 4.361722 0
M  V30 32 H 0.498371 -0.829313 2.511848 0
M  V30 33 H 2.079621 -1.670117 2.855440 0
M  V30 34 H 2.042205 -1.974607 0.568588 0
M  V30 35 H -0.682820 -2.756046 0.007575 0
M  V30 36 H 2.845097 0.989829 1.644034 0
M  V30 37 H 4.543902 2.475391 2.478194 0
M  V30 38 H 2.517999 5.725379 0.727539 0
M  V30 39 H 0.734953 4.298874 -0.167977 0
M  V30 40 H -2.526903 2.773434 -1.969863 0
M  V30 41 H -4.054385 -1.143813 -2.331055 0
M  V30 42 H -2.179436 -1.960982 -1.040320 0
M  V30 END ATOM
M  V30 BEGIN BOND
M  V30 1 1 1 2
M  V30 2 1 2 3
M  V30 3 1 3 4
M  V30 4 1 4 5
M  V30 5 1 5 6
M  V30 6 1 6 7
M  V30 7 1 7 8
M  V30 8 2 8 9
M  V30 9 1 9 10
M  V30 10 1 10 11
M  V30 11 2 11 12
M  V30 12 1 12 13
M  V30 13 2 13 14
M  V30 14 1 14 15
M  V30 15 2 15 16
M  V30 16 2 10 17
M  V30 17 1 17 18
M  V30 18 2 18 19
M  V30 19 1 19 20
M  V30 20 2 20 21
M  V30 21 1 21 22
M  V30 22 2 22 23
M  V30 23 1 6 2
M  V30 24 1 23 8
M  V30 25 1 16 11
M  V30 26 1 23 18
M  V30 27 1 1 24
M  V30 28 1 1 25
M  V30 29 1 1 26
M  V30 30 1 2 27 CFG=3
M  V30 31 1 3 28
M  V30 32 1 3 29
M  V30 33 1 4 30
M  V30 34 1 4 31
M  V30 35 1 5 32
M  V30 36 1 5 33
M  V30 37 1 6 34 CFG=3
M  V30 38 1 7 35
M  V30 39 1 12 36
M  V30 40 1 13 37
M  V30 41 1 15 38
M  V30 42 1 16 39
M  V30 43 1 19 40
M  V30 44 1 21 41
M  V30 45 1 22 42
M  V30 END BOND
M  V30 END CTAB
M  END
>  <Dataset>  (157) 
ChEMBL_Kinases

>  <Ligand_Instance>  (157) 
nan

>  <PDB_ID>  (157) 
nan

>  <Standardized_SMILES>  (157) 
C[C@@H]1CCC[C@@H]1Nc1nc(-c2ccncc2)nc2cnccc12

>  <Name>  (157) 
nan

>  <Pocket>  (157) 
nan

>  <ATP_Site>  (157) 
nan

>  <Peripheral>  (157) 
nan

>  <Num_H_Atoms_ProtBoundConf>  (157) 
nan

>  <Num_Resolved_Atoms>  (157) 
nan

>  <Num_Not_Resolved_Atoms>  (157) 
nan

$$$$
CHEMBL4462979
     RDKit          3D

  0  0  0  0  0  0  0  0  0  0999 V3000
M  V30 BEGIN CTAB
M  V30 COUNTS 55 59 0 0 0
M  V30 BEGIN ATOM
M  V30 1 C 5.874563 -2.831223 5.231473 0
M  V30 2 O 4.538590 -2.375317 5.160226 0
M  V30 3 C 4.119386 -1.387774 4.280660 0
M  V30 4 C 4.875972 -0.695046 3.357426 0
M  V30 5 C 4.251744 0.252464 2.576963 0
M  V30 6 C 2.888812 0.539125 2.682055 0
M  V30 7 S 2.119976 1.733414 1.698434 0
M  V30 8 O 3.070617 2.874799 1.465202 0
M  V30 9 O 0.938214 2.292744 2.455600 0
M  V30 10 N 1.552428 1.147392 0.213975 0
M  V30 11 C 0.563136 0.131271 0.262145 0
M  V30 12 C -0.795132 0.725704 0.183401 0
M  V30 13 C -1.043934 1.250285 -1.197730 0
M  V30 14 C 0.072200 1.935131 -1.579169 0
M  V30 15 S -0.323225 2.500961 -3.168128 0
M  V30 16 C -1.954945 1.794781 -3.238001 0
M  V30 17 N -3.023321 1.780599 -4.221683 0
M  V30 18 C -4.133409 1.143064 -3.919530 0
M  V30 19 N -4.255565 0.540883 -2.755472 0
M  V30 20 C -3.314675 0.515820 -1.809035 0
M  V30 21 N -3.687849 -0.194117 -0.644199 0
M  V30 22 C -3.775413 -1.616189 -0.583831 0
M  V30 23 C -5.078804 -1.960552 -0.203401 0
M  V30 24 C -5.341874 -3.326978 -0.102364 0
M  V30 25 C -4.410891 -4.300244 -0.352465 0
M  V30 26 F -4.707342 -5.636683 -0.243782 0
M  V30 27 C -3.124413 -3.913541 -0.729206 0
M  V30 28 C -2.848824 -2.589614 -0.832847 0
M  V30 29 O -1.627211 -2.094940 -1.195181 0
M  V30 30 C -0.545892 -2.932578 -1.496156 0
M  V30 31 C -2.105689 1.149393 -2.008296 0
M  V30 32 C 1.301393 2.120955 -0.783479 0
M  V30 33 C 2.116727 -0.160948 3.617440 0
M  V30 34 C 2.772087 -1.120740 4.401691 0
M  V30 35 H 6.351324 -2.741955 4.216603 0
M  V30 36 H 5.928936 -3.918043 5.470410 0
M  V30 37 H 6.452016 -2.248835 5.960242 0
M  V30 38 H 5.921067 -0.963645 3.325503 0
M  V30 39 H 4.863153 0.780591 1.865111 0
M  V30 40 H 0.702272 -0.584853 1.084449 0
M  V30 41 H 0.694019 -0.475547 -0.681389 0
M  V30 42 H -0.909673 1.640044 0.831626 0
M  V30 43 H -1.569508 0.034086 0.539103 0
M  V30 44 H -4.836780 1.212695 -4.733248 0
M  V30 45 H -3.879886 0.480224 0.127710 0
M  V30 46 H -5.920604 -1.339337 0.026918 0
M  V30 47 H -6.329463 -3.715062 0.187889 0
M  V30 48 H -2.398620 -4.670165 -0.922749 0
M  V30 49 H -0.886341 -3.854411 -1.971962 0
M  V30 50 H 0.115967 -3.160331 -0.627303 0
M  V30 51 H 0.143510 -2.422046 -2.235555 0
M  V30 52 H 2.206361 2.177484 -1.434924 0
M  V30 53 H 1.198194 3.106103 -0.265547 0
M  V30 54 H 1.058436 0.046549 3.715295 0
M  V30 55 H 2.083265 -1.616783 5.106329 0
M  V30 END ATOM
M  V30 BEGIN BOND
M  V30 1 1 1 2
M  V30 2 1 2 3
M  V30 3 2 3 4
M  V30 4 1 4 5
M  V30 5 2 5 6
M  V30 6 1 6 7
M  V30 7 2 7 8
M  V30 8 2 7 9
M  V30 9 1 7 10
M  V30 10 1 10 11
M  V30 11 1 11 12
M  V30 12 1 12 13
M  V30 13 2 13 14
M  V30 14 1 14 15
M  V30 15 1 15 16
M  V30 16 2 16 17
M  V30 17 1 17 18
M  V30 18 2 18 19
M  V30 19 1 19 20
M  V30 20 1 20 21
M  V30 21 1 21 22
M  V30 22 2 22 23
M  V30 23 1 23 24
M  V30 24 2 24 25
M  V30 25 1 25 26
M  V30 26 1 25 27
M  V30 27 2 27 28
M  V30 28 1 28 29
M  V30 29 1 29 30
M  V30 30 2 20 31
M  V30 31 1 14 32
M  V30 32 1 6 33
M  V30 33 2 33 34
M  V30 34 1 34 3
M  V30 35 1 32 10
M  V30 36 1 31 13
M  V30 37 1 31 16
M  V30 38 1 28 22
M  V30 39 1 1 35
M  V30 40 1 1 36
M  V30 41 1 1 37
M  V30 42 1 4 38
M  V30 43 1 5 39
M  V30 44 1 11 40
M  V30 45 1 11 41
M  V30 46 1 12 42
M  V30 47 1 12 43
M  V30 48 1 18 44
M  V30 49 1 21 45
M  V30 50 1 23 46
M  V30 51 1 24 47
M  V30 52 1 27 48
M  V30 53 1 30 49
M  V30 54 1 30 50
M  V30 55 1 30 51
M  V30 56 1 32 52
M  V30 57 1 32 53
M  V30 58 1 33 54
M  V30 59 1 34 55
M  V30 END BOND
M  V30 END CTAB
M  END
>  <Dataset>  (158) 
ChEMBL_Kinases

>  <Ligand_Instance>  (158) 
nan

>  <PDB_ID>  (158) 
nan

>  <Standardized_SMILES>  (158) 
COc1ccc(S(=O)(=O)N2CCc3c(sc4ncnc(Nc5ccc(F)cc5OC)c34)C2)cc1

>  <Name>  (158) 
nan

>  <Pocket>  (158) 
nan

>  <ATP_Site>  (158) 
nan

>  <Peripheral>  (158) 
nan

>  <Num_H_Atoms_ProtBoundConf>  (158) 
nan

>  <Num_Resolved_Atoms>  (158) 
nan

>  <Num_Not_Resolved_Atoms>  (158) 
nan

$$$$
CHEMBL4462932
     RDKit          3D

  0  0  0  0  0  0  0  0  0  0999 V3000
M  V30 BEGIN CTAB
M  V30 COUNTS 51 54 0 0 0
M  V30 BEGIN ATOM
M  V30 1 C 1.007322 -3.782211 2.432322 0
M  V30 2 C 0.506351 -3.932957 1.011320 0
M  V30 3 O 1.201079 -4.897717 0.325350 0
M  V30 4 C 0.687526 -2.669544 0.257571 0
M  V30 5 C 0.846923 -1.632091 -0.341532 0
M  V30 6 C 1.044431 -0.383249 -1.035072 0
M  V30 7 C 0.828510 -0.270768 -2.397595 0
M  V30 8 C 1.021826 0.943193 -3.064259 0
M  V30 9 C 1.438749 2.033529 -2.309665 0
M  V30 10 C 1.650978 1.909710 -0.951433 0
M  V30 11 C 2.091010 3.011781 -0.085169 0
M  V30 12 C 3.081324 3.984414 -0.234145 0
M  V30 13 N 3.091256 4.770433 0.844883 0
M  V30 14 C 2.151704 4.373957 1.718812 0
M  V30 15 C 1.738156 4.816871 2.962893 0
M  V30 16 N 0.727361 4.198944 3.636682 0
M  V30 17 C 0.115912 3.122620 3.066388 0
M  V30 18 N -0.948187 2.391216 3.663135 0
M  V30 19 N 0.519334 2.694967 1.858913 0
M  V30 20 C 1.514057 3.278483 1.161617 0
M  V30 21 C 1.457825 0.695403 -0.283356 0
M  V30 22 C -0.999762 -4.224471 1.077246 0
M  V30 23 C -1.630279 -3.054295 1.766717 0
M  V30 24 C -2.765369 -2.452293 0.964637 0
M  V30 25 C -3.665748 -3.589394 0.502172 0
M  V30 26 C -2.925312 -4.363063 -0.545662 0
M  V30 27 C -1.428339 -4.318645 -0.391213 0
M  V30 28 H 2.025952 -4.208598 2.549274 0
M  V30 29 H 0.347178 -4.343568 3.108530 0
M  V30 30 H 1.062315 -2.731026 2.761935 0
M  V30 31 H 1.847341 -5.319658 0.943734 0
M  V30 32 H 0.498158 -1.143158 -2.983374 0
M  V30 33 H 0.862156 1.065565 -4.128029 0
M  V30 34 H 1.615802 3.022898 -2.744463 0
M  V30 35 H 3.662093 3.973437 -1.130784 0
M  V30 36 H 3.744792 5.571934 0.968772 0
M  V30 37 H 2.222769 5.683478 3.433757 0
M  V30 38 H -1.972671 2.451338 3.566644 0
M  V30 39 H -0.959677 1.605837 4.352174 0
M  V30 40 H 1.620302 0.591377 0.769621 0
M  V30 41 H -1.128027 -5.185785 1.578846 0
M  V30 42 H -0.921991 -2.234300 1.998163 0
M  V30 43 H -2.114188 -3.449847 2.699520 0
M  V30 44 H -2.371545 -1.920998 0.077250 0
M  V30 45 H -3.323052 -1.739200 1.586790 0
M  V30 46 H -3.926159 -4.205989 1.381475 0
M  V30 47 H -4.549890 -3.101998 0.033991 0
M  V30 48 H -3.202729 -3.997014 -1.539158 0
M  V30 49 H -3.228509 -5.429149 -0.432484 0
M  V30 50 H -0.936817 -5.249954 -0.762451 0
M  V30 51 H -0.984538 -3.487150 -0.976632 0
M  V30 END ATOM
M  V30 BEGIN BOND
M  V30 1 1 1 2
M  V30 2 1 2 3
M  V30 3 1 2 4
M  V30 4 3 4 5
M  V30 5 1 5 6
M  V30 6 2 6 7
M  V30 7 1 7 8
M  V30 8 2 8 9
M  V30 9 1 9 10
M  V30 10 1 10 11
M  V30 11 2 11 12
M  V30 12 1 12 13
M  V30 13 1 13 14
M  V30 14 2 14 15
M  V30 15 1 15 16
M  V30 16 2 16 17
M  V30 17 1 17 18
M  V30 18 1 17 19
M  V30 19 2 19 20
M  V30 20 2 10 21
M  V30 21 1 2 22
M  V30 22 1 22 23
M  V30 23 1 23 24
M  V30 24 1 24 25
M  V30 25 1 25 26
M  V30 26 1 26 27
M  V30 27 1 21 6
M  V30 28 1 27 22
M  V30 29 1 20 11
M  V30 30 1 20 14
M  V30 31 1 1 28
M  V30 32 1 1 29
M  V30 33 1 1 30
M  V30 34 1 3 31
M  V30 35 1 7 32
M  V30 36 1 8 33
M  V30 37 1 9 34
M  V30 38 1 12 35
M  V30 39 1 13 36
M  V30 40 1 15 37
M  V30 41 1 18 38
M  V30 42 1 18 39
M  V30 43 1 21 40
M  V30 44 1 22 41
M  V30 45 1 23 42
M  V30 46 1 23 43
M  V30 47 1 24 44
M  V30 48 1 24 45
M  V30 49 1 25 46
M  V30 50 1 25 47
M  V30 51 1 26 48
M  V30 52 1 26 49
M  V30 53 1 27 50
M  V30 54 1 27 51
M  V30 END BOND
M  V30 END CTAB
M  END
>  <Dataset>  (159) 
ChEMBL_Kinases

>  <Ligand_Instance>  (159) 
nan

>  <PDB_ID>  (159) 
nan

>  <Standardized_SMILES>  (159) 
CC(O)(C#Cc1cccc(-c2c[nH]c3cnc(N)nc23)c1)C1CCCCC1

>  <Name>  (159) 
nan

>  <Pocket>  (159) 
nan

>  <ATP_Site>  (159) 
nan

>  <Peripheral>  (159) 
nan

>  <Num_H_Atoms_ProtBoundConf>  (159) 
nan

>  <Num_Resolved_Atoms>  (159) 
nan

>  <Num_Not_Resolved_Atoms>  (159) 
nan

$$$$
CHEMBL4462898
     RDKit          3D

  0  0  0  0  0  0  0  0  0  0999 V3000
M  V30 BEGIN CTAB
M  V30 COUNTS 40 44 0 0 0
M  V30 BEGIN ATOM
M  V30 1 C -0.605425 -6.356885 1.245968 0
M  V30 2 C 0.659727 -5.966822 1.915232 0
M  V30 3 N 1.521290 -6.783192 2.561028 0
M  V30 4 N 2.513650 -6.045864 3.010219 0
M  V30 5 C 2.365405 -4.732268 2.693063 0
M  V30 6 C 1.194997 -4.725531 2.009361 0
M  V30 7 C 0.650263 -3.465121 1.470226 0
M  V30 8 C 1.054647 -2.179984 1.480440 0
M  V30 9 C 0.231894 -1.294591 0.844954 0
M  V30 10 N 0.475104 0.045713 0.751455 0
M  V30 11 C -0.379341 0.856462 0.110587 0
M  V30 12 C -0.070904 2.295083 0.037085 0
M  V30 13 C -1.086054 3.103843 -0.688236 0
M  V30 14 C -0.679669 4.516780 -0.236001 0
M  V30 15 C 0.339388 4.288155 0.831774 0
M  V30 16 C 1.667806 3.926699 0.200544 0
M  V30 17 C 1.284784 2.621966 -0.510025 0
M  V30 18 N -0.047360 2.960831 1.328789 0
M  V30 19 N -1.530711 0.473711 -0.493924 0
M  V30 20 C -1.788500 -0.844207 -0.412847 0
M  V30 21 O -2.796829 -1.416500 -0.900601 0
M  V30 22 C -0.933950 -1.717839 0.239139 0
M  V30 23 S -0.955729 -3.453787 0.531307 0
M  V30 24 H -1.474260 -5.736760 1.543479 0
M  V30 25 H -0.843194 -7.431766 1.451076 0
M  V30 26 H -0.492197 -6.245980 0.136556 0
M  V30 27 H 3.311072 -6.484518 3.552252 0
M  V30 28 H 3.019400 -3.928729 2.933306 0
M  V30 29 H 1.984227 -1.996650 1.990555 0
M  V30 30 H -1.085619 3.007230 -1.785900 0
M  V30 31 H -2.130556 2.995130 -0.342122 0
M  V30 32 H -1.509592 5.098508 0.158297 0
M  V30 33 H -0.171479 5.059017 -1.060210 0
M  V30 34 H 0.400110 5.042292 1.619849 0
M  V30 35 H 2.037634 4.691098 -0.492134 0
M  V30 36 H 2.374190 3.653130 1.000271 0
M  V30 37 H 2.031786 1.827823 -0.350095 0
M  V30 38 H 1.166204 2.897131 -1.580556 0
M  V30 39 H 0.699677 2.531261 1.899657 0
M  V30 40 H -2.198406 1.066684 -0.987990 0
M  V30 END ATOM
M  V30 BEGIN BOND
M  V30 1 1 1 2
M  V30 2 2 2 3
M  V30 3 1 3 4
M  V30 4 1 4 5
M  V30 5 2 5 6
M  V30 6 1 6 7
M  V30 7 2 7 8
M  V30 8 1 8 9
M  V30 9 1 9 10
M  V30 10 2 10 11
M  V30 11 1 11 12
M  V30 12 1 12 13
M  V30 13 1 13 14
M  V30 14 1 14 15
M  V30 15 1 15 16
M  V30 16 1 16 17
M  V30 17 1 15 18
M  V30 18 1 11 19
M  V30 19 1 19 20
M  V30 20 2 20 21
M  V30 21 1 20 22
M  V30 22 1 22 23
M  V30 23 1 6 2
M  V30 24 1 23 7
M  V30 25 2 22 9
M  V30 26 1 17 12
M  V30 27 1 18 12
M  V30 28 1 1 24
M  V30 29 1 1 25
M  V30 30 1 1 26
M  V30 31 1 4 27
M  V30 32 1 5 28
M  V30 33 1 8 29
M  V30 34 1 13 30
M  V30 35 1 13 31
M  V30 36 1 14 32
M  V30 37 1 14 33
M  V30 38 1 15 34
M  V30 39 1 16 35
M  V30 40 1 16 36
M  V30 41 1 17 37
M  V30 42 1 17 38
M  V30 43 1 18 39
M  V30 44 1 19 40
M  V30 END BOND
M  V30 END CTAB
M  END
>  <Dataset>  (160) 
ChEMBL_Kinases

>  <Ligand_Instance>  (160) 
nan

>  <PDB_ID>  (160) 
nan

>  <Standardized_SMILES>  (160) 
Cc1n[nH]cc1-c1cc2nc(C34CCC(CC3)N4)[nH]c(=O)c2s1

>  <Name>  (160) 
nan

>  <Pocket>  (160) 
nan

>  <ATP_Site>  (160) 
nan

>  <Peripheral>  (160) 
nan

>  <Num_H_Atoms_ProtBoundConf>  (160) 
nan

>  <Num_Resolved_Atoms>  (160) 
nan

>  <Num_Not_Resolved_Atoms>  (160) 
nan

$$$$
CHEMBL4462111
     RDKit          3D

  0  0  0  0  0  0  0  0  0  0999 V3000
M  V30 BEGIN CTAB
M  V30 COUNTS 53 57 0 0 0
M  V30 BEGIN ATOM
M  V30 1 N 2.124640 1.782640 6.141644 0
M  V30 2 C 2.149006 1.853826 4.712223 0
M  V30 3 N 3.146123 1.699965 3.843426 0
M  V30 4 C 2.797078 1.838187 2.576031 0
M  V30 5 C 3.959259 1.650804 1.678555 0
M  V30 6 C 3.751440 0.551448 0.843789 0
M  V30 7 C 4.702324 0.179539 -0.082825 0
M  V30 8 C 5.873935 0.930143 -0.162684 0
M  V30 9 F 6.829267 0.599484 -1.056454 0
M  V30 10 C 6.065353 2.013746 0.668514 0
M  V30 11 C 5.121374 2.395299 1.599303 0
M  V30 12 C 1.461579 2.129644 2.147593 0
M  V30 13 C 1.148132 2.268645 0.767995 0
M  V30 14 C 1.735604 3.289722 0.054882 0
M  V30 15 C 1.409039 3.396320 -1.278633 0
M  V30 16 N 0.554534 2.537108 -1.848212 0
M  V30 17 C -0.031445 1.533045 -1.174437 0
M  V30 18 N -0.927305 0.665405 -1.850082 0
M  V30 19 C -1.628770 -0.446156 -1.321674 0
M  V30 20 C -1.546382 -0.913052 -0.030156 0
M  V30 21 C -2.225230 -1.991164 0.492851 0
M  V30 22 C -3.072658 -2.677670 -0.349170 0
M  V30 23 N -3.835873 -3.806769 0.049383 0
M  V30 24 C -4.741666 -4.517977 -0.850192 0
M  V30 25 C -5.252658 -5.760149 -0.197442 0
M  V30 26 O -4.264296 -6.564866 0.350489 0
M  V30 27 C -3.368911 -5.849121 1.134930 0
M  V30 28 C -3.845533 -4.420239 1.362458 0
M  V30 29 C -3.194351 -2.254977 -1.652048 0
M  V30 30 C -2.489330 -1.168593 -2.119314 0
M  V30 31 N 0.314204 1.472678 0.102841 0
M  V30 32 S 0.590297 2.222397 3.680018 0
M  V30 33 H 1.754954 1.017169 6.755310 0
M  V30 34 H 2.529090 2.602244 6.608433 0
M  V30 35 H 2.886491 -0.091527 0.824191 0
M  V30 36 H 4.606382 -0.654137 -0.755490 0
M  V30 37 H 6.955834 2.631435 0.650233 0
M  V30 38 H 5.141340 3.210388 2.302622 0
M  V30 39 H 2.421896 4.001732 0.456990 0
M  V30 40 H 1.792065 4.150675 -1.971154 0
M  V30 41 H -1.095456 0.866676 -2.866776 0
M  V30 42 H -0.899147 -0.417871 0.676708 0
M  V30 43 H -2.114658 -2.306107 1.520249 0
M  V30 44 H -5.606343 -3.837668 -1.003195 0
M  V30 45 H -4.214383 -4.708659 -1.807913 0
M  V30 46 H -6.059984 -5.506011 0.492248 0
M  V30 47 H -5.727142 -6.379606 -1.008952 0
M  V30 48 H -2.431905 -5.764610 0.533561 0
M  V30 49 H -3.123720 -6.384307 2.061466 0
M  V30 50 H -4.883473 -4.468199 1.794033 0
M  V30 51 H -3.167956 -3.954571 2.077385 0
M  V30 52 H -3.859561 -2.776545 -2.351881 0
M  V30 53 H -2.627041 -0.883796 -3.154066 0
M  V30 END ATOM
M  V30 BEGIN BOND
M  V30 1 1 1 2
M  V30 2 2 2 3
M  V30 3 1 3 4
M  V30 4 1 4 5
M  V30 5 2 5 6
M  V30 6 1 6 7
M  V30 7 2 7 8
M  V30 8 1 8 9
M  V30 9 1 8 10
M  V30 10 2 10 11
M  V30 11 2 4 12
M  V30 12 1 12 13
M  V30 13 2 13 14
M  V30 14 1 14 15
M  V30 15 2 15 16
M  V30 16 1 16 17
M  V30 17 1 17 18
M  V30 18 1 18 19
M  V30 19 2 19 20
M  V30 20 1 20 21
M  V30 21 2 21 22
M  V30 22 1 22 23
M  V30 23 1 23 24
M  V30 24 1 24 25
M  V30 25 1 25 26
M  V30 26 1 26 27
M  V30 27 1 27 28
M  V30 28 1 22 29
M  V30 29 2 29 30
M  V30 30 2 17 31
M  V30 31 1 12 32
M  V30 32 1 32 2
M  V30 33 1 11 5
M  V30 34 1 31 13
M  V30 35 1 30 19
M  V30 36 1 28 23
M  V30 37 1 1 33
M  V30 38 1 1 34
M  V30 39 1 6 35
M  V30 40 1 7 36
M  V30 41 1 10 37
M  V30 42 1 11 38
M  V30 43 1 14 39
M  V30 44 1 15 40
M  V30 45 1 18 41
M  V30 46 1 20 42
M  V30 47 1 21 43
M  V30 48 1 24 44
M  V30 49 1 24 45
M  V30 50 1 25 46
M  V30 51 1 25 47
M  V30 52 1 27 48
M  V30 53 1 27 49
M  V30 54 1 28 50
M  V30 55 1 28 51
M  V30 56 1 29 52
M  V30 57 1 30 53
M  V30 END BOND
M  V30 END CTAB
M  END
>  <Dataset>  (161) 
ChEMBL_Kinases

>  <Ligand_Instance>  (161) 
nan

>  <PDB_ID>  (161) 
nan

>  <Standardized_SMILES>  (161) 
Nc1nc(-c2ccc(F)cc2)c(-c2ccnc(Nc3ccc(N4CCOCC4)cc3)n2)s1

>  <Name>  (161) 
nan

>  <Pocket>  (161) 
nan

>  <ATP_Site>  (161) 
nan

>  <Peripheral>  (161) 
nan

>  <Num_H_Atoms_ProtBoundConf>  (161) 
nan

>  <Num_Resolved_Atoms>  (161) 
nan

>  <Num_Not_Resolved_Atoms>  (161) 
nan

$$$$
CHEMBL4462574
     RDKit          3D

  0  0  0  0  0  0  0  0  0  0999 V3000
M  V30 BEGIN CTAB
M  V30 COUNTS 39 42 0 0 0
M  V30 BEGIN ATOM
M  V30 1 C -1.278330 -6.186057 -0.116706 0
M  V30 2 C -0.636804 -6.158987 1.222373 0
M  V30 3 N -0.336180 -7.150267 2.066393 0
M  V30 4 N 0.232989 -6.666049 3.155132 0
M  V30 5 C 0.347043 -5.307217 3.101147 0
M  V30 6 C -0.206236 -5.032529 1.882036 0
M  V30 7 C -0.315845 -3.665529 1.357441 0
M  V30 8 C 0.071436 -2.445075 1.905999 0
M  V30 9 C -0.182387 -1.349163 1.137508 0
M  V30 10 N 0.100938 -0.066844 1.453274 0
M  V30 11 C -0.174834 0.947078 0.655005 0
M  V30 12 C 0.189520 2.335997 1.113403 0 CFG=2
M  V30 13 C 0.193959 3.297641 -0.029989 0
M  V30 14 C 1.160935 4.367053 0.484550 0 CFG=2
M  V30 15 C 1.747050 5.126644 -0.677451 0
M  V30 16 C 2.200419 3.512567 1.149749 0
M  V30 17 N 1.520457 2.356238 1.682569 0
M  V30 18 N -0.759011 0.857862 -0.550256 0
M  V30 19 C -1.068272 -0.381790 -0.929591 0
M  V30 20 O -1.613353 -0.718570 -1.999160 0
M  V30 21 C -0.800581 -1.524243 -0.120576 0
M  V30 22 S -1.039453 -3.240234 -0.251079 0
M  V30 23 H -0.610409 -5.844333 -0.921230 0
M  V30 24 H -2.255862 -5.631591 -0.136917 0
M  V30 25 H -1.533548 -7.253069 -0.335974 0
M  V30 26 H 0.556946 -7.266439 3.963752 0
M  V30 27 H 0.763132 -4.622122 3.825630 0
M  V30 28 H 0.532109 -2.473870 2.877908 0
M  V30 29 H -0.536622 2.679218 1.874605 0
M  V30 30 H 0.598474 2.871528 -0.954208 0
M  V30 31 H -0.807806 3.723127 -0.205846 0
M  V30 32 H 0.675494 5.040142 1.190667 0
M  V30 33 H 2.734737 4.697256 -0.947787 0
M  V30 34 H 1.115566 5.010468 -1.594608 0
M  V30 35 H 1.839453 6.181813 -0.381806 0
M  V30 36 H 2.912988 3.124339 0.374671 0
M  V30 37 H 2.769619 4.090353 1.900067 0
M  V30 38 H 1.471178 2.508394 2.728355 0
M  V30 39 H -0.991946 1.615455 -1.202934 0
M  V30 END ATOM
M  V30 BEGIN BOND
M  V30 1 1 1 2
M  V30 2 2 2 3
M  V30 3 1 3 4
M  V30 4 1 4 5
M  V30 5 2 5 6
M  V30 6 1 6 7
M  V30 7 2 7 8
M  V30 8 1 8 9
M  V30 9 1 9 10
M  V30 10 2 10 11
M  V30 11 1 11 12
M  V30 12 1 12 13
M  V30 13 1 13 14
M  V30 14 1 14 15
M  V30 15 1 14 16
M  V30 16 1 16 17
M  V30 17 1 11 18
M  V30 18 1 18 19
M  V30 19 2 19 20
M  V30 20 1 19 21
M  V30 21 1 21 22
M  V30 22 1 6 2
M  V30 23 1 22 7
M  V30 24 2 21 9
M  V30 25 1 17 12
M  V30 26 1 1 23
M  V30 27 1 1 24
M  V30 28 1 1 25
M  V30 29 1 4 26
M  V30 30 1 5 27
M  V30 31 1 8 28
M  V30 32 1 12 29 CFG=1
M  V30 33 1 13 30
M  V30 34 1 13 31
M  V30 35 1 14 32 CFG=1
M  V30 36 1 15 33
M  V30 37 1 15 34
M  V30 38 1 15 35
M  V30 39 1 16 36
M  V30 40 1 16 37
M  V30 41 1 17 38
M  V30 42 1 18 39
M  V30 END BOND
M  V30 END CTAB
M  END
>  <Dataset>  (162) 
ChEMBL_Kinases

>  <Ligand_Instance>  (162) 
nan

>  <PDB_ID>  (162) 
nan

>  <Standardized_SMILES>  (162) 
Cc1n[nH]cc1-c1cc2nc([C@@H]3C[C@H](C)CN3)[nH]c(=O)c2s1

>  <Name>  (162) 
nan

>  <Pocket>  (162) 
nan

>  <ATP_Site>  (162) 
nan

>  <Peripheral>  (162) 
nan

>  <Num_H_Atoms_ProtBoundConf>  (162) 
nan

>  <Num_Resolved_Atoms>  (162) 
nan

>  <Num_Not_Resolved_Atoms>  (162) 
nan

$$$$
CHEMBL4462520
     RDKit          3D

  0  0  0  0  0  0  0  0  0  0999 V3000
M  V30 BEGIN CTAB
M  V30 COUNTS 50 54 0 0 0
M  V30 BEGIN ATOM
M  V30 1 C 5.326599 -2.224876 3.893186 0
M  V30 2 C 4.824251 -1.915823 2.528103 0
M  V30 3 C 4.936654 -2.885211 1.554946 0
M  V30 4 C 4.461722 -2.552731 0.320765 0
M  V30 5 C 3.895833 -1.337044 0.012187 0
M  V30 6 C 3.775864 -0.351409 0.980649 0
M  V30 7 N 3.200066 0.936850 0.741092 0
M  V30 8 C 2.718555 1.063063 -0.587997 0
M  V30 9 N 3.643088 1.354839 -1.488819 0
M  V30 10 C 3.469455 1.522972 -2.784377 0
M  V30 11 N 2.209104 1.378579 -3.221225 0
M  V30 12 C 1.220218 1.079732 -2.341804 0
M  V30 13 S -0.628273 0.802532 -2.529851 0
M  V30 14 C -0.923443 0.502978 -0.870729 0
M  V30 15 C 0.286387 0.603498 -0.211312 0
M  V30 16 C 1.403021 0.897341 -0.940212 0
M  V30 17 C 0.168409 0.382335 1.251307 0
M  V30 18 C -0.773281 -0.786411 1.452810 0
M  V30 19 N -2.082239 -0.489372 1.006229 0
M  V30 20 C -3.018936 -1.489091 1.367116 0
M  V30 21 C -4.364336 -1.158754 0.835375 0
M  V30 22 C -5.210231 -0.348596 1.553160 0
M  V30 23 C -6.489801 0.033292 1.195285 0
M  V30 24 C -6.957227 -0.458870 -0.016340 0
M  V30 25 C -6.165797 -1.274789 -0.787177 0
M  V30 26 C -4.885269 -1.622268 -0.369380 0
M  V30 27 C -2.212131 0.184497 -0.212683 0
M  V30 28 C 4.261597 -0.691917 2.243541 0
M  V30 29 H 5.647505 -1.319565 4.455632 0
M  V30 30 H 6.119276 -2.984744 3.811946 0
M  V30 31 H 4.464594 -2.734991 4.407692 0
M  V30 32 H 5.374476 -3.840654 1.768283 0
M  V30 33 H 4.537628 -3.308142 -0.476614 0
M  V30 34 H 3.536230 -1.128428 -0.984195 0
M  V30 35 H 3.190975 1.609290 1.512275 0
M  V30 36 H 4.135579 1.756180 -3.585592 0
M  V30 37 H 1.098108 0.252804 1.787233 0
M  V30 38 H -0.339641 1.291769 1.686905 0
M  V30 39 H -0.280356 -1.656662 0.969850 0
M  V30 40 H -0.795286 -0.990561 2.540700 0
M  V30 41 H -2.769742 -2.500539 0.930440 0
M  V30 42 H -3.059454 -1.665635 2.471554 0
M  V30 43 H -4.924406 0.088117 2.524752 0
M  V30 44 H -7.126909 0.672834 1.786585 0
M  V30 45 H -7.930239 -0.238455 -0.410550 0
M  V30 46 H -6.448356 -1.701210 -1.738194 0
M  V30 47 H -4.239466 -2.279018 -0.963659 0
M  V30 48 H -2.704088 1.179249 -0.005191 0
M  V30 49 H -2.863299 -0.347434 -0.928596 0
M  V30 50 H 4.188539 0.049011 3.034163 0
M  V30 END ATOM
M  V30 BEGIN BOND
M  V30 1 1 1 2
M  V30 2 2 2 3
M  V30 3 1 3 4
M  V30 4 2 4 5
M  V30 5 1 5 6
M  V30 6 1 6 7
M  V30 7 1 7 8
M  V30 8 2 8 9
M  V30 9 1 9 10
M  V30 10 2 10 11
M  V30 11 1 11 12
M  V30 12 1 12 13
M  V30 13 1 13 14
M  V30 14 2 14 15
M  V30 15 1 15 16
M  V30 16 1 15 17
M  V30 17 1 17 18
M  V30 18 1 18 19
M  V30 19 1 19 20
M  V30 20 1 20 21
M  V30 21 2 21 22
M  V30 22 1 22 23
M  V30 23 2 23 24
M  V30 24 1 24 25
M  V30 25 2 25 26
M  V30 26 1 19 27
M  V30 27 2 6 28
M  V30 28 1 28 2
M  V30 29 1 16 8
M  V30 30 1 26 21
M  V30 31 2 16 12
M  V30 32 1 27 14
M  V30 33 1 1 29
M  V30 34 1 1 30
M  V30 35 1 1 31
M  V30 36 1 3 32
M  V30 37 1 4 33
M  V30 38 1 5 34
M  V30 39 1 7 35
M  V30 40 1 10 36
M  V30 41 1 17 37
M  V30 42 1 17 38
M  V30 43 1 18 39
M  V30 44 1 18 40
M  V30 45 1 20 41
M  V30 46 1 20 42
M  V30 47 1 22 43
M  V30 48 1 23 44
M  V30 49 1 24 45
M  V30 50 1 25 46
M  V30 51 1 26 47
M  V30 52 1 27 48
M  V30 53 1 27 49
M  V30 54 1 28 50
M  V30 END BOND
M  V30 END CTAB
M  END
>  <Dataset>  (163) 
ChEMBL_Kinases

>  <Ligand_Instance>  (163) 
nan

>  <PDB_ID>  (163) 
nan

>  <Standardized_SMILES>  (163) 
Cc1cccc(Nc2ncnc3sc4c(c23)CCN(Cc2ccccc2)C4)c1

>  <Name>  (163) 
nan

>  <Pocket>  (163) 
nan

>  <ATP_Site>  (163) 
nan

>  <Peripheral>  (163) 
nan

>  <Num_H_Atoms_ProtBoundConf>  (163) 
nan

>  <Num_Resolved_Atoms>  (163) 
nan

>  <Num_Not_Resolved_Atoms>  (163) 
nan

$$$$
CHEMBL4462480
     RDKit          3D

  0  0  0  0  0  0  0  0  0  0999 V3000
M  V30 BEGIN CTAB
M  V30 COUNTS 46 49 0 0 0
M  V30 BEGIN ATOM
M  V30 1 N 1.483997 -0.979396 5.326302 0
M  V30 2 C 2.637655 -0.623245 4.598427 0
M  V30 3 N 3.811375 -0.774868 5.224232 0
M  V30 4 C 4.969824 -0.453370 4.589559 0
M  V30 5 C 4.887887 0.024843 3.302867 0
M  V30 6 C 3.656766 0.178749 2.660093 0
M  V30 7 C 3.571109 0.687133 1.291994 0
M  V30 8 C 2.663269 1.642581 0.887042 0
M  V30 9 C 2.583393 2.121618 -0.404172 0
M  V30 10 C 3.494536 1.575149 -1.308844 0
M  V30 11 C 4.417836 0.618678 -0.945489 0
M  V30 12 F 5.274815 0.129746 -1.876192 0
M  V30 13 C 4.462524 0.167941 0.357768 0
M  V30 14 C 2.454842 -0.153021 3.313841 0
M  V30 15 N 1.247622 0.009978 2.651651 0
M  V30 16 C 0.495579 -0.838774 2.092630 0
M  V30 17 C -0.746424 -0.411831 1.451323 0
M  V30 18 C -1.086842 0.928129 1.464159 0
M  V30 19 C -2.262463 1.392372 0.866088 0
M  V30 20 N -3.044620 0.465979 0.277571 0
M  V30 21 C -2.690180 -0.833627 0.278968 0
M  V30 22 N -3.657369 -1.663214 -0.400415 0
M  V30 23 C -3.304521 -1.749863 -1.776156 0
M  V30 24 O -2.673118 -1.575195 -2.862710 0
M  V30 25 C -4.067478 -2.518571 -2.789290 0
M  V30 26 C -4.975682 -3.608369 -2.404445 0
M  V30 27 C -5.560697 -2.286071 -2.740799 0
M  V30 28 C -1.564377 -1.343412 0.841634 0
M  V30 29 H 0.507445 -0.581096 5.195211 0
M  V30 30 H 1.370386 -1.677285 6.105667 0
M  V30 31 H 5.981399 -0.521769 4.963325 0
M  V30 32 H 5.744832 0.316875 2.689100 0
M  V30 33 H 1.970485 2.046570 1.611702 0
M  V30 34 H 1.851308 2.878842 -0.688629 0
M  V30 35 H 3.463649 1.925692 -2.333504 0
M  V30 36 H 5.172369 -0.577592 0.669534 0
M  V30 37 H 0.833323 -1.836137 2.131172 0
M  V30 38 H -0.401639 1.621810 1.961529 0
M  V30 39 H -2.512736 2.445280 0.886058 0
M  V30 40 H -4.502910 -2.192120 -0.175482 0
M  V30 41 H -3.618592 -2.451958 -3.801219 0
M  V30 42 H -5.091072 -4.430056 -3.140416 0
M  V30 43 H -4.906401 -3.941068 -1.338866 0
M  V30 44 H -6.120105 -2.162229 -3.688991 0
M  V30 45 H -5.988383 -1.649966 -1.931402 0
M  V30 46 H -1.344320 -2.390329 0.805477 0
M  V30 END ATOM
M  V30 BEGIN BOND
M  V30 1 1 1 2
M  V30 2 2 2 3
M  V30 3 1 3 4
M  V30 4 2 4 5
M  V30 5 1 5 6
M  V30 6 1 6 7
M  V30 7 2 7 8
M  V30 8 1 8 9
M  V30 9 2 9 10
M  V30 10 1 10 11
M  V30 11 1 11 12
M  V30 12 2 11 13
M  V30 13 2 6 14
M  V30 14 1 14 15
M  V30 15 2 15 16
M  V30 16 1 16 17
M  V30 17 2 17 18
M  V30 18 1 18 19
M  V30 19 2 19 20
M  V30 20 1 20 21
M  V30 21 1 21 22
M  V30 22 1 22 23
M  V30 23 2 23 24
M  V30 24 1 23 25
M  V30 25 1 25 26
M  V30 26 1 26 27
M  V30 27 2 21 28
M  V30 28 1 14 2
M  V30 29 1 28 17
M  V30 30 1 13 7
M  V30 31 1 27 25
M  V30 32 1 1 29
M  V30 33 1 1 30
M  V30 34 1 4 31
M  V30 35 1 5 32
M  V30 36 1 8 33
M  V30 37 1 9 34
M  V30 38 1 10 35
M  V30 39 1 13 36
M  V30 40 1 16 37
M  V30 41 1 18 38
M  V30 42 1 19 39
M  V30 43 1 22 40
M  V30 44 1 25 41
M  V30 45 1 26 42
M  V30 46 1 26 43
M  V30 47 1 27 44
M  V30 48 1 27 45
M  V30 49 1 28 46
M  V30 END BOND
M  V30 END CTAB
M  END
>  <Dataset>  (164) 
ChEMBL_Kinases

>  <Ligand_Instance>  (164) 
nan

>  <PDB_ID>  (164) 
nan

>  <Standardized_SMILES>  (164) 
Nc1nccc(-c2cccc(F)c2)c1/N=C/c1ccnc(NC(=O)C2CC2)c1

>  <Name>  (164) 
nan

>  <Pocket>  (164) 
nan

>  <ATP_Site>  (164) 
nan

>  <Peripheral>  (164) 
nan

>  <Num_H_Atoms_ProtBoundConf>  (164) 
nan

>  <Num_Resolved_Atoms>  (164) 
nan

>  <Num_Not_Resolved_Atoms>  (164) 
nan

$$$$
CHEMBL4462412
     RDKit          3D

  0  0  0  0  0  0  0  0  0  0999 V3000
M  V30 BEGIN CTAB
M  V30 COUNTS 72 76 0 0 0
M  V30 BEGIN ATOM
M  V30 1 N 3.002575 -1.550699 3.280740 0
M  V30 2 C 3.614110 -0.366198 2.792599 0
M  V30 3 O 4.699290 -0.099035 3.353769 0
M  V30 4 C 3.055626 0.466193 1.746545 0
M  V30 5 C 3.762991 1.586132 1.336254 0
M  V30 6 C 3.272760 2.435078 0.337539 0
M  V30 7 C 4.099332 3.558344 -0.014978 0
M  V30 8 C 4.914779 4.171038 0.927875 0
M  V30 9 C 5.727731 5.262620 0.612775 0
M  V30 10 C 5.633289 5.653502 -0.703144 0
M  V30 11 C 4.854275 5.105223 -1.699884 0
M  V30 12 C 4.070933 4.026619 -1.326963 0
M  V30 13 C 2.064168 2.191225 -0.281722 0
M  V30 14 C 1.378640 1.073646 0.139957 0
M  V30 15 C 0.161752 0.576405 -0.297605 0
M  V30 16 C -0.823152 1.047643 -1.301764 0
M  V30 17 C -2.078199 1.513664 -0.620813 0
M  V30 18 C -3.169698 0.447981 -0.565901 0
M  V30 19 N -3.350013 -0.215651 -1.772734 0
M  V30 20 S -4.495702 -1.368691 -2.036913 0
M  V30 21 O -4.328679 -1.892916 -3.478254 0
M  V30 22 O -5.928379 -0.855796 -1.953079 0
M  V30 23 C -4.309320 -2.814647 -1.028634 0
M  V30 24 C -2.988202 -3.454898 -1.385453 0
M  V30 25 C -2.719924 -4.727596 -0.675720 0
M  V30 26 N -2.632379 -4.584430 0.755395 0
M  V30 27 C -2.605079 -5.895024 1.417562 0
M  V30 28 C -2.424902 -5.634236 2.891000 0
M  V30 29 C -2.521805 -4.177192 3.274905 0
M  V30 30 C -1.543598 -3.327683 2.440031 0
M  V30 31 C -1.319111 -4.026536 1.124427 0
M  V30 32 C -2.506590 0.132066 -2.818039 0
M  V30 33 C -1.053117 0.036328 -2.394634 0
M  V30 34 C -0.007016 -0.556279 0.476385 0
M  V30 35 N 1.002617 -0.786503 1.344153 0
M  V30 36 C 1.868008 0.235638 1.130873 0
M  V30 37 H 2.790302 -2.566832 3.272895 0
M  V30 38 H 2.441845 -1.295636 4.133703 0
M  V30 39 H 4.720811 1.752119 1.842513 0
M  V30 40 H 4.897525 3.774865 1.913746 0
M  V30 41 H 6.340770 5.713559 1.348751 0
M  V30 42 H 6.269495 6.513771 -0.958670 0
M  V30 43 H 4.881372 5.523613 -2.700553 0
M  V30 44 H 3.440044 3.556096 -2.065087 0
M  V30 45 H 1.665109 2.814053 -1.041912 0
M  V30 46 H -0.366301 1.957496 -1.782282 0
M  V30 47 H -1.812538 1.723753 0.454654 0
M  V30 48 H -2.462676 2.447693 -1.031367 0
M  V30 49 H -4.094386 1.015605 -0.249047 0
M  V30 50 H -2.988696 -0.237103 0.278332 0
M  V30 51 H -4.401334 -2.544427 0.034202 0
M  V30 52 H -5.167157 -3.484424 -1.274850 0
M  V30 53 H -3.016946 -3.649312 -2.476678 0
M  V30 54 H -2.224989 -2.669721 -1.214946 0
M  V30 55 H -3.517815 -5.451398 -0.895772 0
M  V30 56 H -1.792218 -5.170309 -1.110122 0
M  V30 57 H -3.434348 -6.544818 1.152235 0
M  V30 58 H -1.652321 -6.384955 1.056530 0
M  V30 59 H -1.440618 -5.986106 3.273912 0
M  V30 60 H -3.271613 -6.152172 3.400777 0
M  V30 61 H -3.532313 -3.830962 3.027999 0
M  V30 62 H -2.253891 -4.111363 4.345107 0
M  V30 63 H -2.023712 -2.345019 2.254889 0
M  V30 64 H -0.608072 -3.219905 3.030607 0
M  V30 65 H -0.840299 -3.465908 0.339039 0
M  V30 66 H -0.616037 -4.879331 1.352626 0
M  V30 67 H -2.621073 -0.563641 -3.683089 0
M  V30 68 H -2.687615 1.153773 -3.247816 0
M  V30 69 H -0.439262 0.250773 -3.297516 0
M  V30 70 H -0.822448 -0.956154 -2.025089 0
M  V30 71 H -0.871101 -1.188141 0.390614 0
M  V30 72 H 1.016769 -1.603000 1.995745 0
M  V30 END ATOM
M  V30 BEGIN BOND
M  V30 1 1 1 2
M  V30 2 2 2 3
M  V30 3 1 2 4
M  V30 4 2 4 5
M  V30 5 1 5 6
M  V30 6 1 6 7
M  V30 7 2 7 8
M  V30 8 1 8 9
M  V30 9 2 9 10
M  V30 10 1 10 11
M  V30 11 2 11 12
M  V30 12 2 6 13
M  V30 13 1 13 14
M  V30 14 1 14 15
M  V30 15 1 15 16
M  V30 16 1 16 17
M  V30 17 1 17 18
M  V30 18 1 18 19
M  V30 19 1 19 20
M  V30 20 2 20 21
M  V30 21 2 20 22
M  V30 22 1 20 23
M  V30 23 1 23 24
M  V30 24 1 24 25
M  V30 25 1 25 26
M  V30 26 1 26 27
M  V30 27 1 27 28
M  V30 28 1 28 29
M  V30 29 1 29 30
M  V30 30 1 30 31
M  V30 31 1 19 32
M  V30 32 1 32 33
M  V30 33 2 15 34
M  V30 34 1 34 35
M  V30 35 1 35 36
M  V30 36 1 36 4
M  V30 37 1 12 7
M  V30 38 2 36 14
M  V30 39 1 33 16
M  V30 40 1 31 26
M  V30 41 1 1 37
M  V30 42 1 1 38
M  V30 43 1 5 39
M  V30 44 1 8 40
M  V30 45 1 9 41
M  V30 46 1 10 42
M  V30 47 1 11 43
M  V30 48 1 12 44
M  V30 49 1 13 45
M  V30 50 1 16 46
M  V30 51 1 17 47
M  V30 52 1 17 48
M  V30 53 1 18 49
M  V30 54 1 18 50
M  V30 55 1 23 51
M  V30 56 1 23 52
M  V30 57 1 24 53
M  V30 58 1 24 54
M  V30 59 1 25 55
M  V30 60 1 25 56
M  V30 61 1 27 57
M  V30 62 1 27 58
M  V30 63 1 28 59
M  V30 64 1 28 60
M  V30 65 1 29 61
M  V30 66 1 29 62
M  V30 67 1 30 63
M  V30 68 1 30 64
M  V30 69 1 31 65
M  V30 70 1 31 66
M  V30 71 1 32 67
M  V30 72 1 32 68
M  V30 73 1 33 69
M  V30 74 1 33 70
M  V30 75 1 34 71
M  V30 76 1 35 72
M  V30 END BOND
M  V30 END CTAB
M  END
>  <Dataset>  (165) 
ChEMBL_Kinases

>  <Ligand_Instance>  (165) 
nan

>  <PDB_ID>  (165) 
nan

>  <Standardized_SMILES>  (165) 
NC(=O)c1cc(-c2ccccc2)cc2c(C3CCN(S(=O)(=O)CCCN4CCCCC4)CC3)c[nH]c12

>  <Name>  (165) 
nan

>  <Pocket>  (165) 
nan

>  <ATP_Site>  (165) 
nan

>  <Peripheral>  (165) 
nan

>  <Num_H_Atoms_ProtBoundConf>  (165) 
nan

>  <Num_Resolved_Atoms>  (165) 
nan

>  <Num_Not_Resolved_Atoms>  (165) 
nan

$$$$
CHEMBL4740334
     RDKit          3D

  0  0  0  0  0  0  0  0  0  0999 V3000
M  V30 BEGIN CTAB
M  V30 COUNTS 56 60 0 0 0
M  V30 BEGIN ATOM
M  V30 1 C 3.740983 -3.854508 5.884940 0
M  V30 2 N 2.612302 -3.172766 5.286561 0
M  V30 3 C 2.890610 -2.409814 4.235584 0
M  V30 4 C 1.819677 -1.760550 3.670909 0
M  V30 5 C 1.377319 -0.916352 2.695799 0
M  V30 6 C 0.092975 -0.488328 2.468237 0
M  V30 7 C -0.048109 0.423864 1.346232 0
M  V30 8 C 0.804703 1.534956 1.426503 0
M  V30 9 N 0.714687 2.432837 0.399939 0
M  V30 10 C -0.155733 2.232789 -0.619969 0
M  V30 11 N -0.042878 3.327233 -1.546406 0
M  V30 12 C 1.151988 3.495938 -2.297471 0
M  V30 13 C 1.996589 4.342351 -1.558890 0
M  V30 14 N 3.227401 4.674326 -2.062025 0
M  V30 15 C 3.656116 4.217497 -3.239313 0
M  V30 16 C 4.954112 4.607896 -3.702056 0
M  V30 17 N 6.019518 4.912302 -4.069697 0
M  V30 18 C 2.820742 3.390275 -3.951408 0
M  V30 19 N 1.607796 3.037900 -3.500180 0
M  V30 20 C -1.001727 1.147917 -0.717948 0
M  V30 21 C -0.927943 0.227405 0.307327 0
M  V30 22 N -1.746957 -0.932828 0.273106 0
M  V30 23 C -2.706998 -1.193125 -0.792045 0
M  V30 24 C -3.371275 -2.501913 -0.501154 0 CFG=1
M  V30 25 C -4.506692 -2.848735 -1.420731 0
M  V30 26 N -4.031759 -3.495158 -2.630388 0
M  V30 27 C -3.398936 -4.752883 -2.273462 0
M  V30 28 C -2.961160 -4.755041 -0.822563 0
M  V30 29 O -2.421048 -3.523245 -0.454050 0
M  V30 30 C -0.830256 -0.986174 3.342104 0
M  V30 31 C -0.566359 -1.847745 4.384156 0
M  V30 32 C 0.775610 -2.221845 4.527261 0
M  V30 33 N 1.313139 -3.036476 5.438937 0
M  V30 34 H 4.612874 -3.151456 6.035919 0
M  V30 35 H 3.494524 -4.258451 6.877907 0
M  V30 36 H 4.058134 -4.673715 5.219873 0
M  V30 37 H 3.825169 -2.167713 3.689523 0
M  V30 38 H 2.223525 -0.597023 2.065929 0
M  V30 39 H 1.490361 1.681216 2.238492 0
M  V30 40 H -0.646449 4.116153 -1.866596 0
M  V30 41 H 1.823865 4.813820 -0.583207 0
M  V30 42 H 3.125595 3.000243 -4.904377 0
M  V30 43 H -1.641879 1.094537 -1.557619 0
M  V30 44 H -1.649224 -1.629720 1.047025 0
M  V30 45 H -3.486144 -0.395202 -0.797856 0
M  V30 46 H -2.235443 -1.144308 -1.790315 0
M  V30 47 H -3.802062 -2.438902 0.524393 0
M  V30 48 H -5.121098 -3.626406 -0.882836 0
M  V30 49 H -5.123663 -1.979140 -1.621959 0
M  V30 50 H -3.406526 -2.849947 -3.142755 0
M  V30 51 H -4.145630 -5.547182 -2.401090 0
M  V30 52 H -2.522552 -4.957127 -2.905736 0
M  V30 53 H -3.771786 -5.060476 -0.123182 0
M  V30 54 H -2.148872 -5.503205 -0.728233 0
M  V30 55 H -1.857608 -0.628787 3.159986 0
M  V30 56 H -1.330046 -2.211070 5.041719 0
M  V30 END ATOM
M  V30 BEGIN BOND
M  V30 1 1 1 2
M  V30 2 1 2 3
M  V30 3 2 3 4
M  V30 4 1 4 5
M  V30 5 2 5 6
M  V30 6 1 6 7
M  V30 7 2 7 8
M  V30 8 1 8 9
M  V30 9 2 9 10
M  V30 10 1 10 11
M  V30 11 1 11 12
M  V30 12 2 12 13
M  V30 13 1 13 14
M  V30 14 2 14 15
M  V30 15 1 15 16
M  V30 16 3 16 17
M  V30 17 1 15 18
M  V30 18 2 18 19
M  V30 19 1 10 20
M  V30 20 2 20 21
M  V30 21 1 21 22
M  V30 22 1 22 23
M  V30 23 1 23 24
M  V30 24 1 24 25
M  V30 25 1 25 26
M  V30 26 1 26 27
M  V30 27 1 27 28
M  V30 28 1 28 29
M  V30 29 1 6 30
M  V30 30 2 30 31
M  V30 31 1 31 32
M  V30 32 2 32 33
M  V30 33 1 33 2
M  V30 34 1 32 4
M  V30 35 1 21 7
M  V30 36 1 29 24
M  V30 37 1 19 12
M  V30 38 1 1 34
M  V30 39 1 1 35
M  V30 40 1 1 36
M  V30 41 1 3 37
M  V30 42 1 5 38
M  V30 43 1 8 39
M  V30 44 1 11 40
M  V30 45 1 13 41
M  V30 46 1 18 42
M  V30 47 1 20 43
M  V30 48 1 22 44
M  V30 49 1 23 45
M  V30 50 1 23 46
M  V30 51 1 24 47 CFG=1
M  V30 52 1 25 48
M  V30 53 1 25 49
M  V30 54 1 26 50
M  V30 55 1 27 51
M  V30 56 1 27 52
M  V30 57 1 28 53
M  V30 58 1 28 54
M  V30 59 1 30 55
M  V30 60 1 31 56
M  V30 END BOND
M  V30 END CTAB
M  END
>  <Dataset>  (166) 
ChEMBL_Kinases

>  <Ligand_Instance>  (166) 
nan

>  <PDB_ID>  (166) 
nan

>  <Standardized_SMILES>  (166) 
Cn1cc2cc(-c3cnc(Nc4cnc(C#N)cn4)cc3NC[C@H]3CNCCO3)ccc2n1

>  <Name>  (166) 
nan

>  <Pocket>  (166) 
nan

>  <ATP_Site>  (166) 
nan

>  <Peripheral>  (166) 
nan

>  <Num_H_Atoms_ProtBoundConf>  (166) 
nan

>  <Num_Resolved_Atoms>  (166) 
nan

>  <Num_Not_Resolved_Atoms>  (166) 
nan

$$$$
CHEMBL4740336
     RDKit          3D

  0  0  0  0  0  0  0  0  0  0999 V3000
M  V30 BEGIN CTAB
M  V30 COUNTS 25 27 0 0 0
M  V30 BEGIN ATOM
M  V30 1 O 0.432622 -3.144236 3.665708 0
M  V30 2 C 0.102447 -3.230893 2.455610 0
M  V30 3 N -0.295450 -4.386710 1.886295 0
M  V30 4 C -0.656782 -4.523102 0.597136 0
M  V30 5 C -0.620257 -3.387363 -0.221209 0
M  V30 6 C -0.205836 -2.232064 0.412774 0
M  V30 7 N -0.082153 -0.995379 -0.152173 0
M  V30 8 C 0.347035 -0.120416 0.776255 0
M  V30 9 C 0.605460 1.303966 0.576598 0
M  V30 10 C 0.398414 1.839145 -0.680277 0
M  V30 11 C 0.633310 3.187991 -0.907718 0
M  V30 12 C 1.073218 3.969608 0.140913 0
M  V30 13 I 1.444250 6.030190 -0.159300 0
M  V30 14 C 1.268490 3.399092 1.381909 0
M  V30 15 C 1.045181 2.061254 1.645064 0
M  V30 16 C 0.496447 -0.829947 1.956955 0
M  V30 17 N 0.153634 -2.107269 1.704502 0
M  V30 18 H -0.329246 -5.253347 2.487695 0
M  V30 19 H -0.969279 -5.474900 0.187248 0
M  V30 20 H -0.890496 -3.409706 -1.252708 0
M  V30 21 H 0.049212 1.181731 -1.481437 0
M  V30 22 H 0.463201 3.582604 -1.902277 0
M  V30 23 H 1.612762 3.998415 2.213020 0
M  V30 24 H 1.183164 1.575420 2.591850 0
M  V30 25 H 0.826099 -0.438721 2.907530 0
M  V30 END ATOM
M  V30 BEGIN BOND
M  V30 1 2 1 2
M  V30 2 1 2 3
M  V30 3 1 3 4
M  V30 4 2 4 5
M  V30 5 1 5 6
M  V30 6 2 6 7
M  V30 7 1 7 8
M  V30 8 1 8 9
M  V30 9 2 9 10
M  V30 10 1 10 11
M  V30 11 2 11 12
M  V30 12 1 12 13
M  V30 13 1 12 14
M  V30 14 2 14 15
M  V30 15 2 8 16
M  V30 16 1 16 17
M  V30 17 1 17 2
M  V30 18 1 17 6
M  V30 19 1 15 9
M  V30 20 1 3 18
M  V30 21 1 4 19
M  V30 22 1 5 20
M  V30 23 1 10 21
M  V30 24 1 11 22
M  V30 25 1 14 23
M  V30 26 1 15 24
M  V30 27 1 16 25
M  V30 END BOND
M  V30 END CTAB
M  END
>  <Dataset>  (167) 
ChEMBL_Kinases

>  <Ligand_Instance>  (167) 
nan

>  <PDB_ID>  (167) 
nan

>  <Standardized_SMILES>  (167) 
O=c1[nH]ccc2nc(-c3ccc(I)cc3)cn12

>  <Name>  (167) 
nan

>  <Pocket>  (167) 
nan

>  <ATP_Site>  (167) 
nan

>  <Peripheral>  (167) 
nan

>  <Num_H_Atoms_ProtBoundConf>  (167) 
nan

>  <Num_Resolved_Atoms>  (167) 
nan

>  <Num_Not_Resolved_Atoms>  (167) 
nan

$$$$
CHEMBL4740364
     RDKit          3D

  0  0  0  0  0  0  0  0  0  0999 V3000
M  V30 BEGIN CTAB
M  V30 COUNTS 41 44 0 0 0
M  V30 BEGIN ATOM
M  V30 1 C 0.380017 -5.302237 1.014559 0
M  V30 2 C -0.526677 -4.224987 1.502637 0
M  V30 3 O -1.825622 -4.706818 1.721253 0
M  V30 4 C -0.636710 -3.080380 0.572457 0
M  V30 5 C -0.145477 -1.861543 0.689027 0
M  V30 6 C -0.310963 -0.794906 -0.292273 0
M  V30 7 C -1.003163 -0.956969 -1.448530 0
M  V30 8 C -1.146796 0.069590 -2.364578 0
M  V30 9 C -0.576640 1.303068 -2.113469 0
M  V30 10 N -0.695175 2.308529 -2.977584 0
M  V30 11 C -0.144608 3.527930 -2.760535 0
M  V30 12 C 0.552115 3.645519 -1.566409 0
M  V30 13 C 0.723272 2.639645 -0.605680 0
M  V30 14 C 1.479900 2.961954 0.595975 0
M  V30 15 C 2.720993 3.591851 0.433745 0
M  V30 16 N 3.238826 3.802375 1.653651 0
M  V30 17 N 2.408363 3.347574 2.585180 0
M  V30 18 C 1.342360 2.838535 1.941144 0
M  V30 19 C 0.121240 1.441335 -0.931212 0
M  V30 20 C 0.261977 0.431919 -0.031929 0
M  V30 21 C -0.038184 -3.795040 2.858440 0
M  V30 22 N -0.449389 -2.743508 3.563661 0
M  V30 23 C 0.170850 -2.611992 4.744142 0
M  V30 24 C 1.145131 -3.444876 5.240282 0
M  V30 25 S 1.206203 -4.621287 3.802522 0
M  V30 26 H -0.133160 -6.061076 0.383971 0
M  V30 27 H 1.287699 -4.893392 0.552765 0
M  V30 28 H 0.710004 -5.888745 1.921103 0
M  V30 29 H -1.868702 -5.290339 2.517156 0
M  V30 30 H -1.208258 -3.324343 -0.311945 0
M  V30 31 H 0.411556 -1.704525 1.602411 0
M  V30 32 H -1.467818 -1.874134 -1.709162 0
M  V30 33 H -1.689534 -0.008353 -3.302662 0
M  V30 34 H -0.205279 4.372649 -3.415982 0
M  V30 35 H 1.011116 4.625085 -1.361527 0
M  V30 36 H 3.336561 3.935173 -0.407725 0
M  V30 37 H 2.489024 3.345760 3.626972 0
M  V30 38 H 0.452543 2.380355 2.346478 0
M  V30 39 H 0.815104 0.553585 0.887550 0
M  V30 40 H -0.231856 -1.719254 5.255697 0
M  V30 41 H 1.591994 -3.309773 6.143507 0
M  V30 END ATOM
M  V30 BEGIN BOND
M  V30 1 1 1 2
M  V30 2 1 2 3
M  V30 3 1 2 4
M  V30 4 2 4 5
M  V30 5 1 5 6
M  V30 6 2 6 7
M  V30 7 1 7 8
M  V30 8 2 8 9
M  V30 9 1 9 10
M  V30 10 2 10 11
M  V30 11 1 11 12
M  V30 12 2 12 13
M  V30 13 1 13 14
M  V30 14 1 14 15
M  V30 15 2 15 16
M  V30 16 1 16 17
M  V30 17 1 17 18
M  V30 18 1 13 19
M  V30 19 2 19 20
M  V30 20 1 2 21
M  V30 21 2 21 22
M  V30 22 1 22 23
M  V30 23 2 23 24
M  V30 24 1 24 25
M  V30 25 1 20 6
M  V30 26 1 25 21
M  V30 27 1 19 9
M  V30 28 2 18 14
M  V30 29 1 1 26
M  V30 30 1 1 27
M  V30 31 1 1 28
M  V30 32 1 3 29
M  V30 33 1 4 30
M  V30 34 1 5 31
M  V30 35 1 7 32
M  V30 36 1 8 33
M  V30 37 1 11 34
M  V30 38 1 12 35
M  V30 39 1 15 36
M  V30 40 1 17 37
M  V30 41 1 18 38
M  V30 42 1 20 39
M  V30 43 1 23 40
M  V30 44 1 24 41
M  V30 END BOND
M  V30 END CTAB
M  END
>  <Dataset>  (168) 
ChEMBL_Kinases

>  <Ligand_Instance>  (168) 
nan

>  <PDB_ID>  (168) 
nan

>  <Standardized_SMILES>  (168) 
CC(O)(/C=C/c1ccc2nccc(-c3cn[nH]c3)c2c1)c1nccs1

>  <Name>  (168) 
nan

>  <Pocket>  (168) 
nan

>  <ATP_Site>  (168) 
nan

>  <Peripheral>  (168) 
nan

>  <Num_H_Atoms_ProtBoundConf>  (168) 
nan

>  <Num_Resolved_Atoms>  (168) 
nan

>  <Num_Not_Resolved_Atoms>  (168) 
nan

$$$$
CHEMBL4462277
     RDKit          3D

  0  0  0  0  0  0  0  0  0  0999 V3000
M  V30 BEGIN CTAB
M  V30 COUNTS 54 58 0 0 0
M  V30 BEGIN ATOM
M  V30 1 C 5.728203 0.251939 5.390893 0
M  V30 2 N 4.966747 1.468858 5.168106 0
M  V30 3 C 4.840778 2.403668 6.149383 0
M  V30 4 C 4.062881 3.386147 5.560764 0
M  V30 5 C 3.740345 3.041518 4.271037 0
M  V30 6 N 2.960376 3.729292 3.288672 0
M  V30 7 C 2.739625 3.207662 1.984111 0
M  V30 8 N 3.487434 3.507025 0.885145 0
M  V30 9 C 3.173264 2.935030 -0.314024 0
M  V30 10 C 2.093744 2.077062 -0.309621 0
M  V30 11 C 1.318695 1.752876 0.780412 0
M  V30 12 C 0.188656 0.836181 0.755981 0
M  V30 13 C -0.483326 0.604630 1.954574 0
M  V30 14 C -1.545791 -0.270757 1.880281 0
M  V30 15 C -1.984316 -0.920577 0.735615 0
M  V30 16 C -1.282962 -0.659669 -0.442582 0
M  V30 17 C -0.213872 0.212044 -0.402818 0
M  V30 18 C -1.970031 -1.462763 -1.450287 0
M  V30 19 O -1.583964 -1.458873 -2.647575 0
M  V30 20 N -3.055433 -2.179432 -0.864541 0
M  V30 21 C -3.980103 -3.063357 -1.544624 0
M  V30 22 C -4.828044 -2.246905 -2.513084 0
M  V30 23 O -4.067005 -1.603922 -3.480962 0
M  V30 24 C -3.272663 -4.151646 -2.234876 0
M  V30 25 C -3.643669 -4.516026 -3.515217 0
M  V30 26 C -2.993035 -5.529447 -4.191832 0
M  V30 27 C -1.944922 -6.197052 -3.574924 0
M  V30 28 C -1.561643 -5.838373 -2.283460 0
M  V30 29 Cl -0.241835 -6.658882 -1.471706 0
M  V30 30 C -2.229475 -4.822015 -1.632063 0
M  V30 31 C -3.102637 -1.875643 0.563511 0
M  V30 32 N 1.708281 2.371137 1.924636 0
M  V30 33 N 4.322829 1.851784 4.082118 0
M  V30 34 H 6.737769 0.376852 4.947387 0
M  V30 35 H 5.824277 0.009660 6.461673 0
M  V30 36 H 5.236862 -0.582635 4.835105 0
M  V30 37 H 5.237642 2.404987 7.147879 0
M  V30 38 H 3.721227 4.325706 6.008189 0
M  V30 39 H 2.544779 4.647878 3.553745 0
M  V30 40 H 3.747865 3.153121 -1.201408 0
M  V30 41 H 1.863203 1.637252 -1.263863 0
M  V30 42 H -0.201081 1.073245 2.884528 0
M  V30 43 H -2.068301 -0.447693 2.819344 0
M  V30 44 H 0.284003 0.369646 -1.343077 0
M  V30 45 H -4.703234 -3.478965 -0.808791 0
M  V30 46 H -5.295401 -1.433975 -1.897194 0
M  V30 47 H -5.644702 -2.849584 -2.920722 0
M  V30 48 H -4.598909 -1.427047 -4.289000 0
M  V30 49 H -4.447893 -4.043003 -4.054989 0
M  V30 50 H -3.270500 -5.830009 -5.197840 0
M  V30 51 H -1.414713 -7.001517 -4.085277 0
M  V30 52 H -1.973978 -4.502945 -0.629098 0
M  V30 53 H -2.997742 -2.796295 1.170506 0
M  V30 54 H -4.037348 -1.309649 0.770558 0
M  V30 END ATOM
M  V30 BEGIN BOND
M  V30 1 1 1 2
M  V30 2 1 2 3
M  V30 3 2 3 4
M  V30 4 1 4 5
M  V30 5 1 5 6
M  V30 6 1 6 7
M  V30 7 2 7 8
M  V30 8 1 8 9
M  V30 9 2 9 10
M  V30 10 1 10 11
M  V30 11 1 11 12
M  V30 12 2 12 13
M  V30 13 1 13 14
M  V30 14 2 14 15
M  V30 15 1 15 16
M  V30 16 2 16 17
M  V30 17 1 16 18
M  V30 18 2 18 19
M  V30 19 1 18 20
M  V30 20 1 20 21
M  V30 21 1 21 22
M  V30 22 1 22 23
M  V30 23 1 21 24
M  V30 24 2 24 25
M  V30 25 1 25 26
M  V30 26 2 26 27
M  V30 27 1 27 28
M  V30 28 1 28 29
M  V30 29 2 28 30
M  V30 30 1 20 31
M  V30 31 2 11 32
M  V30 32 2 5 33
M  V30 33 1 33 2
M  V30 34 1 32 7
M  V30 35 1 17 12
M  V30 36 1 30 24
M  V30 37 1 31 15
M  V30 38 1 1 34
M  V30 39 1 1 35
M  V30 40 1 1 36
M  V30 41 1 3 37
M  V30 42 1 4 38
M  V30 43 1 6 39
M  V30 44 1 9 40
M  V30 45 1 10 41
M  V30 46 1 13 42
M  V30 47 1 14 43
M  V30 48 1 17 44
M  V30 49 1 21 45
M  V30 50 1 22 46
M  V30 51 1 22 47
M  V30 52 1 23 48
M  V30 53 1 25 49
M  V30 54 1 26 50
M  V30 55 1 27 51
M  V30 56 1 30 52
M  V30 57 1 31 53
M  V30 58 1 31 54
M  V30 END BOND
M  V30 END CTAB
M  END
>  <Dataset>  (169) 
ChEMBL_Kinases

>  <Ligand_Instance>  (169) 
nan

>  <PDB_ID>  (169) 
nan

>  <Standardized_SMILES>  (169) 
Cn1ccc(Nc2nccc(-c3ccc4c(c3)C(=O)N(C(CO)c3cccc(Cl)c3)C4)n2)n1

>  <Name>  (169) 
nan

>  <Pocket>  (169) 
nan

>  <ATP_Site>  (169) 
nan

>  <Peripheral>  (169) 
nan

>  <Num_H_Atoms_ProtBoundConf>  (169) 
nan

>  <Num_Resolved_Atoms>  (169) 
nan

>  <Num_Not_Resolved_Atoms>  (169) 
nan

$$$$
CHEMBL4462258
     RDKit          3D

  0  0  0  0  0  0  0  0  0  0999 V3000
M  V30 BEGIN CTAB
M  V30 COUNTS 28 29 0 0 0
M  V30 BEGIN ATOM
M  V30 1 C 0.968833 1.036537 3.357812 0
M  V30 2 C 1.690544 -0.123689 2.742317 0
M  V30 3 N 2.827995 -0.680095 3.243967 0
M  V30 4 N 3.237480 -1.678405 2.500884 0
M  V30 5 C 2.352537 -1.775842 1.496766 0
M  V30 6 C 2.337281 -2.669613 0.446679 0
M  V30 7 C 1.292411 -2.527588 -0.441500 0
M  V30 8 N 0.349086 -1.584545 -0.300026 0
M  V30 9 C 0.339750 -0.702545 0.711677 0
M  V30 10 N -0.697297 0.289409 0.816359 0
M  V30 11 C -1.688471 0.257272 -0.219868 0
M  V30 12 C -2.438608 -1.051603 -0.288533 0
M  V30 13 C -0.979433 0.389577 -1.572717 0
M  V30 14 C 1.371508 -0.816025 1.619643 0
M  V30 15 H -0.038036 0.774220 3.685467 0
M  V30 16 H 0.953803 1.901080 2.695687 0
M  V30 17 H 1.564460 1.369992 4.257022 0
M  V30 18 H 4.083226 -2.279212 2.657308 0
M  V30 19 H 3.113538 -3.421666 0.358033 0
M  V30 20 H 1.232112 -3.212279 -1.294922 0
M  V30 21 H -0.835576 1.011959 1.515506 0
M  V30 22 H -2.416345 1.069917 -0.073318 0
M  V30 23 H -1.926491 -1.754336 -0.974499 0
M  V30 24 H -2.629447 -1.522324 0.673123 0
M  V30 25 H -3.461226 -0.874736 -0.732212 0
M  V30 26 H -0.928009 -0.563722 -2.115328 0
M  V30 27 H -1.533429 1.110105 -2.215262 0
M  V30 28 H 0.063408 0.775170 -1.447451 0
M  V30 END ATOM
M  V30 BEGIN BOND
M  V30 1 1 1 2
M  V30 2 2 2 3
M  V30 3 1 3 4
M  V30 4 1 4 5
M  V30 5 2 5 6
M  V30 6 1 6 7
M  V30 7 2 7 8
M  V30 8 1 8 9
M  V30 9 1 9 10
M  V30 10 1 10 11
M  V30 11 1 11 12
M  V30 12 1 11 13
M  V30 13 2 9 14
M  V30 14 1 14 2
M  V30 15 1 14 5
M  V30 16 1 1 15
M  V30 17 1 1 16
M  V30 18 1 1 17
M  V30 19 1 4 18
M  V30 20 1 6 19
M  V30 21 1 7 20
M  V30 22 1 10 21
M  V30 23 1 11 22
M  V30 24 1 12 23
M  V30 25 1 12 24
M  V30 26 1 12 25
M  V30 27 1 13 26
M  V30 28 1 13 27
M  V30 29 1 13 28
M  V30 END BOND
M  V30 END CTAB
M  END
>  <Dataset>  (170) 
ChEMBL_Kinases

>  <Ligand_Instance>  (170) 
nan

>  <PDB_ID>  (170) 
nan

>  <Standardized_SMILES>  (170) 
Cc1n[nH]c2ccnc(NC(C)C)c12

>  <Name>  (170) 
nan

>  <Pocket>  (170) 
nan

>  <ATP_Site>  (170) 
nan

>  <Peripheral>  (170) 
nan

>  <Num_H_Atoms_ProtBoundConf>  (170) 
nan

>  <Num_Resolved_Atoms>  (170) 
nan

>  <Num_Not_Resolved_Atoms>  (170) 
nan

$$$$
CHEMBL4462244
     RDKit          3D

  0  0  0  0  0  0  0  0  0  0999 V3000
M  V30 BEGIN CTAB
M  V30 COUNTS 38 40 0 0 0
M  V30 BEGIN ATOM
M  V30 1 C 0.031760 -4.577878 3.736915 0
M  V30 2 C -0.421103 -3.649134 2.648550 0
M  V30 3 C 0.588804 -2.479960 2.621608 0 CFG=1
M  V30 4 C 1.920083 -3.198309 2.320867 0
M  V30 5 N 0.276089 -1.488211 1.663763 0
M  V30 6 C -0.016738 -0.486091 0.714553 0
M  V30 7 N 0.680160 0.636131 0.479393 0
M  V30 8 C 0.399603 1.575088 -0.413488 0
M  V30 9 C 1.246133 2.752486 -0.567205 0
M  V30 10 C 0.838251 3.648281 -1.531870 0
M  V30 11 C 1.660559 4.772398 -1.667229 0
M  V30 12 N 2.757177 4.948806 -0.908716 0
M  V30 13 C 3.086976 4.025453 0.012585 0
M  V30 14 C 2.355977 2.872434 0.242048 0
M  V30 15 N -0.700749 1.323019 -1.121425 0
M  V30 16 C -1.495409 0.269218 -1.013686 0
M  V30 17 C -2.580248 0.234461 -1.863815 0
M  V30 18 N -3.392724 -0.856966 -1.744187 0
M  V30 19 C -3.130160 -1.822020 -0.847382 0
M  V30 20 C -2.028737 -1.714825 -0.035295 0
M  V30 21 C -1.139021 -0.663019 -0.064466 0
M  V30 22 H -0.713915 -5.401840 3.826224 0
M  V30 23 H 1.020049 -5.025629 3.524530 0
M  V30 24 H 0.050731 -4.090819 4.733195 0
M  V30 25 H -1.431402 -3.280779 2.897492 0
M  V30 26 H -0.350886 -4.167766 1.688122 0
M  V30 27 H 0.625408 -2.139758 3.697519 0
M  V30 28 H 2.417911 -3.533971 3.233811 0
M  V30 29 H 2.527640 -2.411240 1.810687 0
M  V30 30 H 1.720247 -3.972905 1.566966 0
M  V30 31 H 1.155828 -1.049971 2.059368 0
M  V30 32 H -0.052092 3.472660 -2.124702 0
M  V30 33 H 1.353754 5.502042 -2.432486 0
M  V30 34 H 3.980932 4.195649 0.612195 0
M  V30 35 H 2.612614 2.124867 0.979601 0
M  V30 36 H -2.763025 1.028206 -2.574668 0
M  V30 37 H -3.776277 -2.697521 -0.746907 0
M  V30 38 H -1.839480 -2.493721 0.669717 0
M  V30 END ATOM
M  V30 BEGIN BOND
M  V30 1 1 1 2
M  V30 2 1 2 3
M  V30 3 1 3 4
M  V30 4 1 3 5
M  V30 5 1 5 6
M  V30 6 2 6 7
M  V30 7 1 7 8
M  V30 8 1 8 9
M  V30 9 2 9 10
M  V30 10 1 10 11
M  V30 11 2 11 12
M  V30 12 1 12 13
M  V30 13 2 13 14
M  V30 14 2 8 15
M  V30 15 1 15 16
M  V30 16 2 16 17
M  V30 17 1 17 18
M  V30 18 2 18 19
M  V30 19 1 19 20
M  V30 20 2 20 21
M  V30 21 1 21 6
M  V30 22 1 14 9
M  V30 23 1 21 16
M  V30 24 1 1 22
M  V30 25 1 1 23
M  V30 26 1 1 24
M  V30 27 1 2 25
M  V30 28 1 2 26
M  V30 29 1 3 27 CFG=1
M  V30 30 1 4 28
M  V30 31 1 4 29
M  V30 32 1 4 30
M  V30 33 1 5 31
M  V30 34 1 10 32
M  V30 35 1 11 33
M  V30 36 1 13 34
M  V30 37 1 14 35
M  V30 38 1 17 36
M  V30 39 1 19 37
M  V30 40 1 20 38
M  V30 END BOND
M  V30 END CTAB
M  END
>  <Dataset>  (171) 
ChEMBL_Kinases

>  <Ligand_Instance>  (171) 
nan

>  <PDB_ID>  (171) 
nan

>  <Standardized_SMILES>  (171) 
CC[C@@H](C)Nc1nc(-c2ccncc2)nc2cnccc12

>  <Name>  (171) 
nan

>  <Pocket>  (171) 
nan

>  <ATP_Site>  (171) 
nan

>  <Peripheral>  (171) 
nan

>  <Num_H_Atoms_ProtBoundConf>  (171) 
nan

>  <Num_Resolved_Atoms>  (171) 
nan

>  <Num_Not_Resolved_Atoms>  (171) 
nan

$$$$
CHEMBL4462230
     RDKit          3D

  0  0  0  0  0  0  0  0  0  0999 V3000
M  V30 BEGIN CTAB
M  V30 COUNTS 45 48 0 0 0
M  V30 BEGIN ATOM
M  V30 1 C -0.080987 -2.630496 1.265338 0
M  V30 2 C -1.145621 -2.390918 0.249606 0 CFG=2
M  V30 3 C -0.647937 -2.330501 -1.153215 0
M  V30 4 C 0.330492 -1.276134 -1.492099 0
M  V30 5 O 1.548096 -1.296005 -0.811509 0
M  V30 6 C 2.472217 -0.317955 -1.143813 0
M  V30 7 C 3.414813 -0.673438 -2.063859 0
M  V30 8 C 4.413116 0.161306 -2.520076 0
M  V30 9 C 4.498045 1.461798 -2.033102 0
M  V30 10 C 3.567242 1.886521 -1.093061 0
M  V30 11 C 2.623719 0.974400 -0.713896 0
M  V30 12 C 1.643573 1.378479 0.264243 0
M  V30 13 O 0.945867 2.350781 -0.093803 0
M  V30 14 N 1.035850 1.217276 1.501298 0
M  V30 15 C 0.427472 1.055907 2.739675 0
M  V30 16 C 0.802875 1.533986 3.963131 0
M  V30 17 C -0.062077 1.163433 4.969497 0
M  V30 18 C -1.173111 0.390930 4.720683 0
M  V30 19 C -1.508419 -0.066882 3.476530 0
M  V30 20 N -0.656166 0.306354 2.515284 0
M  V30 21 C -2.595364 -0.896324 3.018941 0
M  V30 22 N -3.580595 -1.318388 3.826977 0
M  V30 23 N -4.435748 -2.078337 3.127989 0
M  V30 24 C -3.910864 -2.079794 1.891554 0
M  V30 25 N -2.756336 -1.348484 1.785217 0
M  V30 26 C -2.055889 -1.220764 0.556456 0
M  V30 27 H 0.417046 -3.598858 0.972504 0
M  V30 28 H 0.653548 -1.807752 1.264032 0
M  V30 29 H -0.500902 -2.816835 2.280247 0
M  V30 30 H -1.845986 -3.289529 0.271869 0
M  V30 31 H -1.550518 -2.162445 -1.800944 0
M  V30 32 H -0.284596 -3.337522 -1.457770 0
M  V30 33 H 0.575886 -1.413076 -2.588550 0
M  V30 34 H -0.152164 -0.272373 -1.467950 0
M  V30 35 H 3.473323 -1.656845 -2.532332 0
M  V30 36 H 5.168499 -0.117316 -3.254567 0
M  V30 37 H 5.236850 2.196912 -2.320754 0
M  V30 38 H 3.485387 2.859320 -0.619448 0
M  V30 39 H 1.753203 0.481047 1.680655 0
M  V30 40 H 1.693286 2.075486 3.818846 0
M  V30 41 H 0.226838 1.534412 5.919471 0
M  V30 42 H -1.846965 0.102715 5.509281 0
M  V30 43 H -4.482682 -2.660692 1.165916 0
M  V30 44 H -1.543533 -0.244679 0.465267 0
M  V30 45 H -2.761951 -1.201723 -0.339609 0
M  V30 END ATOM
M  V30 BEGIN BOND
M  V30 1 1 1 2
M  V30 2 1 2 3
M  V30 3 1 3 4
M  V30 4 1 4 5
M  V30 5 1 5 6
M  V30 6 2 6 7
M  V30 7 1 7 8
M  V30 8 2 8 9
M  V30 9 1 9 10
M  V30 10 2 10 11
M  V30 11 1 11 12
M  V30 12 2 12 13
M  V30 13 1 12 14
M  V30 14 1 14 15
M  V30 15 1 15 16
M  V30 16 2 16 17
M  V30 17 1 17 18
M  V30 18 2 18 19
M  V30 19 1 19 20
M  V30 20 1 19 21
M  V30 21 2 21 22
M  V30 22 1 22 23
M  V30 23 2 23 24
M  V30 24 1 24 25
M  V30 25 1 25 26
M  V30 26 1 26 2
M  V30 27 1 11 6
M  V30 28 2 20 15
M  V30 29 1 25 21
M  V30 30 1 1 27
M  V30 31 1 1 28
M  V30 32 1 1 29
M  V30 33 1 2 30 CFG=3
M  V30 34 1 3 31
M  V30 35 1 3 32
M  V30 36 1 4 33
M  V30 37 1 4 34
M  V30 38 1 7 35
M  V30 39 1 8 36
M  V30 40 1 9 37
M  V30 41 1 10 38
M  V30 42 1 14 39
M  V30 43 1 16 40
M  V30 44 1 17 41
M  V30 45 1 18 42
M  V30 46 1 24 43
M  V30 47 1 26 44
M  V30 48 1 26 45
M  V30 END BOND
M  V30 END CTAB
M  END
>  <Dataset>  (172) 
ChEMBL_Kinases

>  <Ligand_Instance>  (172) 
nan

>  <PDB_ID>  (172) 
nan

>  <Standardized_SMILES>  (172) 
C[C@@H]1CCOc2ccccc2C(=O)Nc2cccc(n2)-c2nncn2C1

>  <Name>  (172) 
nan

>  <Pocket>  (172) 
nan

>  <ATP_Site>  (172) 
nan

>  <Peripheral>  (172) 
nan

>  <Num_H_Atoms_ProtBoundConf>  (172) 
nan

>  <Num_Resolved_Atoms>  (172) 
nan

>  <Num_Not_Resolved_Atoms>  (172) 
nan

$$$$
CHEMBL4462156
     RDKit          3D

  0  0  0  0  0  0  0  0  0  0999 V3000
M  V30 BEGIN CTAB
M  V30 COUNTS 39 42 0 0 0
M  V30 BEGIN ATOM
M  V30 1 C 0.175453 -3.639933 2.994738 0
M  V30 2 C 0.246535 -2.566605 1.950435 0
M  V30 3 N 1.068076 -1.432722 2.349814 0
M  V30 4 C 1.210111 -0.350269 1.438128 0
M  V30 5 N 0.608501 -0.368623 0.247257 0
M  V30 6 C 0.704988 0.623934 -0.656695 0
M  V30 7 C 0.012165 0.523330 -1.940182 0
M  V30 8 C -1.193031 0.872728 -2.521055 0
M  V30 9 N -1.181928 0.459875 -3.806014 0
M  V30 10 N -0.020986 -0.133490 -4.055357 0
M  V30 11 C 0.754927 -0.121437 -2.934861 0
M  V30 12 N 1.452523 1.728683 -0.374073 0
M  V30 13 C 2.100680 1.830782 0.817843 0
M  V30 14 C 2.860080 2.944994 1.113872 0
M  V30 15 N 3.502996 3.029794 2.314372 0
M  V30 16 C 3.376843 1.999916 3.199891 0
M  V30 17 C 2.616130 0.902238 2.882923 0
M  V30 18 C 1.958848 0.776291 1.699031 0
M  V30 19 C -1.104708 -2.120796 1.511187 0
M  V30 20 C -1.842241 -2.505771 0.410736 0
M  V30 21 C -3.085082 -1.946271 0.211503 0
M  V30 22 N -3.611487 -1.046036 1.035724 0
M  V30 23 C -2.918187 -0.656810 2.107627 0
M  V30 24 C -1.658818 -1.175034 2.376245 0
M  V30 25 H -0.700918 -3.509914 3.683124 0
M  V30 26 H 0.090172 -4.659983 2.569982 0
M  V30 27 H 1.143049 -3.620875 3.537599 0
M  V30 28 H 0.724343 -3.043108 1.052194 0
M  V30 29 H 1.485139 -1.517249 3.282956 0
M  V30 30 H -1.870428 1.387304 -1.845247 0
M  V30 31 H 0.067522 -0.489263 -5.052539 0
M  V30 32 H 1.707190 -0.602758 -3.122448 0
M  V30 33 H 2.896103 3.710237 0.339690 0
M  V30 34 H 3.930251 2.175020 4.120299 0
M  V30 35 H 2.566735 0.140960 3.625781 0
M  V30 36 H -1.327717 -3.239565 -0.194699 0
M  V30 37 H -3.612706 -2.282163 -0.658602 0
M  V30 38 H -3.369799 0.078342 2.763801 0
M  V30 39 H -1.174361 -0.796556 3.271129 0
M  V30 END ATOM
M  V30 BEGIN BOND
M  V30 1 1 1 2
M  V30 2 1 2 3
M  V30 3 1 3 4
M  V30 4 2 4 5
M  V30 5 1 5 6
M  V30 6 1 6 7
M  V30 7 1 7 8
M  V30 8 2 8 9
M  V30 9 1 9 10
M  V30 10 1 10 11
M  V30 11 2 6 12
M  V30 12 1 12 13
M  V30 13 2 13 14
M  V30 14 1 14 15
M  V30 15 2 15 16
M  V30 16 1 16 17
M  V30 17 2 17 18
M  V30 18 1 2 19
M  V30 19 2 19 20
M  V30 20 1 20 21
M  V30 21 2 21 22
M  V30 22 1 22 23
M  V30 23 2 23 24
M  V30 24 1 18 4
M  V30 25 1 24 19
M  V30 26 2 11 7
M  V30 27 1 18 13
M  V30 28 1 1 25
M  V30 29 1 1 26
M  V30 30 1 1 27
M  V30 31 1 2 28
M  V30 32 1 3 29
M  V30 33 1 8 30
M  V30 34 1 10 31
M  V30 35 1 11 32
M  V30 36 1 14 33
M  V30 37 1 16 34
M  V30 38 1 17 35
M  V30 39 1 20 36
M  V30 40 1 21 37
M  V30 41 1 23 38
M  V30 42 1 24 39
M  V30 END BOND
M  V30 END CTAB
M  END
>  <Dataset>  (173) 
ChEMBL_Kinases

>  <Ligand_Instance>  (173) 
nan

>  <PDB_ID>  (173) 
nan

>  <Standardized_SMILES>  (173) 
CC(Nc1nc(-c2cn[nH]c2)nc2cnccc12)c1ccncc1

>  <Name>  (173) 
nan

>  <Pocket>  (173) 
nan

>  <ATP_Site>  (173) 
nan

>  <Peripheral>  (173) 
nan

>  <Num_H_Atoms_ProtBoundConf>  (173) 
nan

>  <Num_Resolved_Atoms>  (173) 
nan

>  <Num_Not_Resolved_Atoms>  (173) 
nan

$$$$
CHEMBL4462759
     RDKit          3D

  0  0  0  0  0  0  0  0  0  0999 V3000
M  V30 BEGIN CTAB
M  V30 COUNTS 42 45 0 0 0
M  V30 BEGIN ATOM
M  V30 1 C 1.364487 -6.915286 3.123497 0
M  V30 2 O 2.600995 -6.501944 2.523763 0
M  V30 3 C 2.605217 -5.227474 1.929989 0
M  V30 4 C 1.468347 -4.428402 1.911421 0
M  V30 5 C 1.515366 -3.155945 1.314767 0
M  V30 6 C 2.687053 -2.640459 0.724106 0
M  V30 7 O 2.404573 -1.426981 0.265760 0
M  V30 8 C 2.125068 -0.785203 -0.863117 0
M  V30 9 N 1.832686 0.500842 -0.562396 0
M  V30 10 C 1.504926 1.455226 -1.426437 0
M  V30 11 N 1.086253 2.811915 -1.417567 0
M  V30 12 C 0.099429 2.847738 -0.361131 0
M  V30 13 C 0.184616 2.343340 0.908094 0
M  V30 14 C -0.860708 2.369981 1.803423 0
M  V30 15 C -2.066525 2.924365 1.438377 0
M  V30 16 C -3.180475 2.939119 2.386149 0
M  V30 17 N -3.317906 2.548910 3.649473 0
M  V30 18 N -4.539656 2.753171 4.099747 0
M  V30 19 N -5.227378 3.290707 3.110858 0
M  V30 20 N -4.429424 3.411530 2.072529 0
M  V30 21 C -2.206963 3.449031 0.176516 0
M  V30 22 C -1.130738 3.412975 -0.723039 0
M  V30 23 N 1.474329 1.060977 -2.737244 0
M  V30 24 C 1.756744 -0.206227 -3.105220 0
M  V30 25 C 2.087712 -1.173536 -2.215146 0
M  V30 26 Cl 2.481794 -2.839891 -2.446726 0
M  V30 27 C 3.780615 -3.489855 0.775391 0
M  V30 28 C 3.787429 -4.759205 1.353337 0
M  V30 29 H 0.994727 -6.064379 3.779265 0
M  V30 30 H 1.530705 -7.832098 3.737646 0
M  V30 31 H 0.641054 -7.138360 2.325607 0
M  V30 32 H 0.520018 -4.786628 2.365213 0
M  V30 33 H 0.526910 -2.675209 1.386031 0
M  V30 34 H 1.426667 3.582399 -2.023010 0
M  V30 35 H 1.147127 1.918760 1.171016 0
M  V30 36 H -0.736511 1.961968 2.795512 0
M  V30 37 H -4.746195 3.815834 1.157997 0
M  V30 38 H -3.156923 3.897938 -0.148460 0
M  V30 39 H -1.256872 3.824998 -1.703581 0
M  V30 40 H 1.742296 -0.564955 -4.130611 0
M  V30 41 H 4.632305 -2.997969 0.289783 0
M  V30 42 H 4.711719 -5.304269 1.320131 0
M  V30 END ATOM
M  V30 BEGIN BOND
M  V30 1 1 1 2
M  V30 2 1 2 3
M  V30 3 2 3 4
M  V30 4 1 4 5
M  V30 5 2 5 6
M  V30 6 1 6 7
M  V30 7 1 7 8
M  V30 8 2 8 9
M  V30 9 1 9 10
M  V30 10 1 10 11
M  V30 11 1 11 12
M  V30 12 2 12 13
M  V30 13 1 13 14
M  V30 14 2 14 15
M  V30 15 1 15 16
M  V30 16 2 16 17
M  V30 17 1 17 18
M  V30 18 2 18 19
M  V30 19 1 19 20
M  V30 20 1 15 21
M  V30 21 2 21 22
M  V30 22 2 10 23
M  V30 23 1 23 24
M  V30 24 2 24 25
M  V30 25 1 25 26
M  V30 26 1 6 27
M  V30 27 2 27 28
M  V30 28 1 28 3
M  V30 29 1 25 8
M  V30 30 1 22 12
M  V30 31 1 20 16
M  V30 32 1 1 29
M  V30 33 1 1 30
M  V30 34 1 1 31
M  V30 35 1 4 32
M  V30 36 1 5 33
M  V30 37 1 11 34
M  V30 38 1 13 35
M  V30 39 1 14 36
M  V30 40 1 20 37
M  V30 41 1 21 38
M  V30 42 1 22 39
M  V30 43 1 24 40
M  V30 44 1 27 41
M  V30 45 1 28 42
M  V30 END BOND
M  V30 END CTAB
M  END
>  <Dataset>  (174) 
ChEMBL_Kinases

>  <Ligand_Instance>  (174) 
nan

>  <PDB_ID>  (174) 
nan

>  <Standardized_SMILES>  (174) 
COc1ccc(Oc2nc(Nc3ccc(-c4nnn[nH]4)cc3)ncc2Cl)cc1

>  <Name>  (174) 
nan

>  <Pocket>  (174) 
nan

>  <ATP_Site>  (174) 
nan

>  <Peripheral>  (174) 
nan

>  <Num_H_Atoms_ProtBoundConf>  (174) 
nan

>  <Num_Resolved_Atoms>  (174) 
nan

>  <Num_Not_Resolved_Atoms>  (174) 
nan

$$$$
CHEMBL4455728
     RDKit          3D

  0  0  0  0  0  0  0  0  0  0999 V3000
M  V30 BEGIN CTAB
M  V30 COUNTS 56 60 0 0 0
M  V30 BEGIN ATOM
M  V30 1 C -1.937500 -5.186142 4.343274 0
M  V30 2 C -1.508519 -4.163067 3.368983 0
M  V30 3 C -0.636206 -3.133899 3.657554 0
M  V30 4 C -0.258493 -2.184350 2.694646 0
M  V30 5 O 0.635882 -1.272721 3.300139 0
M  V30 6 C -0.777006 -2.271164 1.389867 0
M  V30 7 C -0.190007 -1.176260 0.726771 0
M  V30 8 C -0.814278 0.095739 0.727065 0
M  V30 9 C -0.192206 1.176453 0.142717 0
M  V30 10 C 1.042269 1.038189 -0.448883 0
M  V30 11 C 1.901051 2.037106 -1.134578 0
M  V30 12 C 2.909146 2.812704 -0.386862 0
M  V30 13 N 2.450710 3.645329 0.681173 0
M  V30 14 C 3.551242 4.312448 1.360089 0
M  V30 15 C 1.408207 4.580368 0.322100 0
M  V30 16 C 2.328702 1.701821 -2.554447 0
M  V30 17 C 1.246782 2.719960 -2.343987 0
M  V30 18 C 1.689186 -0.201931 -0.468422 0
M  V30 19 C 1.090165 -1.328112 0.115481 0
M  V30 20 C -1.630193 -3.302613 1.160251 0
M  V30 21 C -2.008125 -4.235604 2.087390 0
M  V30 22 N -2.848936 -5.210728 1.772505 0
M  V30 23 C -3.371270 -5.338238 0.542594 0
M  V30 24 O -4.161689 -6.255263 0.247586 0
M  V30 25 C -2.989194 -4.392100 -0.402406 0
M  V30 26 C -3.524346 -4.534103 -1.647706 0
M  V30 27 C -3.146936 -3.600854 -2.589048 0
M  V30 28 C -2.265877 -2.535506 -2.355115 0
M  V30 29 C -1.802835 -2.511179 -1.062222 0
M  V30 30 C -2.132305 -3.392556 -0.093782 0
M  V30 31 H -3.004045 -5.042058 4.559924 0
M  V30 32 H -1.394305 -5.113885 5.298009 0
M  V30 33 H -1.711645 -6.220205 3.949065 0
M  V30 34 H -0.303331 -3.168431 4.689908 0
M  V30 35 H 0.325103 -0.494718 3.864670 0
M  V30 36 H -1.782854 0.247155 1.180704 0
M  V30 37 H -0.583923 2.179952 0.090150 0
M  V30 38 H 3.653509 2.106149 0.037238 0
M  V30 39 H 3.482585 3.454255 -1.103140 0
M  V30 40 H 3.310966 5.341034 1.644885 0
M  V30 41 H 3.715540 3.746288 2.313550 0
M  V30 42 H 4.476992 4.224950 0.752682 0
M  V30 43 H 0.823947 4.794017 1.253768 0
M  V30 44 H 1.791893 5.559120 -0.032742 0
M  V30 45 H 0.727966 4.097725 -0.383124 0
M  V30 46 H 2.052787 0.727306 -2.997992 0
M  V30 47 H 3.312690 2.055567 -2.923813 0
M  V30 48 H 1.517677 3.745778 -2.607683 0
M  V30 49 H 0.199134 2.447399 -2.581151 0
M  V30 50 H 2.650453 -0.454485 -0.893078 0
M  V30 51 H 1.536222 -2.312940 0.134337 0
M  V30 52 H -3.135928 -5.924129 2.487124 0
M  V30 53 H -4.199645 -5.330558 -1.871832 0
M  V30 54 H -3.602559 -3.754357 -3.577226 0
M  V30 55 H -2.112917 -1.930715 -3.231857 0
M  V30 56 H -1.180229 -1.679807 -1.082259 0
M  V30 END ATOM
M  V30 BEGIN BOND
M  V30 1 1 1 2
M  V30 2 2 2 3
M  V30 3 1 3 4
M  V30 4 1 4 5
M  V30 5 2 4 6
M  V30 6 1 6 7
M  V30 7 2 7 8
M  V30 8 1 8 9
M  V30 9 2 9 10
M  V30 10 1 10 11
M  V30 11 1 11 12
M  V30 12 1 12 13
M  V30 13 1 13 14
M  V30 14 1 13 15
M  V30 15 1 11 16
M  V30 16 1 16 17
M  V30 17 1 10 18
M  V30 18 2 18 19
M  V30 19 1 6 20
M  V30 20 2 20 21
M  V30 21 1 21 22
M  V30 22 1 22 23
M  V30 23 2 23 24
M  V30 24 1 23 25
M  V30 25 2 25 26
M  V30 26 1 26 27
M  V30 27 2 27 28
M  V30 28 1 28 29
M  V30 29 2 29 30
M  V30 30 1 21 2
M  V30 31 1 30 25
M  V30 32 1 19 7
M  V30 33 1 30 20
M  V30 34 1 17 11
M  V30 35 1 1 31
M  V30 36 1 1 32
M  V30 37 1 1 33
M  V30 38 1 3 34
M  V30 39 1 5 35
M  V30 40 1 8 36
M  V30 41 1 9 37
M  V30 42 1 12 38
M  V30 43 1 12 39
M  V30 44 1 14 40
M  V30 45 1 14 41
M  V30 46 1 14 42
M  V30 47 1 15 43
M  V30 48 1 15 44
M  V30 49 1 15 45
M  V30 50 1 16 46
M  V30 51 1 16 47
M  V30 52 1 17 48
M  V30 53 1 17 49
M  V30 54 1 18 50
M  V30 55 1 19 51
M  V30 56 1 22 52
M  V30 57 1 26 53
M  V30 58 1 27 54
M  V30 59 1 28 55
M  V30 60 1 29 56
M  V30 END BOND
M  V30 END CTAB
M  END
>  <Dataset>  (175) 
ChEMBL_Kinases

>  <Ligand_Instance>  (175) 
nan

>  <PDB_ID>  (175) 
nan

>  <Standardized_SMILES>  (175) 
Cc1cc(O)c(-c2ccc(C3(CN(C)C)CC3)cc2)c2c1[nH]c(=O)c1ccccc12

>  <Name>  (175) 
nan

>  <Pocket>  (175) 
nan

>  <ATP_Site>  (175) 
nan

>  <Peripheral>  (175) 
nan

>  <Num_H_Atoms_ProtBoundConf>  (175) 
nan

>  <Num_Resolved_Atoms>  (175) 
nan

>  <Num_Not_Resolved_Atoms>  (175) 
nan

$$$$
CHEMBL4455682
     RDKit          3D

  0  0  0  0  0  0  0  0  0  0999 V3000
M  V30 BEGIN CTAB
M  V30 COUNTS 57 61 0 0 0
M  V30 BEGIN ATOM
M  V30 1 O -0.269351 -2.688322 0.585843 0
M  V30 2 C -1.220922 -3.530744 0.886682 0
M  V30 3 N -0.473773 -4.512355 2.016189 0
M  V30 4 C 0.794610 -3.911410 2.014658 0
M  V30 5 C 1.759658 -4.259480 1.121459 0
M  V30 6 C 3.000696 -3.864836 0.779346 0
M  V30 7 C 3.221796 -2.787273 1.673684 0
M  V30 8 O 4.522437 -2.103170 1.520310 0
M  V30 9 C 4.244977 -0.811716 0.948302 0
M  V30 10 C 4.149023 -0.638949 -0.441460 0
M  V30 11 C 3.876725 0.541378 -1.117635 0
M  V30 12 N 3.685862 1.622386 -0.374362 0
M  V30 13 C 3.736504 1.656101 0.936348 0
M  V30 14 N 3.498634 2.699690 1.892039 0
M  V30 15 C 2.087037 2.411449 2.041149 0
M  V30 16 O 1.746080 1.471523 1.324373 0
M  V30 17 C 1.214236 3.227772 3.006800 0
M  V30 18 C 0.281130 2.401696 3.855073 0
M  V30 19 C -0.279847 3.114225 2.671717 0
M  V30 20 C 4.018352 0.435317 1.563040 0
M  V30 21 C 2.419790 -2.271894 2.646905 0
M  V30 22 F 2.606591 -1.311574 3.551981 0
M  V30 23 C 1.184999 -2.820326 2.845097 0
M  V30 24 C -1.772596 -2.753717 0.009423 0
M  V30 25 C -2.994879 -3.514333 0.517490 0
M  V30 26 C -4.400246 -3.515017 0.193250 0
M  V30 27 C -4.742352 -2.614697 -0.821144 0
M  V30 28 N -3.650764 -1.972775 -1.238071 0
M  V30 29 C -3.607755 -1.004669 -2.346795 0
M  V30 30 C -2.725273 -1.061719 -3.465072 0
M  V30 31 C -2.906911 -0.075378 -4.412231 0
M  V30 32 C -3.820615 0.927493 -4.388245 0
M  V30 33 F -4.014246 1.884049 -5.309435 0
M  V30 34 C -4.664430 0.966888 -3.297212 0
M  V30 35 C -4.543570 0.023245 -2.326934 0
M  V30 36 C -2.464691 -2.102700 -0.824732 0
M  V30 37 O -1.314550 -1.550908 -1.126224 0
M  V30 38 H -1.443656 -4.829223 1.899867 0
M  V30 39 H 1.452368 -5.102810 0.456043 0
M  V30 40 H 3.760352 -4.116615 0.113628 0
M  V30 41 H 4.303281 -1.610235 -0.964528 0
M  V30 42 H 3.848268 0.350571 -2.171808 0
M  V30 43 H 4.002620 3.438595 2.395321 0
M  V30 44 H 1.648147 4.059712 3.518129 0
M  V30 45 H 0.358772 1.277699 3.776302 0
M  V30 46 H 0.081837 2.737718 4.875768 0
M  V30 47 H -0.933689 3.974610 2.810740 0
M  V30 48 H -0.557948 2.428606 1.804969 0
M  V30 49 H 4.122292 0.399541 2.634355 0
M  V30 50 H 0.408810 -2.559153 3.545782 0
M  V30 51 H -3.285948 -4.325039 1.322002 0
M  V30 52 H -5.388554 -3.943007 0.416709 0
M  V30 53 H -5.580234 -2.256459 -1.386219 0
M  V30 54 H -2.005245 -1.845500 -3.472872 0
M  V30 55 H -2.254589 -0.113935 -5.280162 0
M  V30 56 H -5.431165 1.754046 -3.234240 0
M  V30 57 H -5.226070 0.061882 -1.480300 0
M  V30 END ATOM
M  V30 BEGIN BOND
M  V30 1 2 1 2
M  V30 2 1 2 3
M  V30 3 1 3 4
M  V30 4 2 4 5
M  V30 5 1 5 6
M  V30 6 2 6 7
M  V30 7 1 7 8
M  V30 8 1 8 9
M  V30 9 2 9 10
M  V30 10 1 10 11
M  V30 11 2 11 12
M  V30 12 1 12 13
M  V30 13 1 13 14
M  V30 14 1 14 15
M  V30 15 2 15 16
M  V30 16 1 15 17
M  V30 17 1 17 18
M  V30 18 1 18 19
M  V30 19 2 13 20
M  V30 20 1 7 21
M  V30 21 1 21 22
M  V30 22 2 21 23
M  V30 23 1 2 24
M  V30 24 2 24 25
M  V30 25 1 25 26
M  V30 26 2 26 27
M  V30 27 1 27 28
M  V30 28 1 28 29
M  V30 29 2 29 30
M  V30 30 1 30 31
M  V30 31 2 31 32
M  V30 32 1 32 33
M  V30 33 1 32 34
M  V30 34 2 34 35
M  V30 35 1 28 36
M  V30 36 2 36 37
M  V30 37 1 23 4
M  V30 38 1 36 24
M  V30 39 1 20 9
M  V30 40 1 35 29
M  V30 41 1 19 17
M  V30 42 1 3 38
M  V30 43 1 5 39
M  V30 44 1 6 40
M  V30 45 1 10 41
M  V30 46 1 11 42
M  V30 47 1 14 43
M  V30 48 1 17 44
M  V30 49 1 18 45
M  V30 50 1 18 46
M  V30 51 1 19 47
M  V30 52 1 19 48
M  V30 53 1 20 49
M  V30 54 1 23 50
M  V30 55 1 25 51
M  V30 56 1 26 52
M  V30 57 1 27 53
M  V30 58 1 30 54
M  V30 59 1 31 55
M  V30 60 1 34 56
M  V30 61 1 35 57
M  V30 END BOND
M  V30 END CTAB
M  END
>  <Dataset>  (176) 
ChEMBL_Kinases

>  <Ligand_Instance>  (176) 
nan

>  <PDB_ID>  (176) 
nan

>  <Standardized_SMILES>  (176) 
O=C(Nc1ccc(Oc2ccnc(NC(=O)C3CC3)c2)c(F)c1)c1cccn(-c2ccc(F)cc2)c1=O

>  <Name>  (176) 
nan

>  <Pocket>  (176) 
nan

>  <ATP_Site>  (176) 
nan

>  <Peripheral>  (176) 
nan

>  <Num_H_Atoms_ProtBoundConf>  (176) 
nan

>  <Num_Resolved_Atoms>  (176) 
nan

>  <Num_Not_Resolved_Atoms>  (176) 
nan

$$$$
CHEMBL4746054
     RDKit          3D

  0  0  0  0  0  0  0  0  0  0999 V3000
M  V30 BEGIN CTAB
M  V30 COUNTS 37 39 0 0 0
M  V30 BEGIN ATOM
M  V30 1 C 0.419600 -5.907471 4.491591 0
M  V30 2 C 0.377438 -5.148504 3.566288 0
M  V30 3 C 0.317181 -4.227928 2.476985 0
M  V30 4 N 1.384775 -3.528534 2.075710 0
M  V30 5 C 1.374840 -2.619878 1.087904 0
M  V30 6 N 2.603112 -1.951001 0.793802 0
M  V30 7 C 2.281116 -0.729267 0.155965 0
M  V30 8 C 1.325867 -0.395315 -0.747710 0
M  V30 9 C 1.092313 0.914700 -1.111791 0
M  V30 10 C 1.897767 1.849503 -0.494599 0
M  V30 11 C 1.512910 3.263286 -0.835156 0
M  V30 12 C 0.010650 3.272570 -1.026578 0
M  V30 13 O -0.672293 3.795406 -1.965143 0
M  V30 14 N -0.747106 2.602638 -0.058074 0
M  V30 15 C -2.189035 2.414425 0.015500 0
M  V30 16 C 2.909597 1.603988 0.439930 0
M  V30 17 C 3.086394 0.250289 0.758979 0
M  V30 18 N 0.177218 -2.496925 0.544472 0
M  V30 19 C -0.938981 -3.123107 0.847229 0
M  V30 20 N -2.176782 -3.048292 0.331676 0
M  V30 21 C -2.938272 -3.927832 1.027401 0
M  V30 22 N -2.153117 -4.525831 1.956859 0
M  V30 23 C -0.901840 -4.042259 1.863576 0
M  V30 24 H 0.458618 -6.588728 5.300074 0
M  V30 25 H 3.521471 -2.347314 1.031624 0
M  V30 26 H 0.767912 -1.184912 -1.173681 0
M  V30 27 H 0.330615 1.157779 -1.812335 0
M  V30 28 H 1.982374 3.626480 -1.763726 0
M  V30 29 H 1.736305 3.978212 -0.025574 0
M  V30 30 H -0.347573 2.099017 0.791004 0
M  V30 31 H -2.471774 1.336384 0.077036 0
M  V30 32 H -2.672213 2.825359 -0.903433 0
M  V30 33 H -2.553904 2.921824 0.907593 0
M  V30 34 H 3.431546 2.453786 0.811237 0
M  V30 35 H 3.897225 0.157880 1.483516 0
M  V30 36 H -2.545953 -2.472001 -0.440522 0
M  V30 37 H -3.990355 -4.214850 0.965346 0
M  V30 END ATOM
M  V30 BEGIN BOND
M  V30 1 3 1 2
M  V30 2 1 2 3
M  V30 3 2 3 4
M  V30 4 1 4 5
M  V30 5 1 5 6
M  V30 6 1 6 7
M  V30 7 2 7 8
M  V30 8 1 8 9
M  V30 9 2 9 10
M  V30 10 1 10 11
M  V30 11 1 11 12
M  V30 12 2 12 13
M  V30 13 1 12 14
M  V30 14 1 14 15
M  V30 15 1 10 16
M  V30 16 2 16 17
M  V30 17 2 5 18
M  V30 18 1 18 19
M  V30 19 1 19 20
M  V30 20 1 20 21
M  V30 21 2 21 22
M  V30 22 1 22 23
M  V30 23 1 23 3
M  V30 24 1 17 7
M  V30 25 2 23 19
M  V30 26 1 1 24
M  V30 27 1 6 25
M  V30 28 1 8 26
M  V30 29 1 9 27
M  V30 30 1 11 28
M  V30 31 1 11 29
M  V30 32 1 14 30
M  V30 33 1 15 31
M  V30 34 1 15 32
M  V30 35 1 15 33
M  V30 36 1 16 34
M  V30 37 1 17 35
M  V30 38 1 20 36
M  V30 39 1 21 37
M  V30 END BOND
M  V30 END CTAB
M  END
>  <Dataset>  (177) 
ChEMBL_Kinases

>  <Ligand_Instance>  (177) 
nan

>  <PDB_ID>  (177) 
nan

>  <Standardized_SMILES>  (177) 
C#Cc1nc(Nc2ccc(CC(=O)NC)cc2)nc2[nH]cnc12

>  <Name>  (177) 
nan

>  <Pocket>  (177) 
nan

>  <ATP_Site>  (177) 
nan

>  <Peripheral>  (177) 
nan

>  <Num_H_Atoms_ProtBoundConf>  (177) 
nan

>  <Num_Resolved_Atoms>  (177) 
nan

>  <Num_Not_Resolved_Atoms>  (177) 
nan

$$$$
CHEMBL4455587
     RDKit          3D

  0  0  0  0  0  0  0  0  0  0999 V3000
M  V30 BEGIN CTAB
M  V30 COUNTS 64 69 0 0 0
M  V30 BEGIN ATOM
M  V30 1 F 2.699156 -4.118311 4.402616 0
M  V30 2 C 2.317251 -2.940875 3.827686 0
M  V30 3 C 2.122625 -1.834954 4.653117 0
M  V30 4 C 1.737825 -0.639326 4.084578 0
M  V30 5 C 1.533367 -0.468223 2.738712 0
M  V30 6 C 1.144697 0.741670 2.006891 0
M  V30 7 N 1.943459 1.278122 1.114847 0
M  V30 8 C 1.739234 2.245850 0.457258 0
M  V30 9 N 2.335765 3.090124 -0.562865 0
M  V30 10 C 3.620120 3.011029 -1.227607 0
M  V30 11 C 3.194553 2.916331 -2.692784 0
M  V30 12 C 1.996729 3.855046 -2.684178 0
M  V30 13 C 1.842874 4.280129 -1.234603 0
M  V30 14 S 0.073272 2.760492 1.011108 0
M  V30 15 C -0.060035 1.361865 2.207179 0
M  V30 16 C -1.255426 1.192084 3.038854 0
M  V30 17 C -1.540935 1.265638 4.376731 0
M  V30 18 C -2.830824 1.042888 4.798196 0
M  V30 19 N -3.801647 0.754012 3.907301 0
M  V30 20 C -3.562476 0.673577 2.609086 0
M  V30 21 N -4.614117 0.322338 1.649871 0
M  V30 22 C -3.983008 -0.724491 0.869728 0
M  V30 23 C -2.823814 -0.381765 0.156824 0
M  V30 24 C -1.997359 -1.258928 -0.562364 0
M  V30 25 C -2.406380 -2.571453 -0.536730 0
M  V30 26 N -1.532627 -3.473712 -1.203584 0
M  V30 27 C -1.956295 -4.799244 -1.605166 0
M  V30 28 C -0.708873 -5.612985 -1.879173 0
M  V30 29 N 0.043027 -5.071260 -2.991953 0
M  V30 30 C 0.116596 -3.624696 -2.935199 0
M  V30 31 C -0.168389 -3.181797 -1.502608 0
M  V30 32 C -3.540295 -2.943913 0.145599 0
M  V30 33 C -4.348153 -2.071180 0.851308 0
M  V30 34 N -2.295527 0.900410 2.265410 0
M  V30 35 C 1.743796 -1.617483 1.960709 0
M  V30 36 C 2.122290 -2.819834 2.464307 0
M  V30 37 H 2.249815 -1.840914 5.730089 0
M  V30 38 H 1.566005 0.263832 4.669031 0
M  V30 39 H 4.254322 2.179335 -0.902103 0
M  V30 40 H 4.176257 3.964024 -1.140784 0
M  V30 41 H 2.916971 1.864754 -2.890174 0
M  V30 42 H 3.992509 3.234197 -3.386259 0
M  V30 43 H 2.258012 4.718678 -3.324243 0
M  V30 44 H 1.087445 3.387785 -3.095776 0
M  V30 45 H 2.524936 5.116034 -1.015772 0
M  V30 46 H 0.824134 4.568896 -0.957627 0
M  V30 47 H -0.626559 1.506299 4.929198 0
M  V30 48 H -2.949385 1.127021 5.868226 0
M  V30 49 H -5.569730 0.717667 1.552757 0
M  V30 50 H -2.519802 0.676975 0.100846 0
M  V30 51 H -1.162395 -0.792930 -1.042323 0
M  V30 52 H -2.590562 -4.784655 -2.495960 0
M  V30 53 H -2.488576 -5.281505 -0.738979 0
M  V30 54 H -0.093697 -5.770087 -0.973800 0
M  V30 55 H -1.044273 -6.628622 -2.179794 0
M  V30 56 H -0.421126 -5.350541 -3.860012 0
M  V30 57 H 1.109578 -3.239327 -3.249741 0
M  V30 58 H -0.667900 -3.173280 -3.569200 0
M  V30 59 H 0.460487 -3.816506 -0.814793 0
M  V30 60 H 0.175824 -2.164535 -1.346401 0
M  V30 61 H -3.830606 -3.987576 0.142711 0
M  V30 62 H -5.229364 -2.311085 1.387617 0
M  V30 63 H 1.612472 -1.588935 0.877250 0
M  V30 64 H 2.295217 -3.717555 1.880628 0
M  V30 END ATOM
M  V30 BEGIN BOND
M  V30 1 1 1 2
M  V30 2 2 2 3
M  V30 3 1 3 4
M  V30 4 2 4 5
M  V30 5 1 5 6
M  V30 6 1 6 7
M  V30 7 2 7 8
M  V30 8 1 8 9
M  V30 9 1 9 10
M  V30 10 1 10 11
M  V30 11 1 11 12
M  V30 12 1 12 13
M  V30 13 1 8 14
M  V30 14 1 14 15
M  V30 15 1 15 16
M  V30 16 2 16 17
M  V30 17 1 17 18
M  V30 18 2 18 19
M  V30 19 1 19 20
M  V30 20 1 20 21
M  V30 21 1 21 22
M  V30 22 2 22 23
M  V30 23 1 23 24
M  V30 24 2 24 25
M  V30 25 1 25 26
M  V30 26 1 26 27
M  V30 27 1 27 28
M  V30 28 1 28 29
M  V30 29 1 29 30
M  V30 30 1 30 31
M  V30 31 1 25 32
M  V30 32 2 32 33
M  V30 33 2 20 34
M  V30 34 1 5 35
M  V30 35 2 35 36
M  V30 36 1 36 2
M  V30 37 2 15 6
M  V30 38 1 34 16
M  V30 39 1 13 9
M  V30 40 1 33 22
M  V30 41 1 31 26
M  V30 42 1 3 37
M  V30 43 1 4 38
M  V30 44 1 10 39
M  V30 45 1 10 40
M  V30 46 1 11 41
M  V30 47 1 11 42
M  V30 48 1 12 43
M  V30 49 1 12 44
M  V30 50 1 13 45
M  V30 51 1 13 46
M  V30 52 1 17 47
M  V30 53 1 18 48
M  V30 54 1 21 49
M  V30 55 1 23 50
M  V30 56 1 24 51
M  V30 57 1 27 52
M  V30 58 1 27 53
M  V30 59 1 28 54
M  V30 60 1 28 55
M  V30 61 1 29 56
M  V30 62 1 30 57
M  V30 63 1 30 58
M  V30 64 1 31 59
M  V30 65 1 31 60
M  V30 66 1 32 61
M  V30 67 1 33 62
M  V30 68 1 35 63
M  V30 69 1 36 64
M  V30 END BOND
M  V30 END CTAB
M  END
>  <Dataset>  (178) 
ChEMBL_Kinases

>  <Ligand_Instance>  (178) 
nan

>  <PDB_ID>  (178) 
nan

>  <Standardized_SMILES>  (178) 
Fc1ccc(-c2nc(N3CCCC3)sc2-c2ccnc(Nc3ccc(N4CCNCC4)cc3)n2)cc1

>  <Name>  (178) 
nan

>  <Pocket>  (178) 
nan

>  <ATP_Site>  (178) 
nan

>  <Peripheral>  (178) 
nan

>  <Num_H_Atoms_ProtBoundConf>  (178) 
nan

>  <Num_Resolved_Atoms>  (178) 
nan

>  <Num_Not_Resolved_Atoms>  (178) 
nan

$$$$
CHEMBL4455582
     RDKit          3D

  0  0  0  0  0  0  0  0  0  0999 V3000
M  V30 BEGIN CTAB
M  V30 COUNTS 68 72 0 0 0
M  V30 BEGIN ATOM
M  V30 1 C 4.971071 -4.506499 2.884558 0
M  V30 2 C 3.943934 -3.731039 2.124942 0
M  V30 3 N 4.075233 -2.409659 1.958630 0
M  V30 4 C 3.188076 -1.626214 1.281038 0
M  V30 5 C 3.542926 -0.202796 1.227008 0
M  V30 6 C 2.905754 0.543329 2.376484 0
M  V30 7 C 1.625944 1.259345 2.045603 0
M  V30 8 N 1.840967 2.166662 0.936571 0
M  V30 9 C 1.001886 3.125418 0.353016 0
M  V30 10 O 1.464625 3.810829 -0.626304 0
M  V30 11 C -0.348344 3.508063 0.656653 0
M  V30 12 C -1.172042 2.936942 1.600184 0
M  V30 13 C -2.466217 3.294551 1.884826 0
M  V30 14 C -3.022748 4.328227 1.167303 0
M  V30 15 O -4.323014 4.740664 1.402806 0
M  V30 16 C -4.648326 5.752201 2.353174 0
M  V30 17 F -4.048166 6.943836 2.055087 0
M  V30 18 F -4.259564 5.325449 3.597543 0
M  V30 19 F -6.020916 5.901935 2.365935 0
M  V30 20 C -2.272353 4.957612 0.203398 0
M  V30 21 C -0.957023 4.535203 -0.029669 0
M  V30 22 N -0.302414 5.275779 -1.051507 0
M  V30 23 C 3.175889 2.025402 0.326972 0
M  V30 24 C 3.236809 0.528928 -0.046770 0
M  V30 25 C 2.141502 -2.351882 0.787981 0
M  V30 26 N 1.227993 -1.650797 0.113714 0
M  V30 27 C 0.121575 -2.146002 -0.454597 0
M  V30 28 C -0.124042 -3.500868 -0.350814 0
M  V30 29 N -1.239067 -4.213601 -0.881284 0
M  V30 30 C -1.383488 -5.671166 -0.748260 0
M  V30 31 C -2.381397 -6.083064 -1.817722 0
M  V30 32 N -3.686764 -5.530321 -1.577876 0
M  V30 33 C -4.452795 -5.510143 -2.804979 0
M  V30 34 C -3.614634 -4.175046 -1.072771 0
M  V30 35 C -2.326617 -3.569290 -1.594815 0
M  V30 36 C 0.800541 -4.256474 0.340204 0
M  V30 37 C 1.925856 -3.703433 0.909240 0
M  V30 38 N 2.878117 -4.370553 1.604121 0
M  V30 39 H 4.413975 -5.275180 3.496420 0
M  V30 40 H 5.469502 -3.854847 3.645572 0
M  V30 41 H 5.667034 -5.058403 2.249905 0
M  V30 42 H 4.677760 -0.103430 1.374254 0
M  V30 43 H 3.639200 1.221066 2.877539 0
M  V30 44 H 2.653129 -0.209855 3.183523 0
M  V30 45 H 1.366232 1.851871 2.962902 0
M  V30 46 H 0.872460 0.480466 1.843519 0
M  V30 47 H -0.816140 2.119905 2.198762 0
M  V30 48 H -3.065836 2.807382 2.640303 0
M  V30 49 H -2.729550 5.752019 -0.333538 0
M  V30 50 H -0.005122 6.194281 -0.621654 0
M  V30 51 H -0.185980 4.905192 -2.004345 0
M  V30 52 H 3.329708 2.674381 -0.531463 0
M  V30 53 H 3.936844 2.264905 1.093802 0
M  V30 54 H 4.020045 0.401997 -0.821794 0
M  V30 55 H 2.233259 0.281815 -0.393730 0
M  V30 56 H -0.616220 -1.577476 -0.999913 0
M  V30 57 H -0.412381 -6.142799 -1.059374 0
M  V30 58 H -1.684123 -5.979810 0.256159 0
M  V30 59 H -1.982818 -5.732020 -2.785294 0
M  V30 60 H -2.491691 -7.187708 -1.813012 0
M  V30 61 H -5.333248 -6.213890 -2.739703 0
M  V30 62 H -3.855656 -5.830598 -3.690175 0
M  V30 63 H -4.888773 -4.531365 -3.056474 0
M  V30 64 H -4.471326 -3.558608 -1.412882 0
M  V30 65 H -3.618039 -4.114664 0.033826 0
M  V30 66 H -2.406505 -2.472941 -1.340667 0
M  V30 67 H -2.242274 -3.714711 -2.689901 0
M  V30 68 H 0.690544 -5.329366 0.472579 0
M  V30 END ATOM
M  V30 BEGIN BOND
M  V30 1 1 1 2
M  V30 2 2 2 3
M  V30 3 1 3 4
M  V30 4 1 4 5
M  V30 5 1 5 6
M  V30 6 1 6 7
M  V30 7 1 7 8
M  V30 8 1 8 9
M  V30 9 2 9 10
M  V30 10 1 9 11
M  V30 11 2 11 12
M  V30 12 1 12 13
M  V30 13 2 13 14
M  V30 14 1 14 15
M  V30 15 1 15 16
M  V30 16 1 16 17
M  V30 17 1 16 18
M  V30 18 1 16 19
M  V30 19 1 14 20
M  V30 20 2 20 21
M  V30 21 1 21 22
M  V30 22 1 8 23
M  V30 23 1 23 24
M  V30 24 2 4 25
M  V30 25 1 25 26
M  V30 26 2 26 27
M  V30 27 1 27 28
M  V30 28 1 28 29
M  V30 29 1 29 30
M  V30 30 1 30 31
M  V30 31 1 31 32
M  V30 32 1 32 33
M  V30 33 1 32 34
M  V30 34 1 34 35
M  V30 35 2 28 36
M  V30 36 1 36 37
M  V30 37 2 37 38
M  V30 38 1 38 2
M  V30 39 1 24 5
M  V30 40 1 37 25
M  V30 41 1 21 11
M  V30 42 1 35 29
M  V30 43 1 1 39
M  V30 44 1 1 40
M  V30 45 1 1 41
M  V30 46 1 5 42
M  V30 47 1 6 43
M  V30 48 1 6 44
M  V30 49 1 7 45
M  V30 50 1 7 46
M  V30 51 1 12 47
M  V30 52 1 13 48
M  V30 53 1 20 49
M  V30 54 1 22 50
M  V30 55 1 22 51
M  V30 56 1 23 52
M  V30 57 1 23 53
M  V30 58 1 24 54
M  V30 59 1 24 55
M  V30 60 1 27 56
M  V30 61 1 30 57
M  V30 62 1 30 58
M  V30 63 1 31 59
M  V30 64 1 31 60
M  V30 65 1 33 61
M  V30 66 1 33 62
M  V30 67 1 33 63
M  V30 68 1 34 64
M  V30 69 1 34 65
M  V30 70 1 35 66
M  V30 71 1 35 67
M  V30 72 1 36 68
M  V30 END BOND
M  V30 END CTAB
M  END
>  <Dataset>  (179) 
ChEMBL_Kinases

>  <Ligand_Instance>  (179) 
nan

>  <PDB_ID>  (179) 
nan

>  <Standardized_SMILES>  (179) 
Cc1nc(C2CCN(C(=O)c3ccc(OC(F)(F)F)cc3N)CC2)c2ncc(N3CCN(C)CC3)cc2n1

>  <Name>  (179) 
BAY-693

>  <Pocket>  (179) 
nan

>  <ATP_Site>  (179) 
nan

>  <Peripheral>  (179) 
nan

>  <Num_H_Atoms_ProtBoundConf>  (179) 
nan

>  <Num_Resolved_Atoms>  (179) 
nan

>  <Num_Not_Resolved_Atoms>  (179) 
nan

$$$$
CHEMBL4455516
     RDKit          3D

  0  0  0  0  0  0  0  0  0  0999 V3000
M  V30 BEGIN CTAB
M  V30 COUNTS 46 49 0 0 0
M  V30 BEGIN ATOM
M  V30 1 N 3.134145 -0.536890 4.002706 0
M  V30 2 C 3.399218 -0.098291 2.676599 0
M  V30 3 N 4.636006 0.217292 2.186422 0
M  V30 4 C 4.737435 0.624847 0.885364 0
M  V30 5 C 3.665155 0.740078 0.025418 0
M  V30 6 C 3.844328 1.184945 -1.356096 0
M  V30 7 C 4.963277 0.943664 -2.127784 0
M  V30 8 C 5.026579 1.409600 -3.425137 0
M  V30 9 C 3.986847 2.114456 -3.964742 0
M  V30 10 F 4.049422 2.575844 -5.250426 0
M  V30 11 C 2.852391 2.376201 -3.227158 0
M  V30 12 C 2.799390 1.902178 -1.921459 0
M  V30 13 C 2.418942 0.419031 0.529800 0
M  V30 14 C 2.295630 0.001280 1.855269 0
M  V30 15 N 0.937743 -0.277449 2.175669 0
M  V30 16 C 0.368170 -0.031477 3.298756 0
M  V30 17 C -1.033992 -0.365963 3.502253 0
M  V30 18 C -1.665709 -0.110276 4.701227 0
M  V30 19 C -2.995035 -0.466231 4.782622 0
M  V30 20 N -3.724502 -1.036278 3.804558 0
M  V30 21 C -3.094575 -1.286580 2.621969 0
M  V30 22 N -3.697508 -1.887006 1.454478 0
M  V30 23 C -3.691884 -3.296422 1.258531 0
M  V30 24 O -3.125315 -3.928491 2.181234 0
M  V30 25 C -4.314985 -3.908266 0.053730 0
M  V30 26 C -4.405555 -3.166832 -1.211349 0
M  V30 27 C -5.641815 -3.325802 -0.432913 0
M  V30 28 C -1.750066 -0.948449 2.479268 0
M  V30 29 H 3.459574 -0.052402 4.888183 0
M  V30 30 H 2.583260 -1.395296 4.221758 0
M  V30 31 H 5.754281 0.865784 0.546181 0
M  V30 32 H 5.741454 0.373646 -1.613474 0
M  V30 33 H 5.923513 1.196178 -3.990008 0
M  V30 34 H 2.053818 2.938725 -3.698490 0
M  V30 35 H 1.857352 2.159533 -1.416166 0
M  V30 36 H 1.607909 0.526088 -0.185976 0
M  V30 37 H 0.963990 0.428369 4.075642 0
M  V30 38 H -1.147969 0.345573 5.535306 0
M  V30 39 H -3.525114 -0.276295 5.719315 0
M  V30 40 H -4.154556 -1.264657 0.726914 0
M  V30 41 H -4.242270 -5.021052 0.025147 0
M  V30 42 H -3.933195 -2.167851 -1.369475 0
M  V30 43 H -4.346504 -3.785564 -2.148868 0
M  V30 44 H -6.410978 -4.073382 -0.771602 0
M  V30 45 H -6.047617 -2.547992 0.233660 0
M  V30 46 H -1.222387 -1.134588 1.551047 0
M  V30 END ATOM
M  V30 BEGIN BOND
M  V30 1 1 1 2
M  V30 2 2 2 3
M  V30 3 1 3 4
M  V30 4 2 4 5
M  V30 5 1 5 6
M  V30 6 2 6 7
M  V30 7 1 7 8
M  V30 8 2 8 9
M  V30 9 1 9 10
M  V30 10 1 9 11
M  V30 11 2 11 12
M  V30 12 1 5 13
M  V30 13 2 13 14
M  V30 14 1 14 15
M  V30 15 2 15 16
M  V30 16 1 16 17
M  V30 17 2 17 18
M  V30 18 1 18 19
M  V30 19 2 19 20
M  V30 20 1 20 21
M  V30 21 1 21 22
M  V30 22 1 22 23
M  V30 23 2 23 24
M  V30 24 1 23 25
M  V30 25 1 25 26
M  V30 26 1 26 27
M  V30 27 2 21 28
M  V30 28 1 14 2
M  V30 29 1 28 17
M  V30 30 1 12 6
M  V30 31 1 27 25
M  V30 32 1 1 29
M  V30 33 1 1 30
M  V30 34 1 4 31
M  V30 35 1 7 32
M  V30 36 1 8 33
M  V30 37 1 11 34
M  V30 38 1 12 35
M  V30 39 1 13 36
M  V30 40 1 16 37
M  V30 41 1 18 38
M  V30 42 1 19 39
M  V30 43 1 22 40
M  V30 44 1 25 41
M  V30 45 1 26 42
M  V30 46 1 26 43
M  V30 47 1 27 44
M  V30 48 1 27 45
M  V30 49 1 28 46
M  V30 END BOND
M  V30 END CTAB
M  END
>  <Dataset>  (180) 
ChEMBL_Kinases

>  <Ligand_Instance>  (180) 
nan

>  <PDB_ID>  (180) 
nan

>  <Standardized_SMILES>  (180) 
Nc1ncc(-c2ccc(F)cc2)cc1/N=C/c1ccnc(NC(=O)C2CC2)c1

>  <Name>  (180) 
nan

>  <Pocket>  (180) 
nan

>  <ATP_Site>  (180) 
nan

>  <Peripheral>  (180) 
nan

>  <Num_H_Atoms_ProtBoundConf>  (180) 
nan

>  <Num_Resolved_Atoms>  (180) 
nan

>  <Num_Not_Resolved_Atoms>  (180) 
nan

$$$$
CHEMBL4746089
     RDKit          3D

  0  0  0  0  0  0  0  0  0  0999 V3000
M  V30 BEGIN CTAB
M  V30 COUNTS 65 69 0 0 0
M  V30 BEGIN ATOM
M  V30 1 C 4.872195 -1.258753 4.025790 0
M  V30 2 N 4.340145 -0.716908 2.793334 0
M  V30 3 C 5.086313 -1.050881 1.636473 0
M  V30 4 C 5.339322 0.170600 0.755935 0
M  V30 5 N 4.076055 0.775778 0.555066 0
M  V30 6 C 3.790553 1.380039 -0.690388 0
M  V30 7 C 2.345360 1.814627 -0.668740 0
M  V30 8 C 1.816420 3.041436 -0.346764 0
M  V30 9 C 0.457757 3.255965 -0.327577 0
M  V30 10 C -0.446891 2.259702 -0.628019 0
M  V30 11 C -1.902295 2.392930 -0.634664 0
M  V30 12 C -2.643170 3.500833 -0.965475 0
M  V30 13 N -4.006637 3.469790 -0.901944 0
M  V30 14 C -4.671350 2.368699 -0.517211 0
M  V30 15 N -5.998634 2.069067 -0.358630 0
M  V30 16 C -6.107025 0.799493 0.064161 0
M  V30 17 C -4.898364 0.177349 0.214483 0
M  V30 18 C -4.517694 -1.151654 0.639782 0
M  V30 19 C -5.016247 -1.789315 1.755829 0
M  V30 20 C -4.663349 -3.063754 2.210646 0
M  V30 21 C -3.706360 -3.638728 1.366286 0
M  V30 22 C -3.178833 -3.078992 0.269026 0
M  V30 23 C -2.240403 -3.918646 -0.388471 0
M  V30 24 O -1.194528 -3.181010 -0.163705 0
M  V30 25 N -1.783388 -5.024806 -1.109471 0
M  V30 26 C -2.833265 -5.988289 -1.470245 0
M  V30 27 C -0.432500 -5.310696 -1.513952 0
M  V30 28 C -3.562814 -1.806971 -0.144463 0
M  V30 29 C -4.009677 1.183391 -0.156924 0
M  V30 30 C -2.621778 1.282600 -0.244275 0
M  V30 31 C 0.093894 1.035165 -0.950635 0
M  V30 32 C 1.467957 0.761282 -0.985519 0
M  V30 33 C 3.466148 1.316311 1.727659 0
M  V30 34 C 3.942445 0.623766 2.986009 0
M  V30 35 H 4.812211 -0.515681 4.857595 0
M  V30 36 H 5.965159 -1.513005 3.910771 0
M  V30 37 H 4.316752 -2.161201 4.373724 0
M  V30 38 H 4.526703 -1.834187 1.076794 0
M  V30 39 H 6.051279 -1.523729 1.917127 0
M  V30 40 H 5.689734 -0.250530 -0.219027 0
M  V30 41 H 6.071096 0.799466 1.272688 0
M  V30 42 H 4.399421 2.300152 -0.878755 0
M  V30 43 H 3.896367 0.649672 -1.501553 0
M  V30 44 H 2.555966 3.778205 -0.123196 0
M  V30 45 H 0.073054 4.223863 -0.071521 0
M  V30 46 H -2.077019 4.366940 -1.268298 0
M  V30 47 H -6.768449 2.762114 -0.552667 0
M  V30 48 H -7.028153 0.258764 0.285968 0
M  V30 49 H -5.744253 -1.171470 2.266429 0
M  V30 50 H -5.103802 -3.472717 3.087580 0
M  V30 51 H -3.467551 -4.635091 1.775283 0
M  V30 52 H -2.383657 -6.892845 -1.873175 0
M  V30 53 H -3.479627 -6.246119 -0.604655 0
M  V30 54 H -3.423626 -5.499318 -2.287221 0
M  V30 55 H 0.250129 -4.678525 -0.890688 0
M  V30 56 H -0.275447 -5.051917 -2.571828 0
M  V30 57 H -0.187190 -6.387629 -1.379930 0
M  V30 58 H -3.079013 -1.471806 -1.035032 0
M  V30 59 H -2.091012 0.380864 0.038203 0
M  V30 60 H -0.529160 0.165866 -1.213499 0
M  V30 61 H 1.820665 -0.244584 -1.252973 0
M  V30 62 H 2.363494 1.289448 1.616903 0
M  V30 63 H 3.753821 2.380359 1.821558 0
M  V30 64 H 4.695031 1.254612 3.504011 0
M  V30 65 H 3.056650 0.632800 3.690771 0
M  V30 END ATOM
M  V30 BEGIN BOND
M  V30 1 1 1 2
M  V30 2 1 2 3
M  V30 3 1 3 4
M  V30 4 1 4 5
M  V30 5 1 5 6
M  V30 6 1 6 7
M  V30 7 2 7 8
M  V30 8 1 8 9
M  V30 9 2 9 10
M  V30 10 1 10 11
M  V30 11 2 11 12
M  V30 12 1 12 13
M  V30 13 2 13 14
M  V30 14 1 14 15
M  V30 15 1 15 16
M  V30 16 2 16 17
M  V30 17 1 17 18
M  V30 18 2 18 19
M  V30 19 1 19 20
M  V30 20 2 20 21
M  V30 21 1 21 22
M  V30 22 1 22 23
M  V30 23 2 23 24
M  V30 24 1 23 25
M  V30 25 1 25 26
M  V30 26 1 25 27
M  V30 27 2 22 28
M  V30 28 1 17 29
M  V30 29 2 29 30
M  V30 30 1 10 31
M  V30 31 2 31 32
M  V30 32 1 5 33
M  V30 33 1 33 34
M  V30 34 1 34 2
M  V30 35 1 32 7
M  V30 36 1 30 11
M  V30 37 1 29 14
M  V30 38 1 28 18
M  V30 39 1 1 35
M  V30 40 1 1 36
M  V30 41 1 1 37
M  V30 42 1 3 38
M  V30 43 1 3 39
M  V30 44 1 4 40
M  V30 45 1 4 41
M  V30 46 1 6 42
M  V30 47 1 6 43
M  V30 48 1 8 44
M  V30 49 1 9 45
M  V30 50 1 12 46
M  V30 51 1 15 47
M  V30 52 1 16 48
M  V30 53 1 19 49
M  V30 54 1 20 50
M  V30 55 1 21 51
M  V30 56 1 26 52
M  V30 57 1 26 53
M  V30 58 1 26 54
M  V30 59 1 27 55
M  V30 60 1 27 56
M  V30 61 1 27 57
M  V30 62 1 28 58
M  V30 63 1 30 59
M  V30 64 1 31 60
M  V30 65 1 32 61
M  V30 66 1 33 62
M  V30 67 1 33 63
M  V30 68 1 34 64
M  V30 69 1 34 65
M  V30 END BOND
M  V30 END CTAB
M  END
>  <Dataset>  (181) 
ChEMBL_Kinases

>  <Ligand_Instance>  (181) 
nan

>  <PDB_ID>  (181) 
nan

>  <Standardized_SMILES>  (181) 
CN1CCN(Cc2ccc(-c3cnc4[nH]cc(-c5cccc(C(=O)N(C)C)c5)c4c3)cc2)CC1

>  <Name>  (181) 
nan

>  <Pocket>  (181) 
nan

>  <ATP_Site>  (181) 
nan

>  <Peripheral>  (181) 
nan

>  <Num_H_Atoms_ProtBoundConf>  (181) 
nan

>  <Num_Resolved_Atoms>  (181) 
nan

>  <Num_Not_Resolved_Atoms>  (181) 
nan

$$$$
CHEMBL4455498
     RDKit          3D

  0  0  0  0  0  0  0  0  0  0999 V3000
M  V30 BEGIN CTAB
M  V30 COUNTS 55 58 0 0 0
M  V30 BEGIN ATOM
M  V30 1 C -0.352500 -2.349761 4.104551 0
M  V30 2 C 0.825492 -1.620835 3.614813 0
M  V30 3 C 1.896022 -1.595147 4.517288 0
M  V30 4 C 3.104036 -0.976201 4.287266 0
M  V30 5 C 3.244268 -0.347848 3.082730 0
M  V30 6 C 4.464434 0.278885 2.855611 0
M  V30 7 O 5.374939 0.254614 3.721295 0
M  V30 8 N 4.620170 0.904509 1.678494 0
M  V30 9 C 3.649005 0.931529 0.752263 0
M  V30 10 C 3.881250 1.593385 -0.431941 0
M  V30 11 C 5.186634 2.244788 -0.633527 0
M  V30 12 C 2.857100 1.596211 -1.354641 0
M  V30 13 C 1.627875 0.960283 -1.117895 0
M  V30 14 O 0.798205 1.143035 -2.245169 0
M  V30 15 C 1.438036 0.298828 0.103249 0
M  V30 16 C 0.108718 -0.220009 -0.009850 0
M  V30 17 C -0.048500 -1.505555 -0.581455 0
M  V30 18 C -1.348845 -1.916029 -0.737239 0
M  V30 19 C -2.484775 -1.230017 -0.406515 0
M  V30 20 C -3.897435 -1.637621 -0.569515 0 CFG=1
M  V30 21 C -4.795381 -0.401151 -0.349881 0
M  V30 22 N -4.213276 -2.144205 -1.897917 0
M  V30 23 C -5.673954 -2.254834 -2.033445 0
M  V30 24 C -3.752447 -3.530403 -2.080769 0
M  V30 25 C -2.237811 0.030792 0.152063 0
M  V30 26 C -0.994237 0.578648 0.370660 0
M  V30 27 C 2.452766 0.311046 0.987146 0
M  V30 28 C 2.262793 -0.325347 2.157357 0
M  V30 29 C 1.106275 -0.951366 2.448936 0
M  V30 30 H -0.146471 -3.437047 4.005853 0
M  V30 31 H -1.276742 -2.101882 3.563643 0
M  V30 32 H -0.532229 -2.061605 5.169341 0
M  V30 33 H 1.831888 -2.086874 5.500288 0
M  V30 34 H 3.900879 -0.979408 5.006415 0
M  V30 35 H 5.542533 1.377731 1.508349 0
M  V30 36 H 5.464541 2.947919 0.185639 0
M  V30 37 H 6.014727 1.501883 -0.741818 0
M  V30 38 H 5.106575 2.852622 -1.570212 0
M  V30 39 H 3.129757 2.141161 -2.256207 0
M  V30 40 H 0.501150 2.108716 -2.394394 0
M  V30 41 H 0.789786 -2.104612 -0.867322 0
M  V30 42 H -1.452125 -2.895108 -1.165907 0
M  V30 43 H -4.210368 -2.391116 0.164196 0
M  V30 44 H -4.458204 0.465125 -0.928276 0
M  V30 45 H -5.826871 -0.674352 -0.573090 0
M  V30 46 H -4.775468 -0.210498 0.761007 0
M  V30 47 H -5.855660 -3.043062 -2.792932 0
M  V30 48 H -6.121293 -1.330618 -2.454110 0
M  V30 49 H -6.156788 -2.611343 -1.102636 0
M  V30 50 H -2.945159 -3.538797 -2.832201 0
M  V30 51 H -3.494212 -4.031917 -1.153740 0
M  V30 52 H -4.588565 -4.165952 -2.519200 0
M  V30 53 H -3.017489 0.736960 0.483421 0
M  V30 54 H -0.793848 1.547342 0.799557 0
M  V30 55 H 0.215881 -1.076430 1.927621 0
M  V30 END ATOM
M  V30 BEGIN BOND
M  V30 1 1 1 2
M  V30 2 2 2 3
M  V30 3 1 3 4
M  V30 4 2 4 5
M  V30 5 1 5 6
M  V30 6 2 6 7
M  V30 7 1 6 8
M  V30 8 1 8 9
M  V30 9 2 9 10
M  V30 10 1 10 11
M  V30 11 1 10 12
M  V30 12 2 12 13
M  V30 13 1 13 14
M  V30 14 1 13 15
M  V30 15 1 15 16
M  V30 16 2 16 17
M  V30 17 1 17 18
M  V30 18 2 18 19
M  V30 19 1 19 20
M  V30 20 1 20 21
M  V30 21 1 20 22
M  V30 22 1 22 23
M  V30 23 1 22 24
M  V30 24 1 19 25
M  V30 25 2 25 26
M  V30 26 2 15 27
M  V30 27 1 27 28
M  V30 28 2 28 29
M  V30 29 1 29 2
M  V30 30 1 28 5
M  V30 31 1 27 9
M  V30 32 1 26 16
M  V30 33 1 1 30
M  V30 34 1 1 31
M  V30 35 1 1 32
M  V30 36 1 3 33
M  V30 37 1 4 34
M  V30 38 1 8 35
M  V30 39 1 11 36
M  V30 40 1 11 37
M  V30 41 1 11 38
M  V30 42 1 12 39
M  V30 43 1 14 40
M  V30 44 1 17 41
M  V30 45 1 18 42
M  V30 46 1 20 43 CFG=1
M  V30 47 1 21 44
M  V30 48 1 21 45
M  V30 49 1 21 46
M  V30 50 1 23 47
M  V30 51 1 23 48
M  V30 52 1 23 49
M  V30 53 1 24 50
M  V30 54 1 24 51
M  V30 55 1 24 52
M  V30 56 1 25 53
M  V30 57 1 26 54
M  V30 58 1 29 55
M  V30 END BOND
M  V30 END CTAB
M  END
>  <Dataset>  (182) 
ChEMBL_Kinases

>  <Ligand_Instance>  (182) 
nan

>  <PDB_ID>  (182) 
nan

>  <Standardized_SMILES>  (182) 
Cc1ccc2c(=O)[nH]c3c(C)cc(O)c(-c4ccc([C@@H](C)N(C)C)cc4)c3c2c1

>  <Name>  (182) 
nan

>  <Pocket>  (182) 
nan

>  <ATP_Site>  (182) 
nan

>  <Peripheral>  (182) 
nan

>  <Num_H_Atoms_ProtBoundConf>  (182) 
nan

>  <Num_Resolved_Atoms>  (182) 
nan

>  <Num_Not_Resolved_Atoms>  (182) 
nan

$$$$
CHEMBL4455462
     RDKit          3D

  0  0  0  0  0  0  0  0  0  0999 V3000
M  V30 BEGIN CTAB
M  V30 COUNTS 44 47 0 0 0
M  V30 BEGIN ATOM
M  V30 1 C -0.044064 -1.359110 6.056054 0
M  V30 2 C -0.321383 -0.389579 4.960182 0
M  V30 3 C -1.601672 0.164418 4.933703 0
M  V30 4 C -1.806258 1.064752 3.890042 0
M  V30 5 C -0.789031 1.355977 2.974136 0
M  V30 6 C 0.444624 0.750372 3.090754 0
M  V30 7 C 1.375495 1.183681 2.037439 0
M  V30 8 N 2.117855 2.303038 2.166475 0
M  V30 9 C 2.840504 2.391178 1.036667 0
M  V30 10 N 2.565366 1.359776 0.216155 0
M  V30 11 C 3.180562 1.193548 -1.073832 0
M  V30 12 C 2.384801 1.938874 -2.099953 0
M  V30 13 F 2.892147 1.842362 -3.383631 0
M  V30 14 F 2.500049 3.302173 -1.770584 0
M  V30 15 C 1.639836 0.570882 0.816307 0
M  V30 16 C 1.038997 -0.660573 0.343913 0
M  V30 17 C 1.429281 -1.745921 1.138286 0
M  V30 18 C 0.942934 -3.022672 0.833161 0
M  V30 19 C 0.077848 -3.204580 -0.252567 0
M  V30 20 N -0.549504 -4.270458 -0.798353 0
M  V30 21 C -1.277441 -3.873666 -1.855508 0
M  V30 22 C -1.105370 -2.513971 -1.983520 0
M  V30 23 C -1.661284 -1.581977 -2.951395 0
M  V30 24 N -2.520150 -2.134454 -3.925826 0
M  V30 25 O -1.537329 -0.362517 -3.108811 0
M  V30 26 N -0.276189 -2.139238 -0.993728 0
M  V30 27 C 0.188195 -0.913233 -0.705167 0
M  V30 28 N 0.679276 -0.122480 4.083626 0
M  V30 29 H 0.308223 -0.806405 6.939866 0
M  V30 30 H -0.959846 -1.942189 6.237376 0
M  V30 31 H 0.717096 -2.085322 5.685919 0
M  V30 32 H -2.322860 -0.110829 5.669705 0
M  V30 33 H -2.787559 1.514436 3.839056 0
M  V30 34 H -1.082198 2.074648 2.213640 0
M  V30 35 H 3.545252 3.192618 0.833446 0
M  V30 36 H 4.201105 1.649900 -1.057674 0
M  V30 37 H 3.350786 0.132221 -1.339054 0
M  V30 38 H 1.302280 1.716165 -2.053099 0
M  V30 39 H 2.085237 -1.736766 1.997118 0
M  V30 40 H 1.194087 -3.918467 1.394288 0
M  V30 41 H -1.894933 -4.474634 -2.508741 0
M  V30 42 H -3.095172 -2.540841 -4.659478 0
M  V30 43 H -1.904029 -2.415879 -4.730410 0
M  V30 44 H -0.067678 -0.046078 -1.258395 0
M  V30 END ATOM
M  V30 BEGIN BOND
M  V30 1 1 1 2
M  V30 2 2 2 3
M  V30 3 1 3 4
M  V30 4 2 4 5
M  V30 5 1 5 6
M  V30 6 1 6 7
M  V30 7 1 7 8
M  V30 8 2 8 9
M  V30 9 1 9 10
M  V30 10 1 10 11
M  V30 11 1 11 12
M  V30 12 1 12 13
M  V30 13 1 12 14
M  V30 14 1 10 15
M  V30 15 1 15 16
M  V30 16 1 16 17
M  V30 17 2 17 18
M  V30 18 1 18 19
M  V30 19 2 19 20
M  V30 20 1 20 21
M  V30 21 2 21 22
M  V30 22 1 22 23
M  V30 23 1 23 24
M  V30 24 2 23 25
M  V30 25 1 22 26
M  V30 26 1 26 27
M  V30 27 2 6 28
M  V30 28 1 28 2
M  V30 29 2 15 7
M  V30 30 2 27 16
M  V30 31 1 26 19
M  V30 32 1 1 29
M  V30 33 1 1 30
M  V30 34 1 1 31
M  V30 35 1 3 32
M  V30 36 1 4 33
M  V30 37 1 5 34
M  V30 38 1 9 35
M  V30 39 1 11 36
M  V30 40 1 11 37
M  V30 41 1 12 38
M  V30 42 1 17 39
M  V30 43 1 18 40
M  V30 44 1 21 41
M  V30 45 1 24 42
M  V30 46 1 24 43
M  V30 47 1 27 44
M  V30 END BOND
M  V30 END CTAB
M  END
>  <Dataset>  (183) 
ChEMBL_Kinases

>  <Ligand_Instance>  (183) 
nan

>  <PDB_ID>  (183) 
nan

>  <Standardized_SMILES>  (183) 
Cc1cccc(-c2ncn(CC(F)F)c2-c2ccc3ncc(C(N)=O)n3c2)n1

>  <Name>  (183) 
nan

>  <Pocket>  (183) 
nan

>  <ATP_Site>  (183) 
nan

>  <Peripheral>  (183) 
nan

>  <Num_H_Atoms_ProtBoundConf>  (183) 
nan

>  <Num_Resolved_Atoms>  (183) 
nan

>  <Num_Not_Resolved_Atoms>  (183) 
nan

$$$$
CHEMBL4455460
     RDKit          3D

  0  0  0  0  0  0  0  0  0  0999 V3000
M  V30 BEGIN CTAB
M  V30 COUNTS 56 59 0 0 0
M  V30 BEGIN ATOM
M  V30 1 C 3.237569 -3.240552 0.355435 0
M  V30 2 N 1.906097 -3.362250 0.910973 0
M  V30 3 C 1.331902 -2.349673 1.714696 0
M  V30 4 N 2.097388 -1.264357 1.924776 0
M  V30 5 C 1.725327 -0.204918 2.654851 0
M  V30 6 N 2.650232 0.893336 2.785544 0
M  V30 7 C 2.659953 2.074521 1.972168 0
M  V30 8 C 3.604490 3.049728 2.086797 0
M  V30 9 N 3.498651 4.114167 1.270222 0
M  V30 10 C 2.482616 4.210405 0.361521 0
M  V30 11 C 2.509106 5.409353 -0.438618 0
M  V30 12 N 2.520722 6.380149 -1.066094 0
M  V30 13 C 1.496306 3.221438 0.221303 0
M  V30 14 O 0.570864 3.527645 -0.753583 0
M  V30 15 C -0.507968 2.698092 -1.055873 0
M  V30 16 C -0.352843 2.262881 -2.494288 0
M  V30 17 C -1.582876 1.471806 -2.865628 0
M  V30 18 C -2.772352 2.386139 -2.771945 0
M  V30 19 N -2.944946 2.883280 -1.441366 0
M  V30 20 C -1.788875 3.480679 -0.847242 0
M  V30 21 C 1.629107 2.142828 1.070168 0
M  V30 22 N 0.501267 -0.220804 3.219955 0
M  V30 23 C -0.319589 -1.269996 3.054473 0
M  V30 24 C 0.090583 -2.342499 2.300360 0
M  V30 25 C -0.789909 -3.474471 2.126554 0
M  V30 26 C -2.024212 -3.593491 2.617259 0
M  V30 27 C -2.796606 -4.685083 2.413240 0
M  V30 28 C -2.209602 -5.686417 1.648536 0
M  V30 29 C -2.743991 -7.021254 1.222542 0
M  V30 30 O -3.900409 -7.487980 1.499984 0
M  V30 31 O -1.859449 -7.772183 0.462561 0
M  V30 32 C -2.222730 -9.074757 -0.020359 0
M  V30 33 S -0.588100 -5.005854 1.267258 0
M  V30 34 H 3.592037 -2.197937 0.605936 0
M  V30 35 H 3.889762 -3.997577 0.831807 0
M  V30 36 H 3.267665 -3.285944 -0.739525 0
M  V30 37 H 1.637147 -4.278334 0.548797 0
M  V30 38 H 3.377676 0.811417 3.545445 0
M  V30 39 H 4.396348 2.935701 2.822327 0
M  V30 40 H -0.544186 1.791111 -0.443872 0
M  V30 41 H 0.507005 1.538059 -2.486066 0
M  V30 42 H -0.186403 3.148066 -3.108367 0
M  V30 43 H -1.530927 0.972263 -3.840428 0
M  V30 44 H -1.709103 0.684597 -2.079836 0
M  V30 45 H -2.681164 3.192814 -3.534151 0
M  V30 46 H -3.687794 1.819953 -3.035707 0
M  V30 47 H -3.691556 3.621621 -1.479223 0
M  V30 48 H -1.960720 3.509624 0.257573 0
M  V30 49 H -1.650509 4.555991 -1.138841 0
M  V30 50 H 0.868905 1.413456 0.938654 0
M  V30 51 H -1.286726 -1.227853 3.529060 0
M  V30 52 H -2.515068 -2.811444 3.230089 0
M  V30 53 H -3.799022 -4.928938 2.737368 0
M  V30 54 H -1.456401 -9.769899 0.379994 0
M  V30 55 H -3.234734 -9.346361 0.299842 0
M  V30 56 H -2.086453 -9.106158 -1.124208 0
M  V30 END ATOM
M  V30 BEGIN BOND
M  V30 1 1 1 2
M  V30 2 1 2 3
M  V30 3 2 3 4
M  V30 4 1 4 5
M  V30 5 1 5 6
M  V30 6 1 6 7
M  V30 7 2 7 8
M  V30 8 1 8 9
M  V30 9 2 9 10
M  V30 10 1 10 11
M  V30 11 3 11 12
M  V30 12 1 10 13
M  V30 13 1 13 14
M  V30 14 1 14 15
M  V30 15 1 15 16
M  V30 16 1 16 17
M  V30 17 1 17 18
M  V30 18 1 18 19
M  V30 19 1 19 20
M  V30 20 2 13 21
M  V30 21 2 5 22
M  V30 22 1 22 23
M  V30 23 2 23 24
M  V30 24 1 24 25
M  V30 25 2 25 26
M  V30 26 1 26 27
M  V30 27 2 27 28
M  V30 28 1 28 29
M  V30 29 2 29 30
M  V30 30 1 29 31
M  V30 31 1 31 32
M  V30 32 1 28 33
M  V30 33 1 24 3
M  V30 34 1 33 25
M  V30 35 1 21 7
M  V30 36 1 20 15
M  V30 37 1 1 34
M  V30 38 1 1 35
M  V30 39 1 1 36
M  V30 40 1 2 37
M  V30 41 1 6 38
M  V30 42 1 8 39
M  V30 43 1 15 40
M  V30 44 1 16 41
M  V30 45 1 16 42
M  V30 46 1 17 43
M  V30 47 1 17 44
M  V30 48 1 18 45
M  V30 49 1 18 46
M  V30 50 1 19 47
M  V30 51 1 20 48
M  V30 52 1 20 49
M  V30 53 1 21 50
M  V30 54 1 23 51
M  V30 55 1 26 52
M  V30 56 1 27 53
M  V30 57 1 32 54
M  V30 58 1 32 55
M  V30 59 1 32 56
M  V30 END BOND
M  V30 END CTAB
M  END
>  <Dataset>  (184) 
ChEMBL_Kinases

>  <Ligand_Instance>  (184) 
nan

>  <PDB_ID>  (184) 
nan

>  <Standardized_SMILES>  (184) 
CNc1nc(Nc2cnc(C#N)c(OC3CCCNC3)c2)ncc1-c1ccc(C(=O)OC)s1

>  <Name>  (184) 
nan

>  <Pocket>  (184) 
nan

>  <ATP_Site>  (184) 
nan

>  <Peripheral>  (184) 
nan

>  <Num_H_Atoms_ProtBoundConf>  (184) 
nan

>  <Num_Resolved_Atoms>  (184) 
nan

>  <Num_Not_Resolved_Atoms>  (184) 
nan

$$$$
CHEMBL4455458
     RDKit          3D

  0  0  0  0  0  0  0  0  0  0999 V3000
M  V30 BEGIN CTAB
M  V30 COUNTS 62 66 0 0 0
M  V30 BEGIN ATOM
M  V30 1 C -0.735904 -2.125977 8.351438 0
M  V30 2 O -0.913801 -0.948988 7.593553 0
M  V30 3 C -0.249521 -0.696120 6.420478 0
M  V30 4 C 0.659149 -1.530542 5.832822 0
M  V30 5 C 1.250631 -1.126329 4.634017 0
M  V30 6 C 0.914984 0.090508 4.068125 0
M  V30 7 C 1.542504 0.501670 2.811388 0
M  V30 8 N 0.682576 0.659758 1.765235 0
M  V30 9 N 1.417412 1.031558 0.712335 0
M  V30 10 C 0.966890 1.319908 -0.624655 0
M  V30 11 C 1.391236 2.401868 -1.370874 0
M  V30 12 C 0.867692 2.546620 -2.643291 0
M  V30 13 C -0.045886 1.634171 -3.136737 0
M  V30 14 C -0.459560 0.557469 -2.376766 0
M  V30 15 N -1.406729 -0.322255 -2.986717 0
M  V30 16 C -1.294404 -1.476325 -3.776908 0
M  V30 17 O -0.114787 -1.846051 -4.021701 0
M  V30 18 C -2.522240 -2.122314 -4.228706 0
M  V30 19 C -3.827710 -1.745017 -3.978606 0
M  V30 20 C -4.859557 -2.497335 -4.502591 0
M  V30 21 C -6.227724 -2.008133 -4.176477 0
M  V30 22 F -6.242611 -0.625588 -4.057840 0
M  V30 23 F -6.709853 -2.531407 -2.996771 0
M  V30 24 F -7.074831 -2.417904 -5.189303 0
M  V30 25 C -4.639712 -3.621069 -5.273079 0
M  V30 26 C -3.314878 -3.994723 -5.520559 0
M  V30 27 C -3.161422 -5.216777 -6.359427 0
M  V30 28 F -4.035349 -5.263473 -7.419286 0
M  V30 29 F -3.238177 -6.312652 -5.524171 0
M  V30 30 F -1.882895 -5.246912 -6.902348 0
M  V30 31 C -2.292708 -3.261825 -5.009927 0
M  V30 32 C 0.048404 0.387831 -1.099023 0
M  V30 33 C 2.698963 1.114250 1.048648 0
M  V30 34 C 2.822135 0.783780 2.380945 0
M  V30 35 C 3.920859 0.683756 3.326658 0
M  V30 36 C 5.000488 -0.174258 3.216055 0
M  V30 37 C 5.946046 -0.116376 4.226284 0
M  V30 38 N 5.877750 0.695695 5.270037 0
M  V30 39 C 4.817143 1.533907 5.372252 0
M  V30 40 C 3.808048 1.553796 4.405726 0
M  V30 41 C -0.010419 0.950896 4.657622 0
M  V30 42 C -0.592609 0.529614 5.857830 0
M  V30 43 Cl -1.749515 1.636405 6.568346 0
M  V30 44 H -1.585603 -2.303393 9.046605 0
M  V30 45 H -0.715882 -3.037798 7.693420 0
M  V30 46 H 0.191932 -2.079964 8.925473 0
M  V30 47 H 0.879510 -2.471628 6.326354 0
M  V30 48 H 1.973993 -1.802878 4.176726 0
M  V30 49 H 2.109703 3.063742 -0.900076 0
M  V30 50 H 1.217445 3.406415 -3.211755 0
M  V30 51 H -0.401497 1.834640 -4.152142 0
M  V30 52 H -2.287903 0.142891 -2.674583 0
M  V30 53 H -3.922330 -0.858109 -3.370385 0
M  V30 54 H -5.551993 -4.107110 -5.613339 0
M  V30 55 H -1.318594 -3.663173 -5.278798 0
M  V30 56 H -0.313559 -0.460828 -0.572360 0
M  V30 57 H 3.579280 1.378842 0.481592 0
M  V30 58 H 5.026105 -0.823878 2.352516 0
M  V30 59 H 6.788531 -0.786162 4.139905 0
M  V30 60 H 4.740652 2.210773 6.222805 0
M  V30 61 H 2.998635 2.258025 4.571915 0
M  V30 62 H -0.239717 1.892242 4.175801 0
M  V30 END ATOM
M  V30 BEGIN BOND
M  V30 1 1 1 2
M  V30 2 1 2 3
M  V30 3 2 3 4
M  V30 4 1 4 5
M  V30 5 2 5 6
M  V30 6 1 6 7
M  V30 7 2 7 8
M  V30 8 1 8 9
M  V30 9 1 9 10
M  V30 10 2 10 11
M  V30 11 1 11 12
M  V30 12 2 12 13
M  V30 13 1 13 14
M  V30 14 1 14 15
M  V30 15 1 15 16
M  V30 16 2 16 17
M  V30 17 1 16 18
M  V30 18 2 18 19
M  V30 19 1 19 20
M  V30 20 1 20 21
M  V30 21 1 21 22
M  V30 22 1 21 23
M  V30 23 1 21 24
M  V30 24 2 20 25
M  V30 25 1 25 26
M  V30 26 1 26 27
M  V30 27 1 27 28
M  V30 28 1 27 29
M  V30 29 1 27 30
M  V30 30 2 26 31
M  V30 31 2 14 32
M  V30 32 1 9 33
M  V30 33 2 33 34
M  V30 34 1 34 35
M  V30 35 2 35 36
M  V30 36 1 36 37
M  V30 37 2 37 38
M  V30 38 1 38 39
M  V30 39 2 39 40
M  V30 40 1 6 41
M  V30 41 2 41 42
M  V30 42 1 42 43
M  V30 43 1 42 3
M  V30 44 1 34 7
M  V30 45 1 40 35
M  V30 46 1 32 10
M  V30 47 1 31 18
M  V30 48 1 1 44
M  V30 49 1 1 45
M  V30 50 1 1 46
M  V30 51 1 4 47
M  V30 52 1 5 48
M  V30 53 1 11 49
M  V30 54 1 12 50
M  V30 55 1 13 51
M  V30 56 1 15 52
M  V30 57 1 19 53
M  V30 58 1 25 54
M  V30 59 1 31 55
M  V30 60 1 32 56
M  V30 61 1 33 57
M  V30 62 1 36 58
M  V30 63 1 37 59
M  V30 64 1 39 60
M  V30 65 1 40 61
M  V30 66 1 41 62
M  V30 END BOND
M  V30 END CTAB
M  END
>  <Dataset>  (185) 
ChEMBL_Kinases

>  <Ligand_Instance>  (185) 
nan

>  <PDB_ID>  (185) 
nan

>  <Standardized_SMILES>  (185) 
COc1ccc(-c2nn(-c3cccc(NC(=O)c4cc(C(F)(F)F)cc(C(F)(F)F)c4)c3)cc2-c2ccncc2)cc1Cl

>  <Name>  (185) 
nan

>  <Pocket>  (185) 
nan

>  <ATP_Site>  (185) 
nan

>  <Peripheral>  (185) 
nan

>  <Num_H_Atoms_ProtBoundConf>  (185) 
nan

>  <Num_Resolved_Atoms>  (185) 
nan

>  <Num_Not_Resolved_Atoms>  (185) 
nan

$$$$
CHEMBL4459106
     RDKit          3D

  0  0  0  0  0  0  0  0  0  0999 V3000
M  V30 BEGIN CTAB
M  V30 COUNTS 115 116 0 0 0
M  V30 BEGIN ATOM
M  V30 1 C 5.873850 -6.872109 3.304498 0
M  V30 2 C 5.891222 -5.451542 2.760763 0
M  V30 3 C 6.293510 -5.458392 1.305975 0
M  V30 4 C 6.320308 -4.068916 0.726959 0
M  V30 5 C 7.277195 -3.133873 1.394122 0
M  V30 6 C 7.250830 -1.796380 0.721978 0
M  V30 7 C 5.882261 -1.148631 0.786896 0
M  V30 8 C 5.902206 0.176207 0.080720 0
M  V30 9 C 4.557261 0.891204 0.125878 0
M  V30 10 C 3.441925 0.109414 -0.473528 0
M  V30 11 C 2.105581 0.718686 -0.530628 0
M  V30 12 C 1.786127 1.870307 -1.372179 0
M  V30 13 C 2.484547 3.163812 -1.248603 0
M  V30 14 C 1.917282 4.216119 -2.225007 0
M  V30 15 C 0.462983 4.507867 -1.982597 0
M  V30 16 C -0.088244 5.524029 -2.974019 0
M  V30 17 C -1.568811 5.819108 -2.679591 0
M  V30 18 C -2.284477 4.510329 -2.710818 0
M  V30 19 O -3.672627 4.590252 -2.512300 0
M  V30 20 C -4.188263 3.280612 -2.453032 0
M  V30 21 C -5.672050 3.292378 -2.275762 0 CFG=2
M  V30 22 C -6.227883 1.890504 -2.123221 0
M  V30 23 O -5.686758 1.272102 -0.997480 0
M  V30 24 P -5.745876 -0.390398 -0.990612 0
M  V30 25 O -6.840112 -0.827729 -0.008349 0
M  V30 26 O -6.131342 -0.997464 -2.498169 0
M  V30 27 O -4.317225 -1.093896 -0.459863 0
M  V30 28 C -4.040842 -2.342521 -0.944875 0 CFG=1
M  V30 29 C -2.721351 -2.205633 -1.717054 0 CFG=2
M  V30 30 O -2.752420 -0.970341 -2.329233 0
M  V30 31 C -2.646930 -3.359752 -2.645824 0 CFG=1
M  V30 32 O -1.335792 -3.408940 -3.138690 0
M  V30 33 C -3.007301 -4.622418 -1.941348 0 CFG=2
M  V30 34 O -4.162666 -5.221907 -2.503255 0
M  V30 35 C -3.083549 -4.556609 -0.459738 0
M  V30 36 C -3.720050 -3.348524 0.138831 0 CFG=1
M  V30 37 O -2.825428 -2.824256 1.067588 0
M  V30 38 C -3.251995 -2.805576 2.365070 0
M  V30 39 C -2.093957 -2.181308 3.165532 0
M  V30 40 C -1.843644 -0.771261 2.623241 0
M  V30 41 C -1.428679 0.193174 3.702521 0
M  V30 42 C -2.516804 0.440681 4.707125 0
M  V30 43 C -3.301824 -0.833453 4.889976 0
M  V30 44 C -2.507195 -2.081265 4.604684 0
M  V30 45 O -6.244700 3.885058 -3.385705 0
M  V30 46 C -7.007281 4.990308 -3.082641 0
M  V30 47 H 5.026697 -7.041106 3.996677 0
M  V30 48 H 5.791810 -7.604866 2.455371 0
M  V30 49 H 6.818340 -7.072997 3.821252 0
M  V30 50 H 6.628765 -4.846416 3.325176 0
M  V30 51 H 4.901892 -5.021581 2.924675 0
M  V30 52 H 7.273908 -5.964744 1.188368 0
M  V30 53 H 5.514211 -6.024855 0.764924 0
M  V30 54 H 6.589032 -4.129239 -0.338770 0
M  V30 55 H 5.271622 -3.685897 0.837638 0
M  V30 56 H 8.318349 -3.522998 1.301926 0
M  V30 57 H 7.084841 -3.050997 2.484204 0
M  V30 58 H 7.481682 -1.948881 -0.354437 0
M  V30 59 H 8.019195 -1.139797 1.170715 0
M  V30 60 H 5.133440 -1.791694 0.272631 0
M  V30 61 H 5.560167 -0.991278 1.829611 0
M  V30 62 H 6.623226 0.818458 0.640015 0
M  V30 63 H 6.310252 0.119491 -0.944369 0
M  V30 64 H 4.694350 1.909537 -0.249783 0
M  V30 65 H 4.319309 0.940289 1.239611 0
M  V30 66 H 3.788820 -0.259616 -1.493795 0
M  V30 67 H 3.414564 -0.871281 0.106720 0
M  V30 68 H 1.359961 -0.121991 -0.783125 0
M  V30 69 H 1.794416 0.918346 0.559737 0
M  V30 70 H 0.678778 2.096282 -1.152754 0
M  V30 71 H 1.767260 1.517122 -2.462382 0
M  V30 72 H 2.640576 3.565533 -0.255425 0
M  V30 73 H 3.520829 3.002501 -1.708392 0
M  V30 74 H 2.123988 3.841059 -3.232316 0
M  V30 75 H 2.488468 5.157211 -1.991921 0
M  V30 76 H 0.280275 4.771852 -0.933707 0
M  V30 77 H -0.062708 3.513726 -2.162267 0
M  V30 78 H 0.531700 6.418937 -2.990886 0
M  V30 79 H -0.088099 5.007700 -3.957262 0
M  V30 80 H -1.928351 6.553938 -3.394359 0
M  V30 81 H -1.652857 6.237941 -1.645541 0
M  V30 82 H -1.929354 3.947327 -1.810849 0
M  V30 83 H -2.114583 4.018773 -3.663799 0
M  V30 84 H -3.945838 2.820994 -3.436741 0
M  V30 85 H -3.639400 2.679681 -1.693661 0
M  V30 86 H -6.001366 3.890706 -1.399353 0
M  V30 87 H -5.921081 1.294037 -3.006282 0
M  V30 88 H -7.313180 1.957884 -2.059294 0
M  V30 89 H -5.417668 -0.801211 -3.149173 0
M  V30 90 H -4.842934 -2.708098 -1.577656 0
M  V30 91 H -1.874377 -2.261876 -1.004069 0
M  V30 92 H -1.847165 -0.576457 -2.229935 0
M  V30 93 H -3.300129 -3.252613 -3.546734 0
M  V30 94 H -1.230164 -3.034826 -4.029673 0
M  V30 95 H -2.201730 -5.377689 -2.191697 0
M  V30 96 H -3.932886 -5.720405 -3.322252 0
M  V30 97 H -2.041639 -4.734973 -0.055910 0
M  V30 98 H -3.621081 -5.501534 -0.142590 0
M  V30 99 H -4.665480 -3.667627 0.662999 0
M  V30 100 H -3.380451 -3.812235 2.823798 0
M  V30 101 H -4.103133 -2.129449 2.584259 0
M  V30 102 H -1.200635 -2.822941 3.100486 0
M  V30 103 H -2.771909 -0.364213 2.147484 0
M  V30 104 H -1.001056 -0.849524 1.901597 0
M  V30 105 H -0.485668 -0.149657 4.172620 0
M  V30 106 H -1.231941 1.161206 3.184401 0
M  V30 107 H -3.123279 1.297205 4.398853 0
M  V30 108 H -1.993539 0.748394 5.661533 0
M  V30 109 H -3.614859 -0.889006 5.955295 0
M  V30 110 H -4.217105 -0.757473 4.300469 0
M  V30 111 H -1.640455 -2.115641 5.288852 0
M  V30 112 H -3.165283 -2.938844 4.836612 0
M  V30 113 H -6.436719 5.787857 -2.590336 0
M  V30 114 H -7.855176 4.713346 -2.391165 0
M  V30 115 H -7.509872 5.333160 -4.009718 0
M  V30 END ATOM
M  V30 BEGIN BOND
M  V30 1 1 1 2
M  V30 2 1 2 3
M  V30 3 1 3 4
M  V30 4 1 4 5
M  V30 5 1 5 6
M  V30 6 1 6 7
M  V30 7 1 7 8
M  V30 8 1 8 9
M  V30 9 1 9 10
M  V30 10 1 10 11
M  V30 11 1 11 12
M  V30 12 1 12 13
M  V30 13 1 13 14
M  V30 14 1 14 15
M  V30 15 1 15 16
M  V30 16 1 16 17
M  V30 17 1 17 18
M  V30 18 1 18 19
M  V30 19 1 19 20
M  V30 20 1 20 21
M  V30 21 1 21 22
M  V30 22 1 22 23
M  V30 23 1 23 24
M  V30 24 2 24 25
M  V30 25 1 24 26
M  V30 26 1 24 27
M  V30 27 1 27 28
M  V30 28 1 28 29
M  V30 29 1 29 30
M  V30 30 1 29 31
M  V30 31 1 31 32
M  V30 32 1 31 33
M  V30 33 1 33 34
M  V30 34 1 33 35
M  V30 35 1 35 36
M  V30 36 1 36 37
M  V30 37 1 37 38
M  V30 38 1 38 39
M  V30 39 1 39 40
M  V30 40 1 40 41
M  V30 41 1 41 42
M  V30 42 1 42 43
M  V30 43 1 43 44
M  V30 44 1 21 45
M  V30 45 1 45 46
M  V30 46 1 36 28
M  V30 47 1 44 39
M  V30 48 1 1 47
M  V30 49 1 1 48
M  V30 50 1 1 49
M  V30 51 1 2 50
M  V30 52 1 2 51
M  V30 53 1 3 52
M  V30 54 1 3 53
M  V30 55 1 4 54
M  V30 56 1 4 55
M  V30 57 1 5 56
M  V30 58 1 5 57
M  V30 59 1 6 58
M  V30 60 1 6 59
M  V30 61 1 7 60
M  V30 62 1 7 61
M  V30 63 1 8 62
M  V30 64 1 8 63
M  V30 65 1 9 64
M  V30 66 1 9 65
M  V30 67 1 10 66
M  V30 68 1 10 67
M  V30 69 1 11 68
M  V30 70 1 11 69
M  V30 71 1 12 70
M  V30 72 1 12 71
M  V30 73 1 13 72
M  V30 74 1 13 73
M  V30 75 1 14 74
M  V30 76 1 14 75
M  V30 77 1 15 76
M  V30 78 1 15 77
M  V30 79 1 16 78
M  V30 80 1 16 79
M  V30 81 1 17 80
M  V30 82 1 17 81
M  V30 83 1 18 82
M  V30 84 1 18 83
M  V30 85 1 20 84
M  V30 86 1 20 85
M  V30 87 1 21 86 CFG=1
M  V30 88 1 22 87
M  V30 89 1 22 88
M  V30 90 1 26 89
M  V30 91 1 28 90 CFG=3
M  V30 92 1 29 91 CFG=1
M  V30 93 1 30 92
M  V30 94 1 31 93 CFG=3
M  V30 95 1 32 94
M  V30 96 1 33 95 CFG=1
M  V30 97 1 34 96
M  V30 98 1 35 97
M  V30 99 1 35 98
M  V30 100 1 36 99 CFG=1
M  V30 101 1 38 100
M  V30 102 1 38 101
M  V30 103 1 39 102
M  V30 104 1 40 103
M  V30 105 1 40 104
M  V30 106 1 41 105
M  V30 107 1 41 106
M  V30 108 1 42 107
M  V30 109 1 42 108
M  V30 110 1 43 109
M  V30 111 1 43 110
M  V30 112 1 44 111
M  V30 113 1 44 112
M  V30 114 1 46 113
M  V30 115 1 46 114
M  V30 116 1 46 115
M  V30 END BOND
M  V30 END CTAB
M  END
>  <Dataset>  (186) 
ChEMBL_Kinases

>  <Ligand_Instance>  (186) 
nan

>  <PDB_ID>  (186) 
nan

>  <Standardized_SMILES>  (186) 
CCCCCCCCCCCCCCCCCCOC[C@H](COP(=O)(O)O[C@H]1[C@H](O)[C@@H](O)[C@H](O)C[C@H]1OCC1CCCCC1)OC

>  <Name>  (186) 
nan

>  <Pocket>  (186) 
nan

>  <ATP_Site>  (186) 
nan

>  <Peripheral>  (186) 
nan

>  <Num_H_Atoms_ProtBoundConf>  (186) 
nan

>  <Num_Resolved_Atoms>  (186) 
nan

>  <Num_Not_Resolved_Atoms>  (186) 
nan

$$$$
CHEMBL4455382
     RDKit          3D

  0  0  0  0  0  0  0  0  0  0999 V3000
M  V30 BEGIN CTAB
M  V30 COUNTS 47 50 0 0 0
M  V30 BEGIN ATOM
M  V30 1 C 6.330734 -5.352759 0.111908 0
M  V30 2 N 4.922915 -5.029561 0.010999 0
M  V30 3 C 3.939116 -5.983294 0.466098 0
M  V30 4 C 4.424742 -3.816953 -0.514562 0
M  V30 5 O 3.180457 -3.540557 -0.598192 0
M  V30 6 C 4.387521 -2.468576 -1.115738 0
M  V30 7 N 3.001328 -2.014664 -1.266081 0
M  V30 8 C 2.336458 -1.318776 -0.300009 0
M  V30 9 C 1.067272 -1.058883 -0.775834 0
M  V30 10 C 0.101050 -0.321101 0.034303 0
M  V30 11 C 0.513782 0.656552 0.916157 0
M  V30 12 C -0.441292 1.323872 1.658291 0
M  V30 13 C -1.817916 1.069557 1.572734 0
M  V30 14 C -2.612348 1.899089 2.469988 0
M  V30 15 C -2.201531 1.861235 3.810252 0
M  V30 16 N -2.799654 2.524193 4.804912 0
M  V30 17 C -3.881447 3.296391 4.534122 0
M  V30 18 C -4.331630 3.372894 3.231298 0
M  V30 19 C -5.425539 4.140327 2.851786 0
M  V30 20 C -5.829020 4.185205 1.529244 0
M  V30 21 C -5.172728 3.477977 0.530746 0
M  V30 22 C -4.082540 2.708933 0.889657 0
M  V30 23 C -3.712762 2.688060 2.206466 0
M  V30 24 C -2.200575 0.086041 0.682745 0
M  V30 25 C -1.250228 -0.582007 -0.059899 0
M  V30 26 C 0.988014 -1.610671 -2.038546 0
M  V30 27 N 2.181597 -2.177048 -2.290115 0
M  V30 28 H 6.516079 -6.260441 -0.481762 0
M  V30 29 H 6.915713 -4.511935 -0.327244 0
M  V30 30 H 6.659184 -5.491241 1.150258 0
M  V30 31 H 2.922353 -5.749078 0.093699 0
M  V30 32 H 3.969930 -5.995744 1.579778 0
M  V30 33 H 4.168332 -7.016262 0.094917 0
M  V30 34 H 4.905438 -1.774994 -0.428205 0
M  V30 35 H 4.902405 -2.454986 -2.107276 0
M  V30 36 H 2.765957 -1.043831 0.649091 0
M  V30 37 H 1.561054 0.864626 0.995136 0
M  V30 38 H -0.016105 2.082026 2.330241 0
M  V30 39 H -1.334911 1.264471 4.132893 0
M  V30 40 H -4.408915 3.858389 5.305031 0
M  V30 41 H -5.966039 4.710139 3.611545 0
M  V30 42 H -6.689061 4.793981 1.257583 0
M  V30 43 H -5.552170 3.568514 -0.473624 0
M  V30 44 H -3.571496 2.168577 0.109276 0
M  V30 45 H -3.262888 -0.083868 0.656390 0
M  V30 46 H -1.605235 -1.336372 -0.736350 0
M  V30 47 H 0.094683 -1.551717 -2.642513 0
M  V30 END ATOM
M  V30 BEGIN BOND
M  V30 1 1 1 2
M  V30 2 1 2 3
M  V30 3 1 2 4
M  V30 4 2 4 5
M  V30 5 1 4 6
M  V30 6 1 6 7
M  V30 7 1 7 8
M  V30 8 2 8 9
M  V30 9 1 9 10
M  V30 10 2 10 11
M  V30 11 1 11 12
M  V30 12 2 12 13
M  V30 13 1 13 14
M  V30 14 2 14 15
M  V30 15 1 15 16
M  V30 16 2 16 17
M  V30 17 1 17 18
M  V30 18 2 18 19
M  V30 19 1 19 20
M  V30 20 2 20 21
M  V30 21 1 21 22
M  V30 22 2 22 23
M  V30 23 1 13 24
M  V30 24 2 24 25
M  V30 25 1 9 26
M  V30 26 2 26 27
M  V30 27 1 27 7
M  V30 28 1 25 10
M  V30 29 1 23 14
M  V30 30 1 23 18
M  V30 31 1 1 28
M  V30 32 1 1 29
M  V30 33 1 1 30
M  V30 34 1 3 31
M  V30 35 1 3 32
M  V30 36 1 3 33
M  V30 37 1 6 34
M  V30 38 1 6 35
M  V30 39 1 8 36
M  V30 40 1 11 37
M  V30 41 1 12 38
M  V30 42 1 15 39
M  V30 43 1 17 40
M  V30 44 1 19 41
M  V30 45 1 20 42
M  V30 46 1 21 43
M  V30 47 1 22 44
M  V30 48 1 24 45
M  V30 49 1 25 46
M  V30 50 1 26 47
M  V30 END BOND
M  V30 END CTAB
M  END
>  <Dataset>  (187) 
ChEMBL_Kinases

>  <Ligand_Instance>  (187) 
nan

>  <PDB_ID>  (187) 
nan

>  <Standardized_SMILES>  (187) 
CN(C)C(=O)Cn1cc(-c2ccc(-c3cncc4ccccc34)cc2)cn1

>  <Name>  (187) 
nan

>  <Pocket>  (187) 
nan

>  <ATP_Site>  (187) 
nan

>  <Peripheral>  (187) 
nan

>  <Num_H_Atoms_ProtBoundConf>  (187) 
nan

>  <Num_Resolved_Atoms>  (187) 
nan

>  <Num_Not_Resolved_Atoms>  (187) 
nan

$$$$
CHEMBL4455302
     RDKit          3D

  0  0  0  0  0  0  0  0  0  0999 V3000
M  V30 BEGIN CTAB
M  V30 COUNTS 54 57 0 0 0
M  V30 BEGIN ATOM
M  V30 1 C -0.598486 -5.979030 2.882066 0
M  V30 2 O -0.563813 -5.417662 1.579894 0
M  V30 3 C 0.132832 -4.231870 1.337070 0
M  V30 4 C 0.803434 -3.602293 2.388571 0
M  V30 5 C 1.467658 -2.432812 2.085671 0
M  V30 6 N 2.107388 -1.821902 3.105886 0
M  V30 7 C 2.746724 -0.676652 2.809459 0
M  V30 8 N 2.779044 -0.127966 1.585941 0
M  V30 9 C 2.156449 -0.687180 0.499639 0
M  V30 10 C 2.195073 -0.069926 -0.820019 0
M  V30 11 C 3.143467 1.128358 -0.721471 0
M  V30 12 C 2.632841 2.199889 0.220627 0
M  V30 13 N 1.201835 2.065384 0.356009 0
M  V30 14 C 0.211789 2.021087 1.374104 0
M  V30 15 O 0.551535 2.124991 2.610889 0
M  V30 16 C -1.197996 1.853460 1.068111 0
M  V30 17 C -1.599894 0.537000 1.348392 0
M  V30 18 C -2.901659 0.098400 1.139536 0
M  V30 19 C -3.870626 0.942042 0.643353 0
M  V30 20 C -5.257663 0.451473 0.429771 0
M  V30 21 C -3.454044 2.228216 0.376899 0
M  V30 22 C -2.174985 2.693736 0.571880 0
M  V30 23 C 0.718587 1.932636 -1.020588 0
M  V30 24 C 0.896547 0.441722 -1.358066 0
M  V30 25 C 1.514758 -1.854586 0.838890 0
M  V30 26 C 0.834086 -2.523079 -0.166324 0
M  V30 27 C 0.145848 -3.699904 0.066825 0
M  V30 28 O -0.526240 -4.334445 -0.977397 0
M  V30 29 C -0.519241 -3.790103 -2.289458 0
M  V30 30 H 0.382580 -6.431763 3.178471 0
M  V30 31 H -1.378509 -6.730551 3.007799 0
M  V30 32 H -0.816925 -5.164780 3.635364 0
M  V30 33 H 0.820630 -3.984043 3.382160 0
M  V30 34 H 3.293779 -0.109123 3.579813 0
M  V30 35 H 2.703513 -0.776291 -1.511348 0
M  V30 36 H 3.314898 1.551184 -1.713054 0
M  V30 37 H 4.128830 0.749785 -0.317346 0
M  V30 38 H 3.112123 2.169322 1.224087 0
M  V30 39 H 2.911124 3.182458 -0.239497 0
M  V30 40 H -0.956718 -0.266435 1.741052 0
M  V30 41 H -3.218684 -0.927595 1.351273 0
M  V30 42 H -5.258376 -0.482702 -0.187210 0
M  V30 43 H -5.811564 0.238391 1.352115 0
M  V30 44 H -5.850508 1.200998 -0.153174 0
M  V30 45 H -4.172335 2.936495 -0.010585 0
M  V30 46 H -1.792113 3.669241 0.386049 0
M  V30 47 H -0.345708 2.163607 -1.061891 0
M  V30 48 H 1.224876 2.578025 -1.744903 0
M  V30 49 H -0.011135 -0.031975 -0.976609 0
M  V30 50 H 0.874333 0.332893 -2.459208 0
M  V30 51 H 0.821725 -2.164152 -1.182113 0
M  V30 52 H -1.115361 -4.383461 -2.986768 0
M  V30 53 H -1.043663 -2.792668 -2.212615 0
M  V30 54 H 0.498897 -3.519296 -2.639321 0
M  V30 END ATOM
M  V30 BEGIN BOND
M  V30 1 1 1 2
M  V30 2 1 2 3
M  V30 3 2 3 4
M  V30 4 1 4 5
M  V30 5 2 5 6
M  V30 6 1 6 7
M  V30 7 2 7 8
M  V30 8 1 8 9
M  V30 9 1 9 10
M  V30 10 1 10 11
M  V30 11 1 11 12
M  V30 12 1 12 13
M  V30 13 1 13 14
M  V30 14 2 14 15
M  V30 15 1 14 16
M  V30 16 2 16 17
M  V30 17 1 17 18
M  V30 18 2 18 19
M  V30 19 1 19 20
M  V30 20 1 19 21
M  V30 21 2 21 22
M  V30 22 1 13 23
M  V30 23 1 23 24
M  V30 24 2 9 25
M  V30 25 1 25 26
M  V30 26 2 26 27
M  V30 27 1 27 28
M  V30 28 1 28 29
M  V30 29 1 27 3
M  V30 30 1 25 5
M  V30 31 1 24 10
M  V30 32 1 22 16
M  V30 33 1 1 30
M  V30 34 1 1 31
M  V30 35 1 1 32
M  V30 36 1 4 33
M  V30 37 1 7 34
M  V30 38 1 10 35
M  V30 39 1 11 36
M  V30 40 1 11 37
M  V30 41 1 12 38
M  V30 42 1 12 39
M  V30 43 1 17 40
M  V30 44 1 18 41
M  V30 45 1 20 42
M  V30 46 1 20 43
M  V30 47 1 20 44
M  V30 48 1 21 45
M  V30 49 1 22 46
M  V30 50 1 23 47
M  V30 51 1 23 48
M  V30 52 1 24 49
M  V30 53 1 24 50
M  V30 54 1 26 51
M  V30 55 1 29 52
M  V30 56 1 29 53
M  V30 57 1 29 54
M  V30 END BOND
M  V30 END CTAB
M  END
>  <Dataset>  (188) 
ChEMBL_Kinases

>  <Ligand_Instance>  (188) 
nan

>  <PDB_ID>  (188) 
nan

>  <Standardized_SMILES>  (188) 
COc1cc2ncnc(C3CCN(C(=O)c4ccc(C)cc4)CC3)c2cc1OC

>  <Name>  (188) 
nan

>  <Pocket>  (188) 
nan

>  <ATP_Site>  (188) 
nan

>  <Peripheral>  (188) 
nan

>  <Num_H_Atoms_ProtBoundConf>  (188) 
nan

>  <Num_Resolved_Atoms>  (188) 
nan

>  <Num_Not_Resolved_Atoms>  (188) 
nan

$$$$
CHEMBL4455268
     RDKit          3D

  0  0  0  0  0  0  0  0  0  0999 V3000
M  V30 BEGIN CTAB
M  V30 COUNTS 49 52 0 0 0
M  V30 BEGIN ATOM
M  V30 1 C -1.565333 -2.304277 -5.225993 0
M  V30 2 C -0.869042 -1.707395 -4.081674 0
M  V30 3 C -1.051601 -2.215855 -2.813943 0
M  V30 4 C -0.397141 -1.650778 -1.742275 0
M  V30 5 C 0.459960 -0.578336 -1.823180 0
M  V30 6 C 1.146447 0.022844 -0.686650 0
M  V30 7 C 2.000580 1.084272 -0.884784 0
M  V30 8 C 2.646548 1.626454 0.205531 0
M  V30 9 N 3.484420 2.666108 0.013426 0
M  V30 10 C 4.168408 3.274979 0.997122 0
M  V30 11 C 4.009264 2.811840 2.298251 0
M  V30 12 C 3.150651 1.750327 2.476672 0
M  V30 13 C 2.450265 1.126476 1.470071 0
M  V30 14 C 1.594252 0.063666 1.666477 0
M  V30 15 N 1.397698 -0.460905 2.970659 0
M  V30 16 C 0.622578 -1.502371 3.559732 0
M  V30 17 C -0.859385 -1.329767 3.549103 0 CFG=1
M  V30 18 C -1.507020 -1.226379 2.206896 0
M  V30 19 C -2.990927 -1.616064 2.293494 0
M  V30 20 C -3.446974 -1.381792 3.705569 0
M  V30 21 N -2.827852 -2.390272 4.550838 0
M  V30 22 C -1.447781 -2.571476 4.225192 0
M  V30 23 N 0.996680 -0.418852 0.568037 0
M  V30 24 C 0.620175 -0.095472 -3.100423 0
M  V30 25 C -0.005251 -0.615686 -4.213013 0
M  V30 26 H -2.576420 -1.877344 -5.393520 0
M  V30 27 H -0.972386 -2.089394 -6.138891 0
M  V30 28 H -1.655858 -3.388060 -5.079459 0
M  V30 29 H -1.725400 -3.075574 -2.676149 0
M  V30 30 H -0.591265 -2.109120 -0.790229 0
M  V30 31 H 2.210356 1.534509 -1.836334 0
M  V30 32 H 4.818595 4.104093 0.746026 0
M  V30 33 H 4.551969 3.291680 3.101001 0
M  V30 34 H 3.070815 1.439464 3.501943 0
M  V30 35 H 1.915320 -0.022036 3.737224 0
M  V30 36 H 0.868167 -2.437443 2.945464 0
M  V30 37 H 0.919797 -1.731391 4.589791 0
M  V30 38 H -1.130316 -0.431227 4.156887 0
M  V30 39 H -1.079384 -1.984613 1.506796 0
M  V30 40 H -1.512047 -0.211513 1.761840 0
M  V30 41 H -3.168566 -2.657251 1.956250 0
M  V30 42 H -3.621909 -0.975420 1.630520 0
M  V30 43 H -3.141171 -0.374570 4.019393 0
M  V30 44 H -4.556438 -1.486853 3.742959 0
M  V30 45 H -2.997224 -2.217415 5.551284 0
M  V30 46 H -1.339932 -3.403247 3.499878 0
M  V30 47 H -0.815105 -2.830999 5.098352 0
M  V30 48 H 1.239968 0.724076 -3.353463 0
M  V30 49 H 0.101709 -0.259091 -5.217101 0
M  V30 END ATOM
M  V30 BEGIN BOND
M  V30 1 1 1 2
M  V30 2 2 2 3
M  V30 3 1 3 4
M  V30 4 2 4 5
M  V30 5 1 5 6
M  V30 6 2 6 7
M  V30 7 1 7 8
M  V30 8 2 8 9
M  V30 9 1 9 10
M  V30 10 2 10 11
M  V30 11 1 11 12
M  V30 12 2 12 13
M  V30 13 1 13 14
M  V30 14 1 14 15
M  V30 15 1 15 16
M  V30 16 1 16 17
M  V30 17 1 17 18
M  V30 18 1 18 19
M  V30 19 1 19 20
M  V30 20 1 20 21
M  V30 21 1 21 22
M  V30 22 2 14 23
M  V30 23 1 5 24
M  V30 24 2 24 25
M  V30 25 1 25 2
M  V30 26 1 23 6
M  V30 27 1 13 8
M  V30 28 1 22 17
M  V30 29 1 1 26
M  V30 30 1 1 27
M  V30 31 1 1 28
M  V30 32 1 3 29
M  V30 33 1 4 30
M  V30 34 1 7 31
M  V30 35 1 10 32
M  V30 36 1 11 33
M  V30 37 1 12 34
M  V30 38 1 15 35
M  V30 39 1 16 36
M  V30 40 1 16 37
M  V30 41 1 17 38 CFG=1
M  V30 42 1 18 39
M  V30 43 1 18 40
M  V30 44 1 19 41
M  V30 45 1 19 42
M  V30 46 1 20 43
M  V30 47 1 20 44
M  V30 48 1 21 45
M  V30 49 1 22 46
M  V30 50 1 22 47
M  V30 51 1 24 48
M  V30 52 1 25 49
M  V30 END BOND
M  V30 END CTAB
M  END
>  <Dataset>  (189) 
ChEMBL_Kinases

>  <Ligand_Instance>  (189) 
nan

>  <PDB_ID>  (189) 
nan

>  <Standardized_SMILES>  (189) 
Cc1ccc(-c2cc3ncccc3c(NC[C@H]3CCCNC3)n2)cc1

>  <Name>  (189) 
nan

>  <Pocket>  (189) 
nan

>  <ATP_Site>  (189) 
nan

>  <Peripheral>  (189) 
nan

>  <Num_H_Atoms_ProtBoundConf>  (189) 
nan

>  <Num_Resolved_Atoms>  (189) 
nan

>  <Num_Not_Resolved_Atoms>  (189) 
nan

$$$$
CHEMBL4746133
     RDKit          3D

  0  0  0  0  0  0  0  0  0  0999 V3000
M  V30 BEGIN CTAB
M  V30 COUNTS 44 46 0 0 0
M  V30 BEGIN ATOM
M  V30 1 C -1.145881 -4.930876 -1.568646 0
M  V30 2 O -1.418205 -4.625942 -0.212745 0
M  V30 3 C -1.135995 -3.328572 0.253959 0
M  V30 4 C -0.607786 -2.427557 -0.644424 0
M  V30 5 C -0.321562 -1.150813 -0.216390 0
M  V30 6 N 0.212942 -0.215492 -1.134161 0
M  V30 7 C 0.693547 1.107218 -0.969498 0
M  V30 8 C 0.011871 2.108664 -1.673026 0
M  V30 9 C 0.325170 3.451439 -1.645116 0
M  V30 10 N 1.363568 3.805353 -0.881483 0
M  V30 11 C 2.051543 2.885850 -0.186882 0
M  V30 12 C 3.139826 3.264686 0.606836 0
M  V30 13 C 3.836050 2.280812 1.313280 0
M  V30 14 C 5.001632 2.723560 2.157492 0
M  V30 15 F 4.942487 2.115584 3.413801 0
M  V30 16 F 6.207622 2.447623 1.586937 0
M  V30 17 F 4.937323 4.081011 2.389468 0
M  V30 18 C 3.498595 0.942233 1.264877 0
M  V30 19 C 2.426983 0.567841 0.483696 0
M  V30 20 C 1.754199 1.539636 -0.201815 0
M  V30 21 C -0.592551 -0.871731 1.104609 0
M  V30 22 C -1.121348 -1.771441 2.006663 0
M  V30 23 O -1.379005 -1.454276 3.322780 0
M  V30 24 C -1.092195 -0.144797 3.786626 0
M  V30 25 C -1.407694 -3.050230 1.576711 0
M  V30 26 O -1.940665 -3.986696 2.451474 0
M  V30 27 C -3.354035 -4.126696 2.608007 0
M  V30 28 H -1.611267 -4.228740 -2.279489 0
M  V30 29 H -1.564743 -5.954432 -1.742110 0
M  V30 30 H -0.044397 -5.034614 -1.771223 0
M  V30 31 H -0.411888 -2.690752 -1.670697 0
M  V30 32 H 0.304990 -0.469870 -2.141404 0
M  V30 33 H -0.839193 1.839428 -2.302398 0
M  V30 34 H -0.242214 4.163337 -2.210667 0
M  V30 35 H 3.451459 4.311048 0.682168 0
M  V30 36 H 4.045307 0.206143 1.813490 0
M  V30 37 H 2.160953 -0.460354 0.434521 0
M  V30 38 H -0.369032 0.142185 1.458454 0
M  V30 39 H -1.542070 0.617743 3.110838 0
M  V30 40 H 0.016192 0.045781 3.856497 0
M  V30 41 H -1.546989 0.040709 4.788010 0
M  V30 42 H -3.893683 -3.393067 1.943717 0
M  V30 43 H -3.711292 -5.131772 2.280354 0
M  V30 44 H -3.690685 -3.909985 3.634497 0
M  V30 END ATOM
M  V30 BEGIN BOND
M  V30 1 1 1 2
M  V30 2 1 2 3
M  V30 3 2 3 4
M  V30 4 1 4 5
M  V30 5 1 5 6
M  V30 6 1 6 7
M  V30 7 2 7 8
M  V30 8 1 8 9
M  V30 9 2 9 10
M  V30 10 1 10 11
M  V30 11 2 11 12
M  V30 12 1 12 13
M  V30 13 1 13 14
M  V30 14 1 14 15
M  V30 15 1 14 16
M  V30 16 1 14 17
M  V30 17 2 13 18
M  V30 18 1 18 19
M  V30 19 2 19 20
M  V30 20 2 5 21
M  V30 21 1 21 22
M  V30 22 1 22 23
M  V30 23 1 23 24
M  V30 24 2 22 25
M  V30 25 1 25 26
M  V30 26 1 26 27
M  V30 27 1 25 3
M  V30 28 1 20 7
M  V30 29 1 20 11
M  V30 30 1 1 28
M  V30 31 1 1 29
M  V30 32 1 1 30
M  V30 33 1 4 31
M  V30 34 1 6 32
M  V30 35 1 8 33
M  V30 36 1 9 34
M  V30 37 1 12 35
M  V30 38 1 18 36
M  V30 39 1 19 37
M  V30 40 1 21 38
M  V30 41 1 24 39
M  V30 42 1 24 40
M  V30 43 1 24 41
M  V30 44 1 27 42
M  V30 45 1 27 43
M  V30 46 1 27 44
M  V30 END BOND
M  V30 END CTAB
M  END
>  <Dataset>  (190) 
ChEMBL_Kinases

>  <Ligand_Instance>  (190) 
nan

>  <PDB_ID>  (190) 
nan

>  <Standardized_SMILES>  (190) 
COc1cc(Nc2ccnc3cc(C(F)(F)F)ccc23)cc(OC)c1OC

>  <Name>  (190) 
nan

>  <Pocket>  (190) 
nan

>  <ATP_Site>  (190) 
nan

>  <Peripheral>  (190) 
nan

>  <Num_H_Atoms_ProtBoundConf>  (190) 
nan

>  <Num_Resolved_Atoms>  (190) 
nan

>  <Num_Not_Resolved_Atoms>  (190) 
nan

$$$$
CHEMBL4455194
     RDKit          3D

  0  0  0  0  0  0  0  0  0  0999 V3000
M  V30 BEGIN CTAB
M  V30 COUNTS 52 55 0 0 0
M  V30 BEGIN ATOM
M  V30 1 C 1.471780 -0.674519 4.512646 0
M  V30 2 N 2.863129 -0.316056 4.394170 0
M  V30 3 N 3.722239 -0.415858 5.390314 0
M  V30 4 C 4.951080 -0.024894 5.033261 0
M  V30 5 C 4.813021 0.345544 3.690691 0
M  V30 6 C 5.883931 0.854185 2.835787 0
M  V30 7 O 6.373465 -0.062570 1.917450 0
M  V30 8 C 3.499915 0.163263 3.285491 0
M  V30 9 C 2.843149 0.389735 1.994505 0
M  V30 10 C 3.249740 0.799424 0.801331 0
M  V30 11 C 2.378302 0.903070 -0.225580 0
M  V30 12 C 1.060959 0.567100 0.020624 0
M  V30 13 C -0.144623 0.563909 -0.851340 0
M  V30 14 O -0.254590 0.869631 -2.052393 0
M  V30 15 N -1.352019 0.152428 -0.226890 0
M  V30 16 C -2.603109 0.100359 -0.953980 0 CFG=2
M  V30 17 C -3.511307 1.156464 -0.343113 0
M  V30 18 N -4.906181 0.836002 -0.545918 0
M  V30 19 C -5.155202 0.066611 -1.739911 0
M  V30 20 C -4.453214 -1.272580 -1.753265 0
M  V30 21 C -3.280674 -1.246055 -0.818864 0 CFG=1
M  V30 22 C -2.357870 -2.362133 -1.046082 0
M  V30 23 C -1.706531 -2.602718 -2.217413 0
M  V30 24 C -0.828671 -3.665553 -2.426654 0
M  V30 25 C -0.623391 -4.511550 -1.367733 0
M  V30 26 C -1.248390 -4.326473 -0.158248 0
M  V30 27 F -1.086780 -5.130368 0.933313 0
M  V30 28 C -2.106295 -3.255092 -0.014506 0
M  V30 29 S 1.123432 0.110735 1.732772 0
M  V30 30 H 1.244318 -1.123606 5.481676 0
M  V30 31 H 1.239613 -1.456123 3.733216 0
M  V30 32 H 0.871558 0.245384 4.323225 0
M  V30 33 H 5.872035 0.022340 5.585895 0
M  V30 34 H 6.754469 1.134424 3.509341 0
M  V30 35 H 5.589947 1.832254 2.386380 0
M  V30 36 H 7.199844 -0.523715 2.201194 0
M  V30 37 H 4.279454 1.066728 0.586560 0
M  V30 38 H 2.546032 1.217714 -1.249028 0
M  V30 39 H -1.495908 -0.146224 0.764721 0
M  V30 40 H -2.476470 0.360286 -2.015968 0
M  V30 41 H -3.319217 2.138295 -0.796652 0
M  V30 42 H -3.363049 1.267025 0.752605 0
M  V30 43 H -5.381988 0.472869 0.299963 0
M  V30 44 H -4.871951 0.691170 -2.619179 0
M  V30 45 H -6.258105 -0.074184 -1.792446 0
M  V30 46 H -4.050088 -1.409077 -2.796230 0
M  V30 47 H -5.159384 -2.097521 -1.496819 0
M  V30 48 H -3.703633 -1.289222 0.212470 0
M  V30 49 H -1.873177 -1.935659 -3.041430 0
M  V30 50 H -0.322767 -3.836999 -3.366839 0
M  V30 51 H 0.038998 -5.377784 -1.407485 0
M  V30 52 H -2.611488 -3.086958 0.928053 0
M  V30 END ATOM
M  V30 BEGIN BOND
M  V30 1 1 1 2
M  V30 2 1 2 3
M  V30 3 2 3 4
M  V30 4 1 4 5
M  V30 5 1 5 6
M  V30 6 1 6 7
M  V30 7 2 5 8
M  V30 8 1 8 9
M  V30 9 2 9 10
M  V30 10 1 10 11
M  V30 11 2 11 12
M  V30 12 1 12 13
M  V30 13 2 13 14
M  V30 14 1 13 15
M  V30 15 1 15 16
M  V30 16 1 16 17
M  V30 17 1 17 18
M  V30 18 1 18 19
M  V30 19 1 19 20
M  V30 20 1 20 21
M  V30 21 1 21 22
M  V30 22 2 22 23
M  V30 23 1 23 24
M  V30 24 2 24 25
M  V30 25 1 25 26
M  V30 26 1 26 27
M  V30 27 2 26 28
M  V30 28 1 12 29
M  V30 29 1 8 2
M  V30 30 1 29 9
M  V30 31 1 21 16
M  V30 32 1 28 22
M  V30 33 1 1 30
M  V30 34 1 1 31
M  V30 35 1 1 32
M  V30 36 1 4 33
M  V30 37 1 6 34
M  V30 38 1 6 35
M  V30 39 1 7 36
M  V30 40 1 10 37
M  V30 41 1 11 38
M  V30 42 1 15 39
M  V30 43 1 16 40 CFG=3
M  V30 44 1 17 41
M  V30 45 1 17 42
M  V30 46 1 18 43
M  V30 47 1 19 44
M  V30 48 1 19 45
M  V30 49 1 20 46
M  V30 50 1 20 47
M  V30 51 1 21 48 CFG=1
M  V30 52 1 23 49
M  V30 53 1 24 50
M  V30 54 1 25 51
M  V30 55 1 28 52
M  V30 END BOND
M  V30 END CTAB
M  END
>  <Dataset>  (191) 
ChEMBL_Kinases

>  <Ligand_Instance>  (191) 
nan

>  <PDB_ID>  (191) 
nan

>  <Standardized_SMILES>  (191) 
Cn1ncc(CO)c1-c1ccc(C(=O)N[C@@H]2CNCC[C@H]2c2cccc(F)c2)s1

>  <Name>  (191) 
nan

>  <Pocket>  (191) 
nan

>  <ATP_Site>  (191) 
nan

>  <Peripheral>  (191) 
nan

>  <Num_H_Atoms_ProtBoundConf>  (191) 
nan

>  <Num_Resolved_Atoms>  (191) 
nan

>  <Num_Not_Resolved_Atoms>  (191) 
nan

$$$$
CHEMBL4746226
     RDKit          3D

  0  0  0  0  0  0  0  0  0  0999 V3000
M  V30 BEGIN CTAB
M  V30 COUNTS 64 68 0 0 0
M  V30 BEGIN ATOM
M  V30 1 C 1.923384 -1.894157 5.400856 0
M  V30 2 C 2.644569 -0.824287 4.683629 0
M  V30 3 O 3.798020 -1.124876 4.303419 0
M  V30 4 N 2.136369 0.449968 4.414443 0
M  V30 5 C 2.729610 1.540999 3.742102 0
M  V30 6 C 3.992794 1.586000 3.243573 0
M  V30 7 C 4.515215 2.668160 2.570530 0
M  V30 8 C 3.761970 3.801103 2.358858 0
M  V30 9 C 2.480002 3.763371 2.862147 0
M  V30 10 S 1.420517 5.138080 2.623973 0
M  V30 11 O 2.273565 6.340917 2.358340 0
M  V30 12 O 0.546698 5.374214 3.806606 0
M  V30 13 N 0.424406 4.906647 1.227915 0
M  V30 14 C -0.487408 3.787045 1.220754 0
M  V30 15 C -0.529149 2.950014 0.126365 0
M  V30 16 C -1.395221 1.871572 0.131029 0
M  V30 17 C -2.221713 1.614873 1.211791 0
M  V30 18 C -3.136643 0.452850 1.194549 0
M  V30 19 N -3.247432 -0.445697 0.174319 0
M  V30 20 C -4.187163 -1.385690 0.495175 0
M  V30 21 C -4.297500 -2.352051 -0.616947 0
M  V30 22 C -5.286564 -2.200257 -1.606910 0
M  V30 23 C -5.210550 -3.192387 -2.549317 0
M  V30 24 N -4.340308 -4.200031 -2.584494 0
M  V30 25 C -3.381711 -4.339757 -1.616240 0
M  V30 26 N -2.513585 -5.449618 -1.770869 0
M  V30 27 C -1.230185 -5.198012 -2.355370 0
M  V30 28 C -0.863493 -3.888541 -2.656203 0
M  V30 29 C 0.376139 -3.623614 -3.212573 0
M  V30 30 C 1.278359 -4.652531 -3.482442 0
M  V30 31 O 2.456342 -4.198534 -4.031657 0
M  V30 32 C 2.636795 -4.068694 -5.444245 0
M  V30 33 F 2.476348 -5.287915 -6.052857 0
M  V30 34 F 1.668377 -3.189008 -5.940061 0
M  V30 35 F 3.915086 -3.623323 -5.692843 0
M  V30 36 C 0.875263 -5.926354 -3.170716 0
M  V30 37 C -0.345183 -6.221699 -2.619093 0
M  V30 38 C -3.407220 -3.370254 -0.639165 0
M  V30 39 N -4.620085 -1.021833 1.714101 0
M  V30 40 O -3.988118 0.051583 2.090736 0
M  V30 41 C -2.188231 2.443304 2.307149 0
M  V30 42 C -1.323717 3.528544 2.314878 0
M  V30 43 C 1.975403 2.671337 3.533317 0
M  V30 44 H 2.604599 -2.464449 6.078719 0
M  V30 45 H 1.117180 -1.467920 6.023943 0
M  V30 46 H 1.412543 -2.547502 4.659370 0
M  V30 47 H 1.157827 0.555423 4.797436 0
M  V30 48 H 4.660302 0.751313 3.360360 0
M  V30 49 H 5.523021 2.689825 2.179293 0
M  V30 50 H 4.062281 4.703398 1.846718 0
M  V30 51 H 0.337402 5.450922 0.316290 0
M  V30 52 H 0.116653 3.137840 -0.737067 0
M  V30 53 H -1.390443 1.245408 -0.749170 0
M  V30 54 H -5.979922 -1.380286 -1.563391 0
M  V30 55 H -5.949913 -3.149688 -3.365268 0
M  V30 56 H -2.781822 -6.412604 -1.478878 0
M  V30 57 H -1.559077 -3.085074 -2.449826 0
M  V30 58 H 0.564387 -2.559532 -3.412448 0
M  V30 59 H 1.636348 -6.677442 -3.411772 0
M  V30 60 H -0.598662 -7.256979 -2.399263 0
M  V30 61 H -2.629713 -3.522527 0.105285 0
M  V30 62 H -2.822542 2.272185 3.171117 0
M  V30 63 H -1.322327 4.159921 3.185494 0
M  V30 64 H 0.948293 2.710927 3.908223 0
M  V30 END ATOM
M  V30 BEGIN BOND
M  V30 1 1 1 2
M  V30 2 2 2 3
M  V30 3 1 2 4
M  V30 4 1 4 5
M  V30 5 2 5 6
M  V30 6 1 6 7
M  V30 7 2 7 8
M  V30 8 1 8 9
M  V30 9 1 9 10
M  V30 10 2 10 11
M  V30 11 2 10 12
M  V30 12 1 10 13
M  V30 13 1 13 14
M  V30 14 2 14 15
M  V30 15 1 15 16
M  V30 16 2 16 17
M  V30 17 1 17 18
M  V30 18 2 18 19
M  V30 19 1 19 20
M  V30 20 1 20 21
M  V30 21 2 21 22
M  V30 22 1 22 23
M  V30 23 2 23 24
M  V30 24 1 24 25
M  V30 25 1 25 26
M  V30 26 1 26 27
M  V30 27 2 27 28
M  V30 28 1 28 29
M  V30 29 2 29 30
M  V30 30 1 30 31
M  V30 31 1 31 32
M  V30 32 1 32 33
M  V30 33 1 32 34
M  V30 34 1 32 35
M  V30 35 1 30 36
M  V30 36 2 36 37
M  V30 37 2 25 38
M  V30 38 2 20 39
M  V30 39 1 39 40
M  V30 40 1 17 41
M  V30 41 2 41 42
M  V30 42 2 9 43
M  V30 43 1 43 5
M  V30 44 1 42 14
M  V30 45 1 40 18
M  V30 46 1 38 21
M  V30 47 1 37 27
M  V30 48 1 1 44
M  V30 49 1 1 45
M  V30 50 1 1 46
M  V30 51 1 4 47
M  V30 52 1 6 48
M  V30 53 1 7 49
M  V30 54 1 8 50
M  V30 55 1 13 51
M  V30 56 1 15 52
M  V30 57 1 16 53
M  V30 58 1 22 54
M  V30 59 1 23 55
M  V30 60 1 26 56
M  V30 61 1 28 57
M  V30 62 1 29 58
M  V30 63 1 36 59
M  V30 64 1 37 60
M  V30 65 1 38 61
M  V30 66 1 41 62
M  V30 67 1 42 63
M  V30 68 1 43 64
M  V30 END BOND
M  V30 END CTAB
M  END
>  <Dataset>  (192) 
ChEMBL_Kinases

>  <Ligand_Instance>  (192) 
nan

>  <PDB_ID>  (192) 
nan

>  <Standardized_SMILES>  (192) 
CC(=O)Nc1cccc(S(=O)(=O)Nc2ccc(-c3nc(-c4ccnc(Nc5ccc(OC(F)(F)F)cc5)c4)no3)cc2)c1

>  <Name>  (192) 
nan

>  <Pocket>  (192) 
nan

>  <ATP_Site>  (192) 
nan

>  <Peripheral>  (192) 
nan

>  <Num_H_Atoms_ProtBoundConf>  (192) 
nan

>  <Num_Resolved_Atoms>  (192) 
nan

>  <Num_Not_Resolved_Atoms>  (192) 
nan

$$$$
CHEMBL4746235
     RDKit          3D

  0  0  0  0  0  0  0  0  0  0999 V3000
M  V30 BEGIN CTAB
M  V30 COUNTS 47 49 0 0 0
M  V30 BEGIN ATOM
M  V30 1 C 0.023849 -5.583628 2.291241 0
M  V30 2 O 0.852128 -4.533594 2.741005 0
M  V30 3 C 0.992350 -3.352460 2.039861 0
M  V30 4 C 0.318184 -3.147862 0.853416 0
M  V30 5 C 0.497372 -1.950172 0.198845 0
M  V30 6 N -0.186420 -1.736902 -1.026602 0
M  V30 7 C -0.328815 -0.655901 -1.897306 0
M  V30 8 C 0.121590 -0.735082 -3.221339 0
M  V30 9 C 0.035913 0.259379 -4.172661 0
M  V30 10 N -0.539162 1.403245 -3.763492 0
M  V30 11 C -0.999685 1.565802 -2.511202 0
M  V30 12 C -1.594909 2.775417 -2.134276 0
M  V30 13 C -2.085193 2.982028 -0.858166 0
M  V30 14 C -1.972238 1.939802 0.063562 0
M  V30 15 S -2.574927 2.146695 1.688577 0
M  V30 16 C -1.319341 2.803289 2.760948 0
M  V30 17 O -3.076992 0.879324 2.291270 0
M  V30 18 O -3.723349 3.129951 1.656494 0
M  V30 19 C -1.382121 0.754849 -0.327144 0
M  V30 20 C -0.895116 0.546135 -1.588937 0
M  V30 21 C 1.341585 -1.021941 0.767045 0
M  V30 22 C 2.019162 -1.220575 1.954068 0
M  V30 23 O 2.861672 -0.266701 2.499766 0
M  V30 24 C 3.082596 0.972299 1.876628 0
M  V30 25 C 1.843992 -2.419499 2.615719 0
M  V30 26 O 2.500787 -2.674116 3.814414 0
M  V30 27 C 1.917373 -2.335604 5.074832 0
M  V30 28 H 0.114927 -5.716829 1.183720 0
M  V30 29 H -1.026075 -5.425123 2.604175 0
M  V30 30 H 0.342394 -6.567713 2.743904 0
M  V30 31 H -0.340468 -3.883622 0.419355 0
M  V30 32 H -0.741255 -2.500761 -1.463046 0
M  V30 33 H 0.588805 -1.683223 -3.531089 0
M  V30 34 H 0.424510 0.068387 -5.164046 0
M  V30 35 H -1.694019 3.597705 -2.830784 0
M  V30 36 H -2.547777 3.911999 -0.552643 0
M  V30 37 H -1.195818 2.173448 3.683906 0
M  V30 38 H -1.541749 3.858926 3.027510 0
M  V30 39 H -0.302878 2.759102 2.273673 0
M  V30 40 H -1.321738 -0.022794 0.416292 0
M  V30 41 H 1.496440 -0.067087 0.263488 0
M  V30 42 H 3.682373 1.605525 2.563872 0
M  V30 43 H 3.614047 0.824638 0.902472 0
M  V30 44 H 2.069324 1.404486 1.683524 0
M  V30 45 H 1.894698 -3.238140 5.742616 0
M  V30 46 H 2.488472 -1.504280 5.567845 0
M  V30 47 H 0.855589 -2.063089 4.900288 0
M  V30 END ATOM
M  V30 BEGIN BOND
M  V30 1 1 1 2
M  V30 2 1 2 3
M  V30 3 2 3 4
M  V30 4 1 4 5
M  V30 5 1 5 6
M  V30 6 1 6 7
M  V30 7 2 7 8
M  V30 8 1 8 9
M  V30 9 2 9 10
M  V30 10 1 10 11
M  V30 11 2 11 12
M  V30 12 1 12 13
M  V30 13 2 13 14
M  V30 14 1 14 15
M  V30 15 1 15 16
M  V30 16 2 15 17
M  V30 17 2 15 18
M  V30 18 1 14 19
M  V30 19 2 19 20
M  V30 20 2 5 21
M  V30 21 1 21 22
M  V30 22 1 22 23
M  V30 23 1 23 24
M  V30 24 2 22 25
M  V30 25 1 25 26
M  V30 26 1 26 27
M  V30 27 1 25 3
M  V30 28 1 20 7
M  V30 29 1 20 11
M  V30 30 1 1 28
M  V30 31 1 1 29
M  V30 32 1 1 30
M  V30 33 1 4 31
M  V30 34 1 6 32
M  V30 35 1 8 33
M  V30 36 1 9 34
M  V30 37 1 12 35
M  V30 38 1 13 36
M  V30 39 1 16 37
M  V30 40 1 16 38
M  V30 41 1 16 39
M  V30 42 1 19 40
M  V30 43 1 21 41
M  V30 44 1 24 42
M  V30 45 1 24 43
M  V30 46 1 24 44
M  V30 47 1 27 45
M  V30 48 1 27 46
M  V30 49 1 27 47
M  V30 END BOND
M  V30 END CTAB
M  END
>  <Dataset>  (193) 
ChEMBL_Kinases

>  <Ligand_Instance>  (193) 
nan

>  <PDB_ID>  (193) 
nan

>  <Standardized_SMILES>  (193) 
COc1cc(Nc2ccnc3ccc(S(C)(=O)=O)cc23)cc(OC)c1OC

>  <Name>  (193) 
nan

>  <Pocket>  (193) 
nan

>  <ATP_Site>  (193) 
nan

>  <Peripheral>  (193) 
nan

>  <Num_H_Atoms_ProtBoundConf>  (193) 
nan

>  <Num_Resolved_Atoms>  (193) 
nan

>  <Num_Not_Resolved_Atoms>  (193) 
nan

$$$$
CHEMBL4455149
     RDKit          3D

  0  0  0  0  0  0  0  0  0  0999 V3000
M  V30 BEGIN CTAB
M  V30 COUNTS 47 50 0 0 0
M  V30 BEGIN ATOM
M  V30 1 C 1.377442 -3.244320 2.325597 0
M  V30 2 N 1.924798 -3.507226 1.034717 0
M  V30 3 C 1.345235 -4.599480 0.345052 0
M  V30 4 C 2.324365 -5.074345 -0.712023 0
M  V30 5 N 2.742290 -4.006823 -1.567279 0
M  V30 6 C 2.164921 -2.740916 -1.250889 0
M  V30 7 C 2.144469 -2.394626 0.188951 0 CFG=1
M  V30 8 C 1.284568 -1.189871 0.504704 0
M  V30 9 N -0.118145 -1.411385 0.413892 0
M  V30 10 C -0.956051 -0.281374 0.712427 0
M  V30 11 N -0.476349 0.926126 1.060231 0
M  V30 12 C -1.266846 1.976944 1.337812 0
M  V30 13 C -0.646572 3.244523 1.705713 0
M  V30 14 C -1.278241 4.420848 2.021753 0
M  V30 15 N -0.317163 5.345212 2.301041 0
M  V30 16 N 0.870398 4.800604 2.173679 0
M  V30 17 C 2.130275 5.512278 2.399886 0
M  V30 18 C 0.710635 3.509864 1.808774 0
M  V30 19 C -2.642754 1.900111 1.287741 0
M  V30 20 C -3.176599 0.694554 0.939379 0
M  V30 21 N -4.502141 0.483572 0.852861 0
M  V30 22 C -5.020054 -0.710538 0.507935 0
M  V30 23 C -4.186857 -1.784625 0.224669 0
M  V30 24 N -2.863948 -1.555555 0.316288 0
M  V30 25 C -2.331692 -0.359031 0.662138 0
M  V30 26 H 0.257159 -3.354526 2.345953 0
M  V30 27 H 1.744151 -4.076688 2.995759 0
M  V30 28 H 1.731512 -2.327452 2.796929 0
M  V30 29 H 0.336034 -4.465064 -0.049970 0
M  V30 30 H 1.283664 -5.461484 1.073596 0
M  V30 31 H 3.206848 -5.486378 -0.192889 0
M  V30 32 H 1.839760 -5.859744 -1.303702 0
M  V30 33 H 2.883107 -4.206678 -2.550482 0
M  V30 34 H 1.133438 -2.744048 -1.688805 0
M  V30 35 H 2.735054 -1.974264 -1.818139 0
M  V30 36 H 3.197411 -2.033177 0.434372 0
M  V30 37 H 1.626917 -0.776715 1.480351 0
M  V30 38 H 1.538975 -0.375277 -0.235572 0
M  V30 39 H -0.611307 -2.288118 0.158305 0
M  V30 40 H -2.325077 4.615145 2.054141 0
M  V30 41 H 1.973951 6.097661 3.349318 0
M  V30 42 H 2.910202 4.763872 2.599772 0
M  V30 43 H 2.367026 6.191612 1.570374 0
M  V30 44 H 1.469441 2.790899 1.623567 0
M  V30 45 H -3.275905 2.724046 1.505193 0
M  V30 46 H -6.090649 -0.896861 0.433509 0
M  V30 47 H -4.577611 -2.755553 -0.055034 0
M  V30 END ATOM
M  V30 BEGIN BOND
M  V30 1 1 1 2
M  V30 2 1 2 3
M  V30 3 1 3 4
M  V30 4 1 4 5
M  V30 5 1 5 6
M  V30 6 1 6 7
M  V30 7 1 7 8
M  V30 8 1 8 9
M  V30 9 1 9 10
M  V30 10 2 10 11
M  V30 11 1 11 12
M  V30 12 1 12 13
M  V30 13 1 13 14
M  V30 14 2 14 15
M  V30 15 1 15 16
M  V30 16 1 16 17
M  V30 17 1 16 18
M  V30 18 2 12 19
M  V30 19 1 19 20
M  V30 20 2 20 21
M  V30 21 1 21 22
M  V30 22 2 22 23
M  V30 23 1 23 24
M  V30 24 2 24 25
M  V30 25 1 7 2
M  V30 26 1 25 10
M  V30 27 2 18 13
M  V30 28 1 25 20
M  V30 29 1 1 26
M  V30 30 1 1 27
M  V30 31 1 1 28
M  V30 32 1 3 29
M  V30 33 1 3 30
M  V30 34 1 4 31
M  V30 35 1 4 32
M  V30 36 1 5 33
M  V30 37 1 6 34
M  V30 38 1 6 35
M  V30 39 1 7 36 CFG=1
M  V30 40 1 8 37
M  V30 41 1 8 38
M  V30 42 1 9 39
M  V30 43 1 14 40
M  V30 44 1 17 41
M  V30 45 1 17 42
M  V30 46 1 17 43
M  V30 47 1 18 44
M  V30 48 1 19 45
M  V30 49 1 22 46
M  V30 50 1 23 47
M  V30 END BOND
M  V30 END CTAB
M  END
>  <Dataset>  (194) 
ChEMBL_Kinases

>  <Ligand_Instance>  (194) 
nan

>  <PDB_ID>  (194) 
nan

>  <Standardized_SMILES>  (194) 
CN1CCNC[C@H]1CNc1nc(-c2cnn(C)c2)cc2nccnc12

>  <Name>  (194) 
nan

>  <Pocket>  (194) 
nan

>  <ATP_Site>  (194) 
nan

>  <Peripheral>  (194) 
nan

>  <Num_H_Atoms_ProtBoundConf>  (194) 
nan

>  <Num_Resolved_Atoms>  (194) 
nan

>  <Num_Not_Resolved_Atoms>  (194) 
nan

$$$$
CHEMBL4455093
     RDKit          3D

  0  0  0  0  0  0  0  0  0  0999 V3000
M  V30 BEGIN CTAB
M  V30 COUNTS 46 49 0 0 0
M  V30 BEGIN ATOM
M  V30 1 C 3.199731 -1.565585 -2.093173 0
M  V30 2 N 2.502781 -0.311436 -2.294989 0
M  V30 3 C 1.301845 -0.452526 -3.049883 0
M  V30 4 C 0.750150 0.896663 -3.402651 0
M  V30 5 N 0.769517 1.854961 -2.327778 0
M  V30 6 C 1.997031 1.885995 -1.589346 0
M  V30 7 C 2.433993 0.495865 -1.142191 0 CFG=1
M  V30 8 C 1.556466 0.012371 -0.011487 0
M  V30 9 O 0.212410 -0.125268 -0.326298 0
M  V30 10 C -0.659015 -0.488156 0.696231 0
M  V30 11 N -0.308399 -0.705634 1.949970 0
M  V30 12 C -1.170814 -1.045391 2.933619 0
M  V30 13 C -0.583657 -1.237923 4.200445 0
M  V30 14 C -1.261971 -1.573055 5.410725 0
M  V30 15 N -0.385142 -1.680196 6.426549 0
M  V30 16 N 0.833257 -1.448295 6.014659 0
M  V30 17 C 1.921132 -1.525712 6.953993 0
M  V30 18 C 0.673853 -1.200241 4.736578 0
M  V30 19 C -2.492404 -1.175768 2.615179 0
M  V30 20 C -2.938779 -0.966464 1.323241 0
M  V30 21 N -4.261859 -1.142222 1.195726 0
M  V30 22 C -4.734381 -0.942904 -0.095284 0
M  V30 23 C -3.845044 -0.594054 -1.106822 0
M  V30 24 N -2.525754 -0.442513 -0.860243 0
M  V30 25 C -1.992006 -0.621474 0.378452 0
M  V30 26 H 3.695310 -1.592307 -1.083055 0
M  V30 27 H 3.992955 -1.685452 -2.867278 0
M  V30 28 H 2.529779 -2.427775 -2.147670 0
M  V30 29 H 0.539031 -1.018779 -2.496927 0
M  V30 30 H 1.550962 -0.954872 -4.012720 0
M  V30 31 H 1.233316 1.327022 -4.318391 0
M  V30 32 H -0.312137 0.759708 -3.690529 0
M  V30 33 H -0.011133 1.759738 -1.664123 0
M  V30 34 H 1.848512 2.475594 -0.688682 0
M  V30 35 H 2.849450 2.319727 -2.150738 0
M  V30 36 H 3.444980 0.639725 -0.719513 0
M  V30 37 H 1.962829 -0.986043 0.271503 0
M  V30 38 H 1.653725 0.752990 0.808323 0
M  V30 39 H -2.339417 -1.726134 5.539413 0
M  V30 40 H 2.920704 -1.654022 6.493676 0
M  V30 41 H 1.949176 -0.635508 7.617073 0
M  V30 42 H 1.792824 -2.469745 7.570578 0
M  V30 43 H 1.550374 -0.964651 4.104845 0
M  V30 44 H -3.148555 -1.438929 3.434509 0
M  V30 45 H -5.736050 -1.009854 -0.513943 0
M  V30 46 H -4.071280 -0.417938 -2.133671 0
M  V30 END ATOM
M  V30 BEGIN BOND
M  V30 1 1 1 2
M  V30 2 1 2 3
M  V30 3 1 3 4
M  V30 4 1 4 5
M  V30 5 1 5 6
M  V30 6 1 6 7
M  V30 7 1 7 8
M  V30 8 1 8 9
M  V30 9 1 9 10
M  V30 10 2 10 11
M  V30 11 1 11 12
M  V30 12 1 12 13
M  V30 13 1 13 14
M  V30 14 2 14 15
M  V30 15 1 15 16
M  V30 16 1 16 17
M  V30 17 1 16 18
M  V30 18 2 12 19
M  V30 19 1 19 20
M  V30 20 2 20 21
M  V30 21 1 21 22
M  V30 22 2 22 23
M  V30 23 1 23 24
M  V30 24 2 24 25
M  V30 25 1 7 2
M  V30 26 1 25 10
M  V30 27 2 18 13
M  V30 28 1 25 20
M  V30 29 1 1 26
M  V30 30 1 1 27
M  V30 31 1 1 28
M  V30 32 1 3 29
M  V30 33 1 3 30
M  V30 34 1 4 31
M  V30 35 1 4 32
M  V30 36 1 5 33
M  V30 37 1 6 34
M  V30 38 1 6 35
M  V30 39 1 7 36 CFG=1
M  V30 40 1 8 37
M  V30 41 1 8 38
M  V30 42 1 14 39
M  V30 43 1 17 40
M  V30 44 1 17 41
M  V30 45 1 17 42
M  V30 46 1 18 43
M  V30 47 1 19 44
M  V30 48 1 22 45
M  V30 49 1 23 46
M  V30 END BOND
M  V30 END CTAB
M  END
>  <Dataset>  (195) 
ChEMBL_Kinases

>  <Ligand_Instance>  (195) 
nan

>  <PDB_ID>  (195) 
nan

>  <Standardized_SMILES>  (195) 
CN1CCNC[C@H]1COc1nc(-c2cnn(C)c2)cc2nccnc12

>  <Name>  (195) 
nan

>  <Pocket>  (195) 
nan

>  <ATP_Site>  (195) 
nan

>  <Peripheral>  (195) 
nan

>  <Num_H_Atoms_ProtBoundConf>  (195) 
nan

>  <Num_Resolved_Atoms>  (195) 
nan

>  <Num_Not_Resolved_Atoms>  (195) 
nan

$$$$
CHEMBL4455046
     RDKit          3D

  0  0  0  0  0  0  0  0  0  0999 V3000
M  V30 BEGIN CTAB
M  V30 COUNTS 32 34 0 0 0
M  V30 BEGIN ATOM
M  V30 1 O -0.892218 -3.340932 5.184977 0
M  V30 2 C -1.393351 -4.048525 4.255054 0
M  V30 3 O -2.019747 -5.228650 4.570516 0
M  V30 4 C -1.278931 -3.570500 2.885560 0
M  V30 5 C -0.638420 -2.376888 2.627126 0
M  V30 6 C -0.557115 -1.972752 1.332505 0
M  V30 7 C -1.059354 -2.649883 0.242514 0
M  V30 8 N -0.985097 -2.246248 -1.112358 0
M  V30 9 C -0.295440 -0.953527 -1.400187 0
M  V30 10 N 0.242908 -0.076599 -0.956919 0
M  V30 11 C 0.769932 0.981113 -1.531278 0
M  V30 12 C 1.446520 2.048537 -0.798853 0
M  V30 13 C 1.619952 2.088608 0.568574 0
M  V30 14 C 2.255648 3.089258 1.271595 0
M  V30 15 C 2.769837 4.152550 0.558795 0
M  V30 16 C 2.606151 4.130456 -0.811218 0
M  V30 17 N 1.972625 3.115633 -1.423059 0
M  V30 18 C 0.648247 1.037275 -2.919041 0
M  V30 19 S -0.289354 -0.575794 -3.256731 0
M  V30 20 C -1.685166 -3.832900 0.578859 0
M  V30 21 C -1.811370 -4.314984 1.863058 0
M  V30 22 H -2.439323 -5.382475 5.476850 0
M  V30 23 H -0.217939 -1.790314 3.440967 0
M  V30 24 H -0.049774 -1.034481 1.163500 0
M  V30 25 H -1.404965 -2.855970 -1.824341 0
M  V30 26 H 1.215036 1.246924 1.151087 0
M  V30 27 H 2.340555 3.029132 2.343211 0
M  V30 28 H 3.273329 4.950926 1.086295 0
M  V30 29 H 2.995769 4.946977 -1.405858 0
M  V30 30 H 1.004129 1.805511 -3.580419 0
M  V30 31 H -2.118568 -4.446518 -0.215091 0
M  V30 32 H -2.326619 -5.269261 2.041687 0
M  V30 END ATOM
M  V30 BEGIN BOND
M  V30 1 2 1 2
M  V30 2 1 2 3
M  V30 3 1 2 4
M  V30 4 2 4 5
M  V30 5 1 5 6
M  V30 6 2 6 7
M  V30 7 1 7 8
M  V30 8 1 8 9
M  V30 9 2 9 10
M  V30 10 1 10 11
M  V30 11 1 11 12
M  V30 12 2 12 13
M  V30 13 1 13 14
M  V30 14 2 14 15
M  V30 15 1 15 16
M  V30 16 2 16 17
M  V30 17 2 11 18
M  V30 18 1 18 19
M  V30 19 1 7 20
M  V30 20 2 20 21
M  V30 21 1 21 4
M  V30 22 1 19 9
M  V30 23 1 17 12
M  V30 24 1 3 22
M  V30 25 1 5 23
M  V30 26 1 6 24
M  V30 27 1 8 25
M  V30 28 1 13 26
M  V30 29 1 14 27
M  V30 30 1 15 28
M  V30 31 1 16 29
M  V30 32 1 18 30
M  V30 33 1 20 31
M  V30 34 1 21 32
M  V30 END BOND
M  V30 END CTAB
M  END
>  <Dataset>  (196) 
ChEMBL_Kinases

>  <Ligand_Instance>  (196) 
nan

>  <PDB_ID>  (196) 
nan

>  <Standardized_SMILES>  (196) 
O=C(O)c1ccc(Nc2nc(-c3ccccn3)cs2)cc1

>  <Name>  (196) 
nan

>  <Pocket>  (196) 
nan

>  <ATP_Site>  (196) 
nan

>  <Peripheral>  (196) 
nan

>  <Num_H_Atoms_ProtBoundConf>  (196) 
nan

>  <Num_Resolved_Atoms>  (196) 
nan

>  <Num_Not_Resolved_Atoms>  (196) 
nan

$$$$
CHEMBL4455044
     RDKit          3D

  0  0  0  0  0  0  0  0  0  0999 V3000
M  V30 BEGIN CTAB
M  V30 COUNTS 50 54 0 0 0
M  V30 BEGIN ATOM
M  V30 1 C 5.819913 -3.387365 2.034747 0
M  V30 2 C 4.420337 -2.958848 2.314125 0
M  V30 3 C 3.814100 -3.448880 3.464181 0
M  V30 4 C 2.516958 -3.084659 3.775478 0
M  V30 5 C 1.907236 -2.222391 2.870436 0
M  V30 6 C 2.494913 -1.720802 1.715039 0
M  V30 7 C 1.745757 -0.818407 0.844650 0
M  V30 8 N 2.002590 0.448190 0.486632 0
M  V30 9 N 1.086155 0.942795 -0.326017 0
M  V30 10 C 1.288673 2.313378 -0.777662 0
M  V30 11 C 0.702999 3.326643 0.133194 0
M  V30 12 S 1.974914 4.040646 0.941695 0
M  V30 13 N -0.578029 3.808873 0.479489 0
M  V30 14 C -1.899186 3.531226 0.086485 0
M  V30 15 C -3.007959 4.106526 0.720049 0
M  V30 16 C -4.296694 3.865569 0.350726 0
M  V30 17 C -4.562680 3.026151 -0.685559 0
M  V30 18 C -3.541104 2.415616 -1.367323 0
M  V30 19 C -3.824671 1.531288 -2.460478 0
M  V30 20 N -4.062067 0.798608 -3.337173 0
M  V30 21 C -2.256231 2.696646 -0.949505 0
M  V30 22 C 0.208918 -0.061878 -0.488012 0
M  V30 23 C 0.574647 -1.177917 0.219131 0
M  V30 24 C -0.195887 -2.415396 0.226288 0
M  V30 25 C -1.489124 -2.285190 0.688298 0
M  V30 26 C -2.296893 -3.393797 0.735179 0
M  V30 27 C -1.803853 -4.594140 0.325227 0
M  V30 28 N -2.486486 -5.909196 0.287457 0
M  V30 29 S -1.443993 -7.048637 -0.295556 0
M  V30 30 N 0.028759 -5.963914 -0.571031 0
M  V30 31 C -0.563659 -4.783038 -0.131079 0
M  V30 32 C 0.238309 -3.661306 -0.173450 0
M  V30 33 N 3.749279 -2.141824 1.518707 0
M  V30 34 H 6.243864 -2.635153 1.305570 0
M  V30 35 H 6.438207 -3.395494 2.953206 0
M  V30 36 H 5.784847 -4.343336 1.495972 0
M  V30 37 H 4.317687 -4.116540 4.143989 0
M  V30 38 H 1.986034 -3.424832 4.646774 0
M  V30 39 H 0.873969 -1.902483 3.074349 0
M  V30 40 H 0.790890 2.444489 -1.791355 0
M  V30 41 H 2.356415 2.466950 -1.006659 0
M  V30 42 H -0.543602 4.572826 1.217800 0
M  V30 43 H -2.791239 4.769602 1.540376 0
M  V30 44 H -5.064417 4.363016 0.910016 0
M  V30 45 H -5.593378 2.872116 -0.934172 0
M  V30 46 H -1.511547 2.204717 -1.519624 0
M  V30 47 H -0.650129 0.079086 -1.121252 0
M  V30 48 H -1.965103 -1.370347 1.034495 0
M  V30 49 H -3.309813 -3.423759 1.070002 0
M  V30 50 H 1.272896 -3.576865 -0.504589 0
M  V30 END ATOM
M  V30 BEGIN BOND
M  V30 1 1 1 2
M  V30 2 2 2 3
M  V30 3 1 3 4
M  V30 4 2 4 5
M  V30 5 1 5 6
M  V30 6 1 6 7
M  V30 7 2 7 8
M  V30 8 1 8 9
M  V30 9 1 9 10
M  V30 10 1 10 11
M  V30 11 2 11 12
M  V30 12 1 11 13
M  V30 13 1 13 14
M  V30 14 2 14 15
M  V30 15 1 15 16
M  V30 16 2 16 17
M  V30 17 1 17 18
M  V30 18 1 18 19
M  V30 19 3 19 20
M  V30 20 2 18 21
M  V30 21 1 9 22
M  V30 22 2 22 23
M  V30 23 1 23 24
M  V30 24 1 24 25
M  V30 25 2 25 26
M  V30 26 1 26 27
M  V30 27 2 27 28
M  V30 28 1 28 29
M  V30 29 1 29 30
M  V30 30 2 30 31
M  V30 31 1 31 32
M  V30 32 2 6 33
M  V30 33 1 33 2
M  V30 34 1 23 7
M  V30 35 2 32 24
M  V30 36 1 21 14
M  V30 37 1 31 27
M  V30 38 1 1 34
M  V30 39 1 1 35
M  V30 40 1 1 36
M  V30 41 1 3 37
M  V30 42 1 4 38
M  V30 43 1 5 39
M  V30 44 1 10 40
M  V30 45 1 10 41
M  V30 46 1 13 42
M  V30 47 1 15 43
M  V30 48 1 16 44
M  V30 49 1 17 45
M  V30 50 1 21 46
M  V30 51 1 22 47
M  V30 52 1 25 48
M  V30 53 1 26 49
M  V30 54 1 32 50
M  V30 END BOND
M  V30 END CTAB
M  END
>  <Dataset>  (197) 
ChEMBL_Kinases

>  <Ligand_Instance>  (197) 
nan

>  <PDB_ID>  (197) 
nan

>  <Standardized_SMILES>  (197) 
Cc1cccc(-c2nn(CC(=S)Nc3cccc(C#N)c3)cc2-c2ccc3nsnc3c2)n1

>  <Name>  (197) 
nan

>  <Pocket>  (197) 
nan

>  <ATP_Site>  (197) 
nan

>  <Peripheral>  (197) 
nan

>  <Num_H_Atoms_ProtBoundConf>  (197) 
nan

>  <Num_Resolved_Atoms>  (197) 
nan

>  <Num_Not_Resolved_Atoms>  (197) 
nan

$$$$
CHEMBL4455428
     RDKit          3D

  0  0  0  0  0  0  0  0  0  0999 V3000
M  V30 BEGIN CTAB
M  V30 COUNTS 41 44 0 0 0
M  V30 BEGIN ATOM
M  V30 1 C 1.782791 -6.380417 1.856504 0
M  V30 2 C 1.729183 -5.079792 1.140107 0
M  V30 3 C 1.433757 -5.128041 -0.206234 0
M  V30 4 C 1.379836 -3.916947 -0.893304 0
M  V30 5 C 1.614149 -2.717867 -0.245556 0
M  V30 6 C 1.551008 -1.462101 -0.993189 0
M  V30 7 C 1.884252 -1.300936 -2.323966 0
M  V30 8 N 1.787414 -0.089638 -2.915438 0
M  V30 9 C 1.361825 0.996177 -2.219968 0
M  V30 10 N 1.176499 2.285397 -2.551232 0
M  V30 11 C 0.732797 3.002570 -1.503415 0
M  V30 12 C 0.625376 2.134155 -0.440145 0
M  V30 13 N 0.205322 2.353708 0.909167 0
M  V30 14 C -1.192559 2.173501 1.087907 0
M  V30 15 O -1.776759 1.853612 0.004450 0
M  V30 16 C -1.873283 2.338023 2.369572 0
M  V30 17 C -1.203774 2.685212 3.523276 0
M  V30 18 C -1.901408 2.830330 4.725842 0
M  V30 19 C -3.259121 2.602359 4.645133 0
M  V30 20 N -3.900479 2.263913 3.512164 0
M  V30 21 C -3.252146 2.117860 2.341460 0
M  V30 22 C 1.015373 0.882921 -0.878598 0
M  V30 23 C 1.116038 -0.358039 -0.277993 0
M  V30 24 C 1.907641 -2.708544 1.105993 0
M  V30 25 C 1.968456 -3.897256 1.816838 0
M  V30 26 H 0.788018 -6.877002 1.860271 0
M  V30 27 H 2.537282 -7.058092 1.407914 0
M  V30 28 H 2.032874 -6.216902 2.923756 0
M  V30 29 H 1.244068 -6.053017 -0.746872 0
M  V30 30 H 1.144522 -3.954491 -1.966718 0
M  V30 31 H 2.218996 -2.197631 -2.837834 0
M  V30 32 H 1.335446 2.741430 -3.480720 0
M  V30 33 H 0.480749 4.048543 -1.404552 0
M  V30 34 H 0.798264 2.618913 1.726810 0
M  V30 35 H -0.142304 2.848844 3.516821 0
M  V30 36 H -1.372245 3.101997 5.625207 0
M  V30 37 H -3.792027 2.720251 5.597822 0
M  V30 38 H -3.771462 1.846151 1.435922 0
M  V30 39 H 0.842854 -0.441163 0.774630 0
M  V30 40 H 2.099024 -1.792121 1.657588 0
M  V30 41 H 2.196587 -3.911920 2.875663 0
M  V30 END ATOM
M  V30 BEGIN BOND
M  V30 1 1 1 2
M  V30 2 2 2 3
M  V30 3 1 3 4
M  V30 4 2 4 5
M  V30 5 1 5 6
M  V30 6 2 6 7
M  V30 7 1 7 8
M  V30 8 2 8 9
M  V30 9 1 9 10
M  V30 10 1 10 11
M  V30 11 2 11 12
M  V30 12 1 12 13
M  V30 13 1 13 14
M  V30 14 2 14 15
M  V30 15 1 14 16
M  V30 16 2 16 17
M  V30 17 1 17 18
M  V30 18 2 18 19
M  V30 19 1 19 20
M  V30 20 2 20 21
M  V30 21 1 12 22
M  V30 22 2 22 23
M  V30 23 1 5 24
M  V30 24 2 24 25
M  V30 25 1 25 2
M  V30 26 1 23 6
M  V30 27 1 22 9
M  V30 28 1 21 16
M  V30 29 1 1 26
M  V30 30 1 1 27
M  V30 31 1 1 28
M  V30 32 1 3 29
M  V30 33 1 4 30
M  V30 34 1 7 31
M  V30 35 1 10 32
M  V30 36 1 11 33
M  V30 37 1 13 34
M  V30 38 1 17 35
M  V30 39 1 18 36
M  V30 40 1 19 37
M  V30 41 1 21 38
M  V30 42 1 23 39
M  V30 43 1 24 40
M  V30 44 1 25 41
M  V30 END BOND
M  V30 END CTAB
M  END
>  <Dataset>  (198) 
ChEMBL_Kinases

>  <Ligand_Instance>  (198) 
nan

>  <PDB_ID>  (198) 
nan

>  <Standardized_SMILES>  (198) 
Cc1ccc(-c2cnc3[nH]cc(NC(=O)c4cccnc4)c3c2)cc1

>  <Name>  (198) 
nan

>  <Pocket>  (198) 
nan

>  <ATP_Site>  (198) 
nan

>  <Peripheral>  (198) 
nan

>  <Num_H_Atoms_ProtBoundConf>  (198) 
nan

>  <Num_Resolved_Atoms>  (198) 
nan

>  <Num_Not_Resolved_Atoms>  (198) 
nan

$$$$
CHEMBL4745919
     RDKit          3D

  0  0  0  0  0  0  0  0  0  0999 V3000
M  V30 BEGIN CTAB
M  V30 COUNTS 47 50 0 0 0
M  V30 BEGIN ATOM
M  V30 1 C 4.310854 -4.179364 -4.157919 0
M  V30 2 C 4.026027 -4.522603 -2.929169 0
M  V30 3 C 3.891986 -3.662592 -1.750507 0
M  V30 4 O 3.625331 -3.925626 -0.564963 0
M  V30 5 N 4.096392 -2.284015 -1.968348 0
M  V30 6 C 3.974956 -1.403270 -0.835691 0
M  V30 7 C 5.186815 -1.217070 -0.164383 0
M  V30 8 C 5.129147 -0.377585 0.938922 0
M  V30 9 C 3.942529 0.225111 1.331888 0
M  V30 10 C 2.781003 0.007994 0.636714 0
M  V30 11 C 1.517009 0.667202 1.076534 0
M  V30 12 S 1.524456 1.689398 2.451352 0
M  V30 13 N -0.297097 2.102648 2.362790 0
M  V30 14 C -0.619919 1.364981 1.257727 0
M  V30 15 C -1.934540 1.401261 0.837191 0
M  V30 16 C -2.375913 0.693270 -0.274706 0
M  V30 17 C -3.753272 0.707485 -0.757239 0
M  V30 18 C -4.759880 0.853447 0.168859 0
M  V30 19 C -6.038079 0.863228 -0.361830 0
M  V30 20 C -6.300646 0.736072 -1.726743 0
M  V30 21 N -7.682202 0.770562 -2.072196 0
M  V30 22 C -5.237189 0.589391 -2.629929 0
M  V30 23 O -5.709341 0.481356 -3.914202 0
M  V30 24 C -4.798101 0.324757 -4.974600 0
M  V30 25 C -3.958324 0.578106 -2.111886 0
M  V30 26 C -1.442470 -0.058841 -0.954410 0
M  V30 27 N -0.175560 -0.065902 -0.511001 0
M  V30 28 C 0.282896 0.602234 0.552691 0
M  V30 29 C 2.789925 -0.819232 -0.467070 0
M  V30 30 H 4.369655 -4.950159 -4.906586 0
M  V30 31 H 4.477300 -3.138827 -4.378538 0
M  V30 32 H 3.846789 -5.548840 -2.628994 0
M  V30 33 H 4.330206 -1.785759 -2.855148 0
M  V30 34 H 6.114884 -1.683441 -0.466423 0
M  V30 35 H 6.043263 -0.201043 1.492006 0
M  V30 36 H 4.002899 0.853255 2.193794 0
M  V30 37 H -2.763287 1.955297 1.288454 0
M  V30 38 H -4.589011 0.952514 1.224269 0
M  V30 39 H -6.846995 0.977794 0.374280 0
M  V30 40 H -8.386890 1.367511 -2.521130 0
M  V30 41 H -8.069559 -0.142514 -1.734360 0
M  V30 42 H -4.579464 -0.763078 -5.092504 0
M  V30 43 H -5.173604 0.758691 -5.925035 0
M  V30 44 H -3.852774 0.852042 -4.752647 0
M  V30 45 H -3.205108 0.461302 -2.873539 0
M  V30 46 H -1.697576 -0.644563 -1.834718 0
M  V30 47 H 1.910643 -1.027252 -1.051647 0
M  V30 END ATOM
M  V30 BEGIN BOND
M  V30 1 2 1 2
M  V30 2 1 2 3
M  V30 3 2 3 4
M  V30 4 1 3 5
M  V30 5 1 5 6
M  V30 6 2 6 7
M  V30 7 1 7 8
M  V30 8 2 8 9
M  V30 9 1 9 10
M  V30 10 1 10 11
M  V30 11 1 11 12
M  V30 12 1 12 13
M  V30 13 2 13 14
M  V30 14 1 14 15
M  V30 15 2 15 16
M  V30 16 1 16 17
M  V30 17 2 17 18
M  V30 18 1 18 19
M  V30 19 2 19 20
M  V30 20 1 20 21
M  V30 21 1 20 22
M  V30 22 1 22 23
M  V30 23 1 23 24
M  V30 24 2 22 25
M  V30 25 1 16 26
M  V30 26 2 26 27
M  V30 27 1 27 28
M  V30 28 2 10 29
M  V30 29 1 29 6
M  V30 30 2 28 11
M  V30 31 1 28 14
M  V30 32 1 25 17
M  V30 33 1 1 30
M  V30 34 1 1 31
M  V30 35 1 2 32
M  V30 36 1 5 33
M  V30 37 1 7 34
M  V30 38 1 8 35
M  V30 39 1 9 36
M  V30 40 1 15 37
M  V30 41 1 18 38
M  V30 42 1 19 39
M  V30 43 1 21 40
M  V30 44 1 21 41
M  V30 45 1 24 42
M  V30 46 1 24 43
M  V30 47 1 24 44
M  V30 48 1 25 45
M  V30 49 1 26 46
M  V30 50 1 29 47
M  V30 END BOND
M  V30 END CTAB
M  END
>  <Dataset>  (199) 
ChEMBL_Kinases

>  <Ligand_Instance>  (199) 
nan

>  <PDB_ID>  (199) 
nan

>  <Standardized_SMILES>  (199) 
C=CC(=O)Nc1cccc(-c2snc3cc(-c4ccc(N)c(OC)c4)cnc23)c1

>  <Name>  (199) 
nan

>  <Pocket>  (199) 
nan

>  <ATP_Site>  (199) 
nan

>  <Peripheral>  (199) 
nan

>  <Num_H_Atoms_ProtBoundConf>  (199) 
nan

>  <Num_Resolved_Atoms>  (199) 
nan

>  <Num_Not_Resolved_Atoms>  (199) 
nan

$$$$
CHEMBL4456947
     RDKit          3D

  0  0  0  0  0  0  0  0  0  0999 V3000
M  V30 BEGIN CTAB
M  V30 COUNTS 37 40 0 0 0
M  V30 BEGIN ATOM
M  V30 1 C 0.369170 -4.293418 0.404195 0
M  V30 2 N 1.468173 -3.753268 1.134671 0
M  V30 3 C 1.115878 -2.576575 1.848574 0
M  V30 4 C 0.585794 -1.430512 1.053599 0
M  V30 5 C 1.350170 -1.185380 -0.196884 0
M  V30 6 C 2.281383 -2.156888 -0.428718 0
M  V30 7 S 3.086371 -1.635870 -1.955882 0
M  V30 8 C 2.086763 -0.140075 -2.154055 0
M  V30 9 N 2.137403 0.748313 -3.127899 0
M  V30 10 C 1.316185 1.789705 -3.156711 0
M  V30 11 N 0.508171 1.793071 -2.138237 0
M  V30 12 C 0.390720 0.942539 -1.115658 0
M  V30 13 N -0.625334 1.263452 -0.223584 0
M  V30 14 C -1.312744 1.239713 0.991393 0
M  V30 15 C -2.561476 0.761979 1.409010 0
M  V30 16 C -2.967608 0.918439 2.713743 0
M  V30 17 C -2.138275 1.551716 3.607710 0
M  V30 18 F -2.641967 1.648328 4.845839 0
M  V30 19 C -0.895877 2.052182 3.279712 0
M  V30 20 C -0.503975 1.879650 1.947308 0
M  V30 21 Br 1.239954 2.620412 1.631792 0
M  V30 22 C 1.233246 -0.142169 -1.071408 0
M  V30 23 C 2.605152 -3.376444 0.300177 0
M  V30 24 H 0.176969 -3.844359 -0.574627 0
M  V30 25 H -0.553070 -4.106053 1.023448 0
M  V30 26 H 0.427385 -5.405133 0.324901 0
M  V30 27 H 1.943299 -2.249734 2.517434 0
M  V30 28 H 0.267369 -2.875323 2.536222 0
M  V30 29 H -0.478413 -1.599704 0.780665 0
M  V30 30 H 0.718639 -0.549853 1.754048 0
M  V30 31 H 1.393057 2.472288 -3.964207 0
M  V30 32 H -1.407692 1.897066 -0.593786 0
M  V30 33 H -3.050078 0.296798 0.548916 0
M  V30 34 H -3.948968 0.493643 2.875748 0
M  V30 35 H -0.327757 2.536336 4.053488 0
M  V30 36 H 3.477784 -3.325724 0.976197 0
M  V30 37 H 2.831847 -4.215575 -0.414163 0
M  V30 END ATOM
M  V30 BEGIN BOND
M  V30 1 1 1 2
M  V30 2 1 2 3
M  V30 3 1 3 4
M  V30 4 1 4 5
M  V30 5 2 5 6
M  V30 6 1 6 7
M  V30 7 1 7 8
M  V30 8 2 8 9
M  V30 9 1 9 10
M  V30 10 2 10 11
M  V30 11 1 11 12
M  V30 12 1 12 13
M  V30 13 1 13 14
M  V30 14 2 14 15
M  V30 15 1 15 16
M  V30 16 2 16 17
M  V30 17 1 17 18
M  V30 18 1 17 19
M  V30 19 2 19 20
M  V30 20 1 20 21
M  V30 21 2 12 22
M  V30 22 1 6 23
M  V30 23 1 23 2
M  V30 24 1 22 5
M  V30 25 1 22 8
M  V30 26 1 20 14
M  V30 27 1 1 24
M  V30 28 1 1 25
M  V30 29 1 1 26
M  V30 30 1 3 27
M  V30 31 1 3 28
M  V30 32 1 4 29
M  V30 33 1 4 30
M  V30 34 1 10 31
M  V30 35 1 13 32
M  V30 36 1 15 33
M  V30 37 1 16 34
M  V30 38 1 19 35
M  V30 39 1 23 36
M  V30 40 1 23 37
M  V30 END BOND
M  V30 END CTAB
M  END
>  <Dataset>  (200) 
ChEMBL_Kinases

>  <Ligand_Instance>  (200) 
nan

>  <PDB_ID>  (200) 
nan

>  <Standardized_SMILES>  (200) 
CN1CCc2c(sc3ncnc(Nc4ccc(F)cc4Br)c23)C1

>  <Name>  (200) 
nan

>  <Pocket>  (200) 
nan

>  <ATP_Site>  (200) 
nan

>  <Peripheral>  (200) 
nan

>  <Num_H_Atoms_ProtBoundConf>  (200) 
nan

>  <Num_Resolved_Atoms>  (200) 
nan

>  <Num_Not_Resolved_Atoms>  (200) 
nan

$$$$
CHEMBL4456833
     RDKit          3D

  0  0  0  0  0  0  0  0  0  0999 V3000
M  V30 BEGIN CTAB
M  V30 COUNTS 48 51 0 0 0
M  V30 BEGIN ATOM
M  V30 1 N 1.724537 -5.580119 5.165750 0
M  V30 2 C 1.959098 -4.704968 4.456651 0
M  V30 3 C 2.271255 -3.620579 3.569044 0
M  V30 4 N 3.582365 -3.241263 3.541585 0
M  V30 5 C 4.004467 -2.237539 2.753443 0
M  V30 6 C 3.105024 -1.572834 1.954820 0
M  V30 7 N 3.516764 -0.519803 1.125542 0
M  V30 8 C 2.727007 0.255658 0.255508 0
M  V30 9 N 2.212743 1.334716 0.918618 0
M  V30 10 C 1.411406 2.228750 0.266295 0
M  V30 11 C 1.091377 2.075647 -1.086903 0
M  V30 12 C 0.238373 3.035566 -1.758169 0
M  V30 13 C -0.592187 2.665575 -2.796217 0
M  V30 14 C -1.397231 3.621186 -3.409982 0
M  V30 15 C -1.328398 4.918911 -2.945800 0
M  V30 16 C -0.506887 5.340143 -1.902863 0
M  V30 17 C 0.284200 4.345100 -1.316355 0
M  V30 18 C 1.640503 0.967877 -1.700474 0
M  V30 19 N 2.428260 0.093927 -1.048560 0
M  V30 20 C 1.778263 -1.946255 1.973350 0
M  V30 21 C 1.320218 -2.971953 2.772256 0
M  V30 22 O 0.062937 -3.490923 2.935655 0
M  V30 23 C -1.052776 -3.011249 2.246410 0
M  V30 24 C -1.712518 -4.217074 1.562486 0
M  V30 25 C -2.793277 -3.687137 0.637143 0
M  V30 26 C -3.406964 -2.439633 1.239077 0
M  V30 27 N -3.402610 -2.501502 2.692226 0
M  V30 28 C -2.088501 -2.536594 3.263398 0
M  V30 29 H 5.038785 -1.940951 2.734692 0
M  V30 30 H 4.496675 -0.227040 1.100659 0
M  V30 31 H 0.995190 3.092465 0.782959 0
M  V30 32 H -0.636130 1.637607 -3.151879 0
M  V30 33 H -2.068028 3.402987 -4.223628 0
M  V30 34 H -1.930935 5.723449 -3.378384 0
M  V30 35 H -0.483863 6.367253 -1.569940 0
M  V30 36 H 0.929809 4.678767 -0.497396 0
M  V30 37 H 1.436874 0.786281 -2.743350 0
M  V30 38 H 1.015684 -1.483669 1.385564 0
M  V30 39 H -0.866341 -2.195203 1.550041 0
M  V30 40 H -0.951847 -4.797827 1.011739 0
M  V30 41 H -2.173398 -4.794952 2.386024 0
M  V30 42 H -2.355182 -3.388867 -0.342111 0
M  V30 43 H -3.594030 -4.434961 0.512479 0
M  V30 44 H -4.484054 -2.397424 0.954175 0
M  V30 45 H -2.941979 -1.511833 0.886975 0
M  V30 46 H -3.939129 -1.633657 2.989332 0
M  V30 47 H -1.985291 -3.161392 4.165785 0
M  V30 48 H -1.836237 -1.491877 3.577056 0
M  V30 END ATOM
M  V30 BEGIN BOND
M  V30 1 3 1 2
M  V30 2 1 2 3
M  V30 3 2 3 4
M  V30 4 1 4 5
M  V30 5 2 5 6
M  V30 6 1 6 7
M  V30 7 1 7 8
M  V30 8 2 8 9
M  V30 9 1 9 10
M  V30 10 2 10 11
M  V30 11 1 11 12
M  V30 12 2 12 13
M  V30 13 1 13 14
M  V30 14 2 14 15
M  V30 15 1 15 16
M  V30 16 2 16 17
M  V30 17 1 11 18
M  V30 18 2 18 19
M  V30 19 1 6 20
M  V30 20 2 20 21
M  V30 21 1 21 22
M  V30 22 1 22 23
M  V30 23 1 23 24
M  V30 24 1 24 25
M  V30 25 1 25 26
M  V30 26 1 26 27
M  V30 27 1 27 28
M  V30 28 1 21 3
M  V30 29 1 28 23
M  V30 30 1 19 8
M  V30 31 1 17 12
M  V30 32 1 5 29
M  V30 33 1 7 30
M  V30 34 1 10 31
M  V30 35 1 13 32
M  V30 36 1 14 33
M  V30 37 1 15 34
M  V30 38 1 16 35
M  V30 39 1 17 36
M  V30 40 1 18 37
M  V30 41 1 20 38
M  V30 42 1 23 39
M  V30 43 1 24 40
M  V30 44 1 24 41
M  V30 45 1 25 42
M  V30 46 1 25 43
M  V30 47 1 26 44
M  V30 48 1 26 45
M  V30 49 1 27 46
M  V30 50 1 28 47
M  V30 51 1 28 48
M  V30 END BOND
M  V30 END CTAB
M  END
>  <Dataset>  (201) 
ChEMBL_Kinases

>  <Ligand_Instance>  (201) 
nan

>  <PDB_ID>  (201) 
nan

>  <Standardized_SMILES>  (201) 
N#Cc1ncc(Nc2ncc(-c3ccccc3)cn2)cc1OC1CCCNC1

>  <Name>  (201) 
nan

>  <Pocket>  (201) 
nan

>  <ATP_Site>  (201) 
nan

>  <Peripheral>  (201) 
nan

>  <Num_H_Atoms_ProtBoundConf>  (201) 
nan

>  <Num_Resolved_Atoms>  (201) 
nan

>  <Num_Not_Resolved_Atoms>  (201) 
nan

$$$$
CHEMBL445683
     RDKit          3D

  0  0  0  0  0  0  0  0  0  0999 V3000
M  V30 BEGIN CTAB
M  V30 COUNTS 80 85 0 0 0
M  V30 BEGIN ATOM
M  V30 1 C -4.920092 -2.614432 0.930126 0
M  V30 2 C -3.792190 -2.612740 -0.075859 0
M  V30 3 C -2.485612 -2.831650 0.664335 0
M  V30 4 C -2.258795 -1.709031 1.694290 0
M  V30 5 C -1.012186 -1.875301 2.436401 0
M  V30 6 S -0.854890 -0.503040 3.634151 0
M  V30 7 C -0.689797 1.005299 2.702205 0
M  V30 8 N 0.524159 1.395329 2.272618 0
M  V30 9 C 0.783647 2.503530 1.586175 0
M  V30 10 C 2.042198 2.867530 1.161722 0
M  V30 11 C 2.254413 4.030832 0.448282 0
M  V30 12 C 1.176149 4.846431 0.155507 0
M  V30 13 C -0.076318 4.493157 0.573120 0
M  V30 14 C -0.276707 3.324948 1.287230 0
M  V30 15 C -1.520241 2.925026 1.728443 0
M  V30 16 O -2.475448 3.709840 1.433384 0
M  V30 17 N -1.761408 1.796324 2.424208 0
M  V30 18 C -3.081740 1.491078 2.858880 0
M  V30 19 C -4.167145 1.619467 2.003557 0
M  V30 20 C -5.470632 1.330935 2.408936 0
M  V30 21 C -5.721741 0.898323 3.706750 0
M  V30 22 C -4.655445 0.771965 4.547264 0
M  V30 23 C -3.386370 1.060561 4.128210 0
M  V30 24 C 0.239329 -2.049749 1.763243 0
M  V30 25 O 1.145769 -1.191719 1.937453 0
M  V30 26 N 1.440174 -2.238325 1.103115 0
M  V30 27 C 2.703352 -1.538996 1.021915 0
M  V30 28 C 2.692393 -0.869329 -0.364290 0
M  V30 29 C 2.572397 -1.937921 -1.384378 0
M  V30 30 C 1.381938 -1.896601 -2.247760 0
M  V30 31 C 1.410899 -2.869404 -3.254863 0
M  V30 32 C 0.373223 -2.977977 -4.154335 0
M  V30 33 C -0.740823 -2.135966 -4.105432 0
M  V30 34 C -0.790844 -1.162820 -3.113690 0
M  V30 35 C 0.267025 -1.092801 -2.240015 0
M  V30 36 C 3.756649 -1.764577 -2.306997 0
M  V30 37 C 4.669002 -2.722033 -2.703848 0
M  V30 38 C 5.681812 -2.339529 -3.556420 0
M  V30 39 C 5.788116 -1.033658 -4.006591 0
M  V30 40 C 4.871726 -0.073649 -3.607624 0
M  V30 41 C 3.851838 -0.453092 -2.750819 0
M  V30 42 C 2.611774 -3.317365 -0.758976 0
M  V30 43 C 1.506972 -3.414967 0.273193 0
M  V30 44 H -5.245381 -1.572769 1.077556 0
M  V30 45 H -4.638418 -3.102836 1.877107 0
M  V30 46 H -5.812662 -3.181007 0.539985 0
M  V30 47 H -3.762483 -1.731736 -0.721426 0
M  V30 48 H -3.920680 -3.508688 -0.717875 0
M  V30 49 H -1.643084 -2.992184 0.002817 0
M  V30 50 H -2.627634 -3.754669 1.265197 0
M  V30 51 H -3.110257 -1.846595 2.388499 0
M  V30 52 H -2.432707 -0.723610 1.231847 0
M  V30 53 H -1.152274 -2.789602 3.107302 0
M  V30 54 H 2.882489 2.247195 1.381845 0
M  V30 55 H 3.213458 4.375133 0.085439 0
M  V30 56 H 1.292964 5.774209 -0.404330 0
M  V30 57 H -0.947576 5.099357 0.366455 0
M  V30 58 H -4.048907 1.949899 0.982019 0
M  V30 59 H -6.325238 1.424507 1.761470 0
M  V30 60 H -6.677583 0.647829 4.129908 0
M  V30 61 H -4.782207 0.434561 5.585857 0
M  V30 62 H -2.563342 0.945514 4.837121 0
M  V30 63 H 3.566244 -2.225789 1.138744 0
M  V30 64 H 2.864135 -0.758335 1.790955 0
M  V30 65 H 1.844942 -0.161881 -0.286257 0
M  V30 66 H 3.620706 -0.244737 -0.474433 0
M  V30 67 H 2.147193 -3.626192 -3.502633 0
M  V30 68 H 0.259516 -3.675118 -4.977629 0
M  V30 69 H -1.589735 -2.156671 -4.769021 0
M  V30 70 H -1.594363 -0.455568 -2.972573 0
M  V30 71 H 0.262389 -0.351082 -1.458097 0
M  V30 72 H 4.479020 -3.698592 -2.285678 0
M  V30 73 H 6.376176 -3.123220 -3.842390 0
M  V30 74 H 6.607522 -0.783465 -4.679831 0
M  V30 75 H 4.994379 0.948025 -3.988849 0
M  V30 76 H 3.183962 0.361840 -2.492402 0
M  V30 77 H 3.613984 -3.581735 -0.369218 0
M  V30 78 H 2.413662 -4.089246 -1.543357 0
M  V30 79 H 0.616242 -3.660845 -0.286248 0
M  V30 80 H 1.800435 -4.284344 0.933120 0
M  V30 END ATOM
M  V30 BEGIN BOND
M  V30 1 1 1 2
M  V30 2 1 2 3
M  V30 3 1 3 4
M  V30 4 1 4 5
M  V30 5 1 5 6
M  V30 6 1 6 7
M  V30 7 2 7 8
M  V30 8 1 8 9
M  V30 9 2 9 10
M  V30 10 1 10 11
M  V30 11 2 11 12
M  V30 12 1 12 13
M  V30 13 2 13 14
M  V30 14 1 14 15
M  V30 15 2 15 16
M  V30 16 1 15 17
M  V30 17 1 17 18
M  V30 18 2 18 19
M  V30 19 1 19 20
M  V30 20 2 20 21
M  V30 21 1 21 22
M  V30 22 2 22 23
M  V30 23 1 5 24
M  V30 24 2 24 25
M  V30 25 1 24 26
M  V30 26 1 26 27
M  V30 27 1 27 28
M  V30 28 1 28 29
M  V30 29 1 29 30
M  V30 30 2 30 31
M  V30 31 1 31 32
M  V30 32 2 32 33
M  V30 33 1 33 34
M  V30 34 2 34 35
M  V30 35 1 29 36
M  V30 36 2 36 37
M  V30 37 1 37 38
M  V30 38 2 38 39
M  V30 39 1 39 40
M  V30 40 2 40 41
M  V30 41 1 29 42
M  V30 42 1 42 43
M  V30 43 1 17 7
M  V30 44 1 23 18
M  V30 45 1 43 26
M  V30 46 1 14 9
M  V30 47 1 35 30
M  V30 48 1 41 36
M  V30 49 1 1 44
M  V30 50 1 1 45
M  V30 51 1 1 46
M  V30 52 1 2 47
M  V30 53 1 2 48
M  V30 54 1 3 49
M  V30 55 1 3 50
M  V30 56 1 4 51
M  V30 57 1 4 52
M  V30 58 1 5 53
M  V30 59 1 10 54
M  V30 60 1 11 55
M  V30 61 1 12 56
M  V30 62 1 13 57
M  V30 63 1 19 58
M  V30 64 1 20 59
M  V30 65 1 21 60
M  V30 66 1 22 61
M  V30 67 1 23 62
M  V30 68 1 27 63
M  V30 69 1 27 64
M  V30 70 1 28 65
M  V30 71 1 28 66
M  V30 72 1 31 67
M  V30 73 1 32 68
M  V30 74 1 33 69
M  V30 75 1 34 70
M  V30 76 1 35 71
M  V30 77 1 37 72
M  V30 78 1 38 73
M  V30 79 1 39 74
M  V30 80 1 40 75
M  V30 81 1 41 76
M  V30 82 1 42 77
M  V30 83 1 42 78
M  V30 84 1 43 79
M  V30 85 1 43 80
M  V30 END BOND
M  V30 END CTAB
M  END
>  <Dataset>  (202) 
ChEMBL_Kinases

>  <Ligand_Instance>  (202) 
nan

>  <PDB_ID>  (202) 
nan

>  <Standardized_SMILES>  (202) 
CCCCC(Sc1nc2ccccc2c(=O)n1-c1ccccc1)C(=O)N1CCC(c2ccccc2)(c2ccccc2)CC1

>  <Name>  (202) 
nan

>  <Pocket>  (202) 
nan

>  <ATP_Site>  (202) 
nan

>  <Peripheral>  (202) 
nan

>  <Num_H_Atoms_ProtBoundConf>  (202) 
nan

>  <Num_Resolved_Atoms>  (202) 
nan

>  <Num_Not_Resolved_Atoms>  (202) 
nan

$$$$
CHEMBL4456826
     RDKit          3D

  0  0  0  0  0  0  0  0  0  0999 V3000
M  V30 BEGIN CTAB
M  V30 COUNTS 42 44 0 0 0
M  V30 BEGIN ATOM
M  V30 1 C 0.884340 -4.591127 1.265902 0
M  V30 2 C 1.063073 -3.060964 1.047572 0
M  V30 3 C 1.306357 -2.508715 2.424318 0
M  V30 4 C 2.243741 -2.945566 0.123622 0
M  V30 5 C 2.670819 -1.627256 -0.280700 0
M  V30 6 N 3.669506 -0.914342 0.396498 0
M  V30 7 O 2.661461 -0.592907 -0.999244 0
M  V30 8 N -0.172480 -2.580288 0.526652 0
M  V30 9 C -0.557940 -1.221788 0.391903 0
M  V30 10 N 0.175767 -0.166894 0.779658 0
M  V30 11 C -0.151374 1.109609 0.694789 0
M  V30 12 C 0.706230 2.198130 1.152824 0
M  V30 13 C 1.937955 2.013101 1.743207 0
M  V30 14 C 2.729195 3.065936 2.173562 0
M  V30 15 N 2.289921 4.327866 2.015402 0
M  V30 16 C 1.091135 4.585755 1.444575 0
M  V30 17 C 0.336181 3.520200 1.031202 0
M  V30 18 N -1.344130 1.451133 0.167850 0
M  V30 19 C -2.176262 0.486892 -0.260139 0
M  V30 20 C -3.392853 0.839279 -0.798090 0
M  V30 21 N -4.249184 -0.107445 -1.237380 0
M  V30 22 C -3.898192 -1.411442 -1.142856 0
M  V30 23 C -2.677871 -1.743178 -0.602164 0
M  V30 24 C -1.764203 -0.821521 -0.138023 0
M  V30 25 H -0.002091 -4.756359 1.912246 0
M  V30 26 H 0.704580 -5.039952 0.288760 0
M  V30 27 H 1.791575 -4.957163 1.747235 0
M  V30 28 H 2.207954 -2.943985 2.904355 0
M  V30 29 H 1.283273 -1.415243 2.454629 0
M  V30 30 H 0.417716 -2.840155 3.039365 0
M  V30 31 H 3.134753 -3.433889 0.622506 0
M  V30 32 H 2.090138 -3.565800 -0.785630 0
M  V30 33 H 4.453762 -0.353826 0.827646 0
M  V30 34 H 3.896814 -0.753663 1.414864 0
M  V30 35 H -0.858846 -3.293769 0.213034 0
M  V30 36 H 2.306666 1.009101 1.881161 0
M  V30 37 H 3.695020 2.916719 2.635139 0
M  V30 38 H 0.788123 5.613427 1.342087 0
M  V30 39 H -0.619205 3.757436 0.576851 0
M  V30 40 H -3.663063 1.883900 -0.869287 0
M  V30 41 H -4.627356 -2.116879 -1.511168 0
M  V30 42 H -2.516113 -2.806909 -0.583021 0
M  V30 END ATOM
M  V30 BEGIN BOND
M  V30 1 1 1 2
M  V30 2 1 2 3
M  V30 3 1 2 4
M  V30 4 1 4 5
M  V30 5 1 5 6
M  V30 6 2 5 7
M  V30 7 1 2 8
M  V30 8 1 8 9
M  V30 9 2 9 10
M  V30 10 1 10 11
M  V30 11 1 11 12
M  V30 12 2 12 13
M  V30 13 1 13 14
M  V30 14 2 14 15
M  V30 15 1 15 16
M  V30 16 2 16 17
M  V30 17 2 11 18
M  V30 18 1 18 19
M  V30 19 2 19 20
M  V30 20 1 20 21
M  V30 21 2 21 22
M  V30 22 1 22 23
M  V30 23 2 23 24
M  V30 24 1 24 9
M  V30 25 1 17 12
M  V30 26 1 24 19
M  V30 27 1 1 25
M  V30 28 1 1 26
M  V30 29 1 1 27
M  V30 30 1 3 28
M  V30 31 1 3 29
M  V30 32 1 3 30
M  V30 33 1 4 31
M  V30 34 1 4 32
M  V30 35 1 6 33
M  V30 36 1 6 34
M  V30 37 1 8 35
M  V30 38 1 13 36
M  V30 39 1 14 37
M  V30 40 1 16 38
M  V30 41 1 17 39
M  V30 42 1 20 40
M  V30 43 1 22 41
M  V30 44 1 23 42
M  V30 END BOND
M  V30 END CTAB
M  END
>  <Dataset>  (203) 
ChEMBL_Kinases

>  <Ligand_Instance>  (203) 
nan

>  <PDB_ID>  (203) 
nan

>  <Standardized_SMILES>  (203) 
CC(C)(CC(N)=O)Nc1nc(-c2ccncc2)nc2cnccc12

>  <Name>  (203) 
nan

>  <Pocket>  (203) 
nan

>  <ATP_Site>  (203) 
nan

>  <Peripheral>  (203) 
nan

>  <Num_H_Atoms_ProtBoundConf>  (203) 
nan

>  <Num_Resolved_Atoms>  (203) 
nan

>  <Num_Not_Resolved_Atoms>  (203) 
nan

$$$$
CHEMBL4456799
     RDKit          3D

  0  0  0  0  0  0  0  0  0  0999 V3000
M  V30 BEGIN CTAB
M  V30 COUNTS 43 46 0 0 0
M  V30 BEGIN ATOM
M  V30 1 C -1.100899 -5.062048 0.640484 0
M  V30 2 C -0.517201 -3.668613 0.462922 0
M  V30 3 C 0.982490 -3.815832 0.357809 0
M  V30 4 C -1.035799 -3.076292 -0.811540 0
M  V30 5 N -0.888302 -2.764362 1.538762 0
M  V30 6 C -0.482806 -1.408813 1.650802 0
M  V30 7 C 0.327486 -0.786331 0.734022 0
M  V30 8 C 0.759462 0.523724 0.782558 0
M  V30 9 C 1.620187 1.119316 -0.227436 0
M  V30 10 C 2.111471 0.481017 -1.341221 0
M  V30 11 C 2.922665 1.038846 -2.295004 0
M  V30 12 N 3.284591 2.343315 -2.140768 0
M  V30 13 C 2.821387 3.012150 -1.053834 0
M  V30 14 N 3.066746 4.294713 -0.730567 0
M  V30 15 C 2.435755 4.615312 0.425748 0
M  V30 16 C 1.782708 3.454870 0.802888 0
M  V30 17 C 2.001763 2.436150 -0.096933 0
M  V30 18 N 0.321594 1.219598 1.845026 0
M  V30 19 C -0.463346 0.714046 2.786731 0
M  V30 20 C -0.872863 1.481776 3.844676 0
M  V30 21 N -1.679669 1.003183 4.835163 0
M  V30 22 C -2.085057 -0.289035 4.755076 0
M  V30 23 C -1.676335 -1.063028 3.694924 0
M  V30 24 C -0.862277 -0.589469 2.690412 0
M  V30 25 H -0.876515 -5.404912 1.681226 0
M  V30 26 H -2.175477 -5.098898 0.401064 0
M  V30 27 H -0.528677 -5.727534 -0.039855 0
M  V30 28 H 1.354697 -3.589741 -0.671896 0
M  V30 29 H 1.507646 -3.210297 1.143765 0
M  V30 30 H 1.245052 -4.864236 0.596319 0
M  V30 31 H -1.845986 -3.758110 -1.204070 0
M  V30 32 H -0.224336 -3.041268 -1.564906 0
M  V30 33 H -1.532442 -2.091022 -0.656231 0
M  V30 34 H -1.499052 -3.218782 2.242026 0
M  V30 35 H 0.672561 -1.363327 -0.117148 0
M  V30 36 H 1.860512 -0.538819 -1.511511 0
M  V30 37 H 3.279790 0.488744 -3.151929 0
M  V30 38 H 3.651481 5.015545 -1.243032 0
M  V30 39 H 2.428553 5.558606 0.955018 0
M  V30 40 H 1.193401 3.391788 1.683717 0
M  V30 41 H -0.545626 2.517746 3.905398 0
M  V30 42 H -2.720716 -0.602489 5.570422 0
M  V30 43 H -2.043653 -2.056566 3.719712 0
M  V30 END ATOM
M  V30 BEGIN BOND
M  V30 1 1 1 2
M  V30 2 1 2 3
M  V30 3 1 2 4
M  V30 4 1 2 5
M  V30 5 1 5 6
M  V30 6 2 6 7
M  V30 7 1 7 8
M  V30 8 1 8 9
M  V30 9 2 9 10
M  V30 10 1 10 11
M  V30 11 2 11 12
M  V30 12 1 12 13
M  V30 13 1 13 14
M  V30 14 1 14 15
M  V30 15 2 15 16
M  V30 16 1 16 17
M  V30 17 2 8 18
M  V30 18 1 18 19
M  V30 19 2 19 20
M  V30 20 1 20 21
M  V30 21 2 21 22
M  V30 22 1 22 23
M  V30 23 2 23 24
M  V30 24 1 24 6
M  V30 25 1 17 9
M  V30 26 1 24 19
M  V30 27 2 17 13
M  V30 28 1 1 25
M  V30 29 1 1 26
M  V30 30 1 1 27
M  V30 31 1 3 28
M  V30 32 1 3 29
M  V30 33 1 3 30
M  V30 34 1 4 31
M  V30 35 1 4 32
M  V30 36 1 4 33
M  V30 37 1 5 34
M  V30 38 1 7 35
M  V30 39 1 10 36
M  V30 40 1 11 37
M  V30 41 1 14 38
M  V30 42 1 15 39
M  V30 43 1 16 40
M  V30 44 1 20 41
M  V30 45 1 22 42
M  V30 46 1 23 43
M  V30 END BOND
M  V30 END CTAB
M  END
>  <Dataset>  (204) 
ChEMBL_Kinases

>  <Ligand_Instance>  (204) 
nan

>  <PDB_ID>  (204) 
nan

>  <Standardized_SMILES>  (204) 
CC(C)(C)Nc1cc(-c2ccnc3[nH]ccc23)nc2cnccc12

>  <Name>  (204) 
nan

>  <Pocket>  (204) 
nan

>  <ATP_Site>  (204) 
nan

>  <Peripheral>  (204) 
nan

>  <Num_H_Atoms_ProtBoundConf>  (204) 
nan

>  <Num_Resolved_Atoms>  (204) 
nan

>  <Num_Not_Resolved_Atoms>  (204) 
nan

$$$$
CHEMBL4456722
     RDKit          3D

  0  0  0  0  0  0  0  0  0  0999 V3000
M  V30 BEGIN CTAB
M  V30 COUNTS 63 67 0 0 0
M  V30 BEGIN ATOM
M  V30 1 C 3.062770 1.262650 5.836148 0
M  V30 2 N 4.109988 1.712034 4.978650 0
M  V30 3 C 5.337660 1.001204 5.276963 0
M  V30 4 C 4.310795 3.116408 4.902700 0
M  V30 5 C 3.194348 3.867078 4.224989 0
M  V30 6 N 3.013339 3.413284 2.844153 0
M  V30 7 C 2.221715 2.433019 2.398379 0
M  V30 8 C 2.353251 2.324298 1.009254 0
M  V30 9 C 1.702325 1.409875 0.073613 0
M  V30 10 C 2.422029 1.049259 -1.042423 0
M  V30 11 C 1.974224 0.201127 -2.026189 0
M  V30 12 C 0.718017 -0.334337 -1.901495 0
M  V30 13 C -0.045420 0.017323 -0.763550 0
M  V30 14 C 0.432783 0.872714 0.207268 0
M  V30 15 C -1.369320 -0.437904 -0.382570 0
M  V30 16 O -1.704463 -0.696394 0.796361 0
M  V30 17 N -2.653960 -0.785324 -0.766651 0
M  V30 18 C -3.960516 -1.146306 -1.105178 0
M  V30 19 C -5.064698 -0.425045 -1.428507 0
M  V30 20 C -6.154170 -1.221991 -1.707083 0
M  V30 21 C -6.063070 -2.592418 -1.646930 0
M  V30 22 C -4.906377 -3.257325 -1.312394 0
M  V30 23 N -3.873021 -2.469701 -1.046372 0
M  V30 24 C -4.780399 -4.722220 -1.277587 0
M  V30 25 N -5.581709 -5.316804 -0.381172 0
M  V30 26 N -5.332120 -6.624159 -0.494897 0
M  V30 27 C -4.396959 -6.791664 -1.445749 0
M  V30 28 N -3.999616 -5.631300 -1.986849 0
M  V30 29 C -3.227288 -4.809018 -2.887234 0
M  V30 30 C -1.933016 -4.340276 -2.282572 0
M  V30 31 C -1.410749 -3.128814 -3.065370 0
M  V30 32 C -0.378787 -2.466078 -2.163907 0
M  V30 33 O -0.083660 -1.180635 -2.620612 0
M  V30 34 C 3.262497 3.293993 0.678249 0
M  V30 35 N 3.647869 3.938675 1.796247 0
M  V30 36 H 3.317745 0.355585 6.424292 0
M  V30 37 H 2.701671 2.091701 6.490099 0
M  V30 38 H 2.185932 0.994802 5.212389 0
M  V30 39 H 6.037573 1.736272 5.766334 0
M  V30 40 H 5.882638 0.705650 4.340127 0
M  V30 41 H 5.202732 0.160559 5.978999 0
M  V30 42 H 4.361270 3.514239 5.945620 0
M  V30 43 H 5.297198 3.328571 4.449358 0
M  V30 44 H 3.449872 4.943736 4.167017 0
M  V30 45 H 2.242465 3.800478 4.745091 0
M  V30 46 H 1.567485 1.799906 2.981871 0
M  V30 47 H 3.414368 1.416444 -1.229638 0
M  V30 48 H 2.417099 -0.162815 -2.935185 0
M  V30 49 H -0.051711 1.211639 1.108925 0
M  V30 50 H -2.415543 -0.484009 -1.763091 0
M  V30 51 H -4.786796 0.605953 -1.387279 0
M  V30 52 H -7.025074 -0.639449 -1.961261 0
M  V30 53 H -6.926070 -3.203699 -1.861858 0
M  V30 54 H -3.854121 -7.619523 -1.916421 0
M  V30 55 H -2.976104 -5.504153 -3.756495 0
M  V30 56 H -3.814442 -3.987752 -3.325948 0
M  V30 57 H -1.968725 -4.194677 -1.220110 0
M  V30 58 H -1.172819 -5.183061 -2.454165 0
M  V30 59 H -2.252265 -2.461225 -3.327950 0
M  V30 60 H -0.920491 -3.532961 -3.967904 0
M  V30 61 H 0.555183 -3.101588 -2.326945 0
M  V30 62 H -0.594842 -2.575926 -1.106054 0
M  V30 63 H 3.626018 3.517506 -0.337212 0
M  V30 END ATOM
M  V30 BEGIN BOND
M  V30 1 1 1 2
M  V30 2 1 2 3
M  V30 3 1 2 4
M  V30 4 1 4 5
M  V30 5 1 5 6
M  V30 6 1 6 7
M  V30 7 2 7 8
M  V30 8 1 8 9
M  V30 9 2 9 10
M  V30 10 1 10 11
M  V30 11 2 11 12
M  V30 12 1 12 13
M  V30 13 2 13 14
M  V30 14 1 13 15
M  V30 15 2 15 16
M  V30 16 1 15 17
M  V30 17 1 17 18
M  V30 18 2 18 19
M  V30 19 1 19 20
M  V30 20 2 20 21
M  V30 21 1 21 22
M  V30 22 2 22 23
M  V30 23 1 22 24
M  V30 24 2 24 25
M  V30 25 1 25 26
M  V30 26 2 26 27
M  V30 27 1 27 28
M  V30 28 1 28 29
M  V30 29 1 29 30
M  V30 30 1 30 31
M  V30 31 1 31 32
M  V30 32 1 32 33
M  V30 33 1 8 34
M  V30 34 2 34 35
M  V30 35 1 35 6
M  V30 36 1 14 9
M  V30 37 1 23 18
M  V30 38 1 28 24
M  V30 39 1 33 12
M  V30 40 1 1 36
M  V30 41 1 1 37
M  V30 42 1 1 38
M  V30 43 1 3 39
M  V30 44 1 3 40
M  V30 45 1 3 41
M  V30 46 1 4 42
M  V30 47 1 4 43
M  V30 48 1 5 44
M  V30 49 1 5 45
M  V30 50 1 7 46
M  V30 51 1 10 47
M  V30 52 1 11 48
M  V30 53 1 14 49
M  V30 54 1 17 50
M  V30 55 1 19 51
M  V30 56 1 20 52
M  V30 57 1 21 53
M  V30 58 1 27 54
M  V30 59 1 29 55
M  V30 60 1 29 56
M  V30 61 1 30 57
M  V30 62 1 30 58
M  V30 63 1 31 59
M  V30 64 1 31 60
M  V30 65 1 32 61
M  V30 66 1 32 62
M  V30 67 1 34 63
M  V30 END BOND
M  V30 END CTAB
M  END
>  <Dataset>  (205) 
ChEMBL_Kinases

>  <Ligand_Instance>  (205) 
nan

>  <PDB_ID>  (205) 
nan

>  <Standardized_SMILES>  (205) 
CN(C)CCn1cc(-c2ccc3c(c2)C(=O)Nc2cccc(n2)-c2nncn2CCCCO3)cn1

>  <Name>  (205) 
nan

>  <Pocket>  (205) 
nan

>  <ATP_Site>  (205) 
nan

>  <Peripheral>  (205) 
nan

>  <Num_H_Atoms_ProtBoundConf>  (205) 
nan

>  <Num_Resolved_Atoms>  (205) 
nan

>  <Num_Not_Resolved_Atoms>  (205) 
nan

$$$$
CHEMBL4456572
     RDKit          3D

  0  0  0  0  0  0  0  0  0  0999 V3000
M  V30 BEGIN CTAB
M  V30 COUNTS 46 50 0 0 0
M  V30 BEGIN ATOM
M  V30 1 N 0.549123 -4.472973 0.887435 0
M  V30 2 C 0.207295 -3.209712 0.258810 0
M  V30 3 C -0.180303 -3.528726 -1.174833 0
M  V30 4 C -1.199960 -2.542905 -1.712717 0
M  V30 5 N -0.990006 -1.289002 -0.974844 0
M  V30 6 C -0.395386 -0.120072 -1.519391 0
M  V30 7 C -0.504734 0.007167 -2.891300 0
M  V30 8 C -0.030895 1.115473 -3.602349 0
M  V30 9 C 0.590365 2.164744 -2.914970 0
M  V30 10 C 0.688517 2.014844 -1.548896 0
M  V30 11 C 1.305939 3.026278 -0.848228 0
M  V30 12 C 1.410797 2.861847 0.512849 0
M  V30 13 C 0.939684 1.750742 1.229200 0
M  V30 14 C 1.202807 1.795821 2.660504 0
M  V30 15 N 1.758077 2.801976 3.348854 0
M  V30 16 N 1.863400 2.506434 4.624807 0
M  V30 17 C 1.375739 1.273804 4.839088 0
M  V30 18 C 1.249720 0.486497 5.962798 0
M  V30 19 C 0.703497 -0.776525 5.882537 0
M  V30 20 C 0.299516 -1.197844 4.640513 0
M  V30 21 C 0.456154 -0.356390 3.560952 0
M  V30 22 N 0.983999 0.875887 3.616629 0
M  V30 23 N 0.343275 0.790974 0.500857 0
M  V30 24 C 0.219796 0.919469 -0.854290 0
M  V30 25 C -1.529028 -1.440236 0.353879 0
M  V30 26 C -1.081563 -2.735840 0.941423 0
M  V30 27 H 1.181968 -5.043296 0.317320 0
M  V30 28 H 0.835274 -4.302319 1.868213 0
M  V30 29 H 0.982783 -2.444689 0.349364 0
M  V30 30 H 0.740889 -3.586265 -1.759946 0
M  V30 31 H -0.686984 -4.513510 -1.158379 0
M  V30 32 H -1.071802 -2.431116 -2.802826 0
M  V30 33 H -2.237309 -2.854636 -1.539988 0
M  V30 34 H -0.936208 -0.651734 -3.606883 0
M  V30 35 H -0.080575 1.285145 -4.674310 0
M  V30 36 H 0.977619 3.044777 -3.386681 0
M  V30 37 H 1.674937 3.881502 -1.356216 0
M  V30 38 H 1.907184 3.692480 1.013842 0
M  V30 39 H 1.600011 0.912221 6.899315 0
M  V30 40 H 0.646563 -1.317135 6.817309 0
M  V30 41 H -0.127001 -2.186418 4.581071 0
M  V30 42 H 0.136808 -0.738054 2.629511 0
M  V30 43 H -1.507238 -0.583979 1.003607 0
M  V30 44 H -2.650785 -1.586064 0.166729 0
M  V30 45 H -1.808360 -3.579454 0.731379 0
M  V30 46 H -0.925305 -2.765658 2.016149 0
M  V30 END ATOM
M  V30 BEGIN BOND
M  V30 1 1 1 2
M  V30 2 1 2 3
M  V30 3 1 3 4
M  V30 4 1 4 5
M  V30 5 1 5 6
M  V30 6 2 6 7
M  V30 7 1 7 8
M  V30 8 2 8 9
M  V30 9 1 9 10
M  V30 10 2 10 11
M  V30 11 1 11 12
M  V30 12 2 12 13
M  V30 13 1 13 14
M  V30 14 2 14 15
M  V30 15 1 15 16
M  V30 16 2 16 17
M  V30 17 1 17 18
M  V30 18 2 18 19
M  V30 19 1 19 20
M  V30 20 2 20 21
M  V30 21 1 21 22
M  V30 22 1 13 23
M  V30 23 2 23 24
M  V30 24 1 5 25
M  V30 25 1 25 26
M  V30 26 1 26 2
M  V30 27 1 24 6
M  V30 28 1 24 10
M  V30 29 1 22 14
M  V30 30 1 22 17
M  V30 31 1 1 27
M  V30 32 1 1 28
M  V30 33 1 2 29
M  V30 34 1 3 30
M  V30 35 1 3 31
M  V30 36 1 4 32
M  V30 37 1 4 33
M  V30 38 1 7 34
M  V30 39 1 8 35
M  V30 40 1 9 36
M  V30 41 1 11 37
M  V30 42 1 12 38
M  V30 43 1 18 39
M  V30 44 1 19 40
M  V30 45 1 20 41
M  V30 46 1 21 42
M  V30 47 1 25 43
M  V30 48 1 25 44
M  V30 49 1 26 45
M  V30 50 1 26 46
M  V30 END BOND
M  V30 END CTAB
M  END
>  <Dataset>  (206) 
ChEMBL_Kinases

>  <Ligand_Instance>  (206) 
nan

>  <PDB_ID>  (206) 
nan

>  <Standardized_SMILES>  (206) 
NC1CCN(c2cccc3ccc(-c4nnc5ccccn45)nc23)CC1

>  <Name>  (206) 
nan

>  <Pocket>  (206) 
nan

>  <ATP_Site>  (206) 
nan

>  <Peripheral>  (206) 
nan

>  <Num_H_Atoms_ProtBoundConf>  (206) 
nan

>  <Num_Resolved_Atoms>  (206) 
nan

>  <Num_Not_Resolved_Atoms>  (206) 
nan

$$$$
CHEMBL4456500
     RDKit          3D

  0  0  0  0  0  0  0  0  0  0999 V3000
M  V30 BEGIN CTAB
M  V30 COUNTS 35 38 0 0 0
M  V30 BEGIN ATOM
M  V30 1 O -2.393031 -3.065917 1.065927 0
M  V30 2 C -2.266924 -1.824799 1.137166 0
M  V30 3 N -1.021339 -1.235834 0.809457 0
M  V30 4 C 0.130655 -1.958727 0.394450 0
M  V30 5 C 0.325204 -3.304013 0.216376 0
M  V30 6 N 1.562400 -3.593946 -0.185824 0
M  V30 7 C 2.227116 -2.412978 -0.283755 0
M  V30 8 N 3.493393 -2.105237 -0.641806 0
M  V30 9 C 3.927451 -0.831151 -0.661151 0
M  V30 10 C 3.075816 0.193320 -0.311291 0
M  V30 11 C 3.535023 1.575983 -0.325615 0
M  V30 12 C 4.826446 1.853567 -0.038338 0
M  V30 13 C 5.173054 3.277143 -0.084273 0
M  V30 14 S 3.563864 4.156721 -0.553893 0
M  V30 15 C 2.651315 2.636071 -0.636085 0
M  V30 16 C 1.779485 -0.087525 0.058195 0
M  V30 17 C 1.352772 -1.407325 0.071261 0
M  V30 18 C -3.439347 -1.067083 1.561790 0
M  V30 19 C -4.601505 -1.797786 1.843396 0
M  V30 20 C -5.769959 -1.146045 2.257279 0
M  V30 21 C -5.743794 0.227583 2.379034 0
M  V30 22 N -4.627922 0.924987 2.108348 0
M  V30 23 C -3.477603 0.308125 1.703124 0
M  V30 24 H -0.970611 -0.197173 0.885681 0
M  V30 25 H -0.414392 -4.075769 0.373437 0
M  V30 26 H 1.966010 -4.555421 -0.393710 0
M  V30 27 H 4.953010 -0.652866 -0.957408 0
M  V30 28 H 5.625321 1.187735 0.215846 0
M  V30 29 H 6.238014 3.661943 0.138370 0
M  V30 30 H 1.627439 2.536268 -0.874808 0
M  V30 31 H 1.128756 0.730956 0.328616 0
M  V30 32 H -4.688941 -2.871803 1.768317 0
M  V30 33 H -6.689699 -1.666715 2.485359 0
M  V30 34 H -6.579405 0.840851 2.688937 0
M  V30 35 H -2.583906 0.875407 1.486882 0
M  V30 END ATOM
M  V30 BEGIN BOND
M  V30 1 2 1 2
M  V30 2 1 2 3
M  V30 3 1 3 4
M  V30 4 2 4 5
M  V30 5 1 5 6
M  V30 6 1 6 7
M  V30 7 2 7 8
M  V30 8 1 8 9
M  V30 9 2 9 10
M  V30 10 1 10 11
M  V30 11 1 11 12
M  V30 12 2 12 13
M  V30 13 1 13 14
M  V30 14 1 14 15
M  V30 15 1 10 16
M  V30 16 2 16 17
M  V30 17 1 2 18
M  V30 18 2 18 19
M  V30 19 1 19 20
M  V30 20 2 20 21
M  V30 21 1 21 22
M  V30 22 2 22 23
M  V30 23 1 17 4
M  V30 24 1 23 18
M  V30 25 1 17 7
M  V30 26 2 15 11
M  V30 27 1 3 24
M  V30 28 1 5 25
M  V30 29 1 6 26
M  V30 30 1 9 27
M  V30 31 1 12 28
M  V30 32 1 13 29
M  V30 33 1 15 30
M  V30 34 1 16 31
M  V30 35 1 19 32
M  V30 36 1 20 33
M  V30 37 1 21 34
M  V30 38 1 23 35
M  V30 END BOND
M  V30 END CTAB
M  END
>  <Dataset>  (207) 
ChEMBL_Kinases

>  <Ligand_Instance>  (207) 
nan

>  <PDB_ID>  (207) 
nan

>  <Standardized_SMILES>  (207) 
O=C(Nc1c[nH]c2ncc(-c3ccsc3)cc12)c1cccnc1

>  <Name>  (207) 
nan

>  <Pocket>  (207) 
nan

>  <ATP_Site>  (207) 
nan

>  <Peripheral>  (207) 
nan

>  <Num_H_Atoms_ProtBoundConf>  (207) 
nan

>  <Num_Resolved_Atoms>  (207) 
nan

>  <Num_Not_Resolved_Atoms>  (207) 
nan

$$$$
CHEMBL4745922
     RDKit          3D

  0  0  0  0  0  0  0  0  0  0999 V3000
M  V30 BEGIN CTAB
M  V30 COUNTS 83 87 0 0 0
M  V30 BEGIN ATOM
M  V30 1 N 5.223506 0.192926 4.866430 0
M  V30 2 C 4.678497 1.488116 4.646591 0
M  V30 3 C 4.396884 2.125571 3.457142 0
M  V30 4 C 4.645110 1.492603 2.161349 0
M  V30 5 O 5.135660 0.336514 2.105516 0
M  V30 6 N 4.353698 2.130135 0.945380 0
M  V30 7 C 4.523921 1.675305 -0.397216 0
M  V30 8 C 3.466006 0.685294 -0.769746 0
M  V30 9 C 3.536547 -0.692340 -0.650403 0
M  V30 10 C 2.469673 -1.480639 -1.026552 0
M  V30 11 C 1.306780 -0.948614 -1.528098 0
M  V30 12 C 0.213432 -1.875678 -1.909741 0
M  V30 13 O 0.529921 -3.114050 -1.816708 0
M  V30 14 N -1.093765 -1.496150 -2.347869 0
M  V30 15 C -1.976828 -2.543355 -2.663159 0 CFG=1
M  V30 16 C -2.805803 -3.105470 -1.590763 0
M  V30 17 C -3.808919 -2.444532 -0.791190 0
M  V30 18 C -3.532589 -1.320542 0.124278 0
M  V30 19 C -3.014494 -0.057895 -0.436923 0
M  V30 20 C -3.605359 1.098437 0.390427 0
M  V30 21 C -3.350967 0.752343 1.841688 0
M  V30 22 C -4.284230 -0.364293 2.265674 0
M  V30 23 C -4.779479 -1.047372 1.014015 0
M  V30 24 C -2.731114 -2.310286 -3.935991 0
M  V30 25 O -2.446819 -1.222913 -4.501960 0
M  V30 26 N -3.679710 -3.220161 -4.466485 0
M  V30 27 C -4.427394 -3.040740 -5.685353 0
M  V30 28 C -3.543704 -3.319195 -6.846624 0
M  V30 29 C -3.537813 -4.663489 -7.240408 0
M  V30 30 C -2.722019 -4.974768 -8.329734 0
M  V30 31 N -1.953713 -4.117486 -9.025128 0
M  V30 32 C -1.983809 -2.819308 -8.615284 0
M  V30 33 C -2.760417 -2.440222 -7.554315 0
M  V30 34 C 1.247884 0.415203 -1.641901 0
M  V30 35 C 2.301106 1.222532 -1.272804 0
M  V30 36 C 3.870586 3.387555 3.666055 0
M  V30 37 N 3.839029 3.502073 5.020113 0
M  V30 38 N 4.316243 2.379565 5.581945 0
M  V30 39 C 4.386876 2.251026 7.000218 0
M  V30 40 C 5.119858 3.098354 7.803794 0
M  V30 41 C 5.153649 2.930961 9.162705 0
M  V30 42 C 4.449059 1.902584 9.760414 0
M  V30 43 C 3.722495 1.064874 8.950324 0
M  V30 44 C 3.676417 1.217959 7.578273 0
M  V30 45 H 4.817468 -0.731652 4.637472 0
M  V30 46 H 6.141677 0.318266 5.316669 0
M  V30 47 H 3.939985 3.107794 1.018009 0
M  V30 48 H 5.487544 1.124972 -0.477259 0
M  V30 49 H 4.538937 2.453221 -1.152736 0
M  V30 50 H 4.463035 -1.077034 -0.253808 0
M  V30 51 H 2.658375 -2.532287 -0.880718 0
M  V30 52 H -1.086235 -0.456764 -2.363236 0
M  V30 53 H -1.306340 -3.456444 -2.947876 0
M  V30 54 H -2.017739 -3.554911 -0.843601 0
M  V30 55 H -3.209660 -4.140061 -1.972901 0
M  V30 56 H -4.754208 -2.186880 -1.392945 0
M  V30 57 H -4.266325 -3.276650 -0.119852 0
M  V30 58 H -2.792223 -1.718325 0.915038 0
M  V30 59 H -3.192692 0.103356 -1.497059 0
M  V30 60 H -1.920292 0.019144 -0.217738 0
M  V30 61 H -4.640975 1.302559 0.139086 0
M  V30 62 H -3.004809 2.023828 0.197106 0
M  V30 63 H -2.311732 0.330136 1.895930 0
M  V30 64 H -3.379680 1.622936 2.515769 0
M  V30 65 H -5.165783 0.009894 2.823871 0
M  V30 66 H -3.763874 -1.098251 2.896118 0
M  V30 67 H -5.137347 -2.044755 1.335756 0
M  V30 68 H -5.534765 -0.494253 0.456262 0
M  V30 69 H -3.835886 -4.089547 -3.911005 0
M  V30 70 H -4.727782 -1.952316 -5.762250 0
M  V30 71 H -5.308957 -3.697702 -5.687745 0
M  V30 72 H -4.086774 -5.509122 -6.810278 0
M  V30 73 H -2.669774 -6.000460 -8.688091 0
M  V30 74 H -1.398530 -2.027437 -9.105308 0
M  V30 75 H -2.805971 -1.419311 -7.208339 0
M  V30 76 H 0.365448 0.878413 -2.027109 0
M  V30 77 H 2.181562 2.307639 -1.393381 0
M  V30 78 H 3.571143 4.079353 2.900214 0
M  V30 79 H 5.661873 3.890663 7.335958 0
M  V30 80 H 5.739511 3.613175 9.771356 0
M  V30 81 H 4.452415 1.739998 10.829345 0
M  V30 82 H 3.156930 0.249256 9.363015 0
M  V30 83 H 3.095011 0.540460 6.977691 0
M  V30 END ATOM
M  V30 BEGIN BOND
M  V30 1 1 1 2
M  V30 2 2 2 3
M  V30 3 1 3 4
M  V30 4 2 4 5
M  V30 5 1 4 6
M  V30 6 1 6 7
M  V30 7 1 7 8
M  V30 8 2 8 9
M  V30 9 1 9 10
M  V30 10 2 10 11
M  V30 11 1 11 12
M  V30 12 2 12 13
M  V30 13 1 12 14
M  V30 14 1 14 15
M  V30 15 1 15 16
M  V30 16 1 16 17
M  V30 17 1 17 18
M  V30 18 1 18 19
M  V30 19 1 19 20
M  V30 20 1 20 21
M  V30 21 1 21 22
M  V30 22 1 22 23
M  V30 23 1 15 24
M  V30 24 2 24 25
M  V30 25 1 24 26
M  V30 26 1 26 27
M  V30 27 1 27 28
M  V30 28 2 28 29
M  V30 29 1 29 30
M  V30 30 2 30 31
M  V30 31 1 31 32
M  V30 32 2 32 33
M  V30 33 1 11 34
M  V30 34 2 34 35
M  V30 35 1 3 36
M  V30 36 2 36 37
M  V30 37 1 37 38
M  V30 38 1 38 39
M  V30 39 2 39 40
M  V30 40 1 40 41
M  V30 41 2 41 42
M  V30 42 1 42 43
M  V30 43 2 43 44
M  V30 44 1 38 2
M  V30 45 1 44 39
M  V30 46 1 35 8
M  V30 47 1 23 18
M  V30 48 1 33 28
M  V30 49 1 1 45
M  V30 50 1 1 46
M  V30 51 1 6 47
M  V30 52 1 7 48
M  V30 53 1 7 49
M  V30 54 1 9 50
M  V30 55 1 10 51
M  V30 56 1 14 52
M  V30 57 1 15 53 CFG=3
M  V30 58 1 16 54
M  V30 59 1 16 55
M  V30 60 1 17 56
M  V30 61 1 17 57
M  V30 62 1 18 58
M  V30 63 1 19 59
M  V30 64 1 19 60
M  V30 65 1 20 61
M  V30 66 1 20 62
M  V30 67 1 21 63
M  V30 68 1 21 64
M  V30 69 1 22 65
M  V30 70 1 22 66
M  V30 71 1 23 67
M  V30 72 1 23 68
M  V30 73 1 26 69
M  V30 74 1 27 70
M  V30 75 1 27 71
M  V30 76 1 29 72
M  V30 77 1 30 73
M  V30 78 1 32 74
M  V30 79 1 33 75
M  V30 80 1 34 76
M  V30 81 1 35 77
M  V30 82 1 36 78
M  V30 83 1 40 79
M  V30 84 1 41 80
M  V30 85 1 42 81
M  V30 86 1 43 82
M  V30 87 1 44 83
M  V30 END BOND
M  V30 END CTAB
M  END
>  <Dataset>  (208) 
ChEMBL_Kinases

>  <Ligand_Instance>  (208) 
nan

>  <PDB_ID>  (208) 
nan

>  <Standardized_SMILES>  (208) 
Nc1c(C(=O)NCc2ccc(C(=O)N[C@@H](CCC3CCCCC3)C(=O)NCc3ccncc3)cc2)cnn1-c1ccccc1

>  <Name>  (208) 
nan

>  <Pocket>  (208) 
nan

>  <ATP_Site>  (208) 
nan

>  <Peripheral>  (208) 
nan

>  <Num_H_Atoms_ProtBoundConf>  (208) 
nan

>  <Num_Resolved_Atoms>  (208) 
nan

>  <Num_Not_Resolved_Atoms>  (208) 
nan

$$$$
CHEMBL4456449
     RDKit          3D

  0  0  0  0  0  0  0  0  0  0999 V3000
M  V30 BEGIN CTAB
M  V30 COUNTS 57 59 0 0 0
M  V30 BEGIN ATOM
M  V30 1 C 3.916361 -1.477273 2.386146 0
M  V30 2 C 3.867448 0.037718 2.457865 0
M  V30 3 C 5.258995 0.533173 2.720027 0
M  V30 4 C 2.988739 0.405578 3.648343 0
M  V30 5 C 2.869498 1.877786 3.815053 0
M  V30 6 O 2.210993 2.507528 4.706516 0
M  V30 7 O 3.343076 3.015599 3.180035 0
M  V30 8 N 3.376298 0.622306 1.222857 0
M  V30 9 C 2.068248 0.202796 0.881554 0
M  V30 10 O 1.261664 -0.578510 1.449923 0
M  V30 11 C 1.449242 0.739505 -0.375386 0
M  V30 12 C 0.059010 0.183284 -0.574805 0
M  V30 13 C -0.510509 0.769559 -1.868212 0
M  V30 14 C -0.827392 0.561869 0.572156 0
M  V30 15 N 0.106199 -1.255338 -0.782764 0
M  V30 16 C -1.110895 -1.964868 -0.950575 0
M  V30 17 N -2.289477 -1.319203 -0.911811 0
M  V30 18 C -3.474558 -1.932144 -1.059847 0
M  V30 19 C -4.727612 -1.192628 -1.011018 0
M  V30 20 C -4.806117 0.166409 -0.815277 0
M  V30 21 C -5.994744 0.874858 -0.767858 0
M  V30 22 N -7.145830 0.196805 -0.922181 0
M  V30 23 C -7.152802 -1.133388 -1.117764 0
M  V30 24 C -5.955449 -1.821076 -1.161716 0
M  V30 25 N -3.536462 -3.258787 -1.259400 0
M  V30 26 C -2.404063 -3.996947 -1.314136 0
M  V30 27 C -2.424540 -5.379971 -1.520259 0
M  V30 28 N -1.261354 -6.072880 -1.567003 0
M  V30 29 C -0.076363 -5.432701 -1.414881 0
M  V30 30 C -0.079098 -4.072699 -1.213260 0
M  V30 31 C -1.222285 -3.322932 -1.157202 0
M  V30 32 H 3.001178 -1.927595 2.851418 0
M  V30 33 H 4.091102 -1.850285 1.354769 0
M  V30 34 H 4.751462 -1.812700 3.034627 0
M  V30 35 H 5.288052 1.417910 3.411411 0
M  V30 36 H 5.783731 0.817805 1.784753 0
M  V30 37 H 5.897764 -0.254209 3.199308 0
M  V30 38 H 2.001466 -0.079622 3.610113 0
M  V30 39 H 3.521404 -0.001760 4.532953 0
M  V30 40 H 4.103590 3.562681 3.522218 0
M  V30 41 H 3.860740 1.290566 0.584132 0
M  V30 42 H 2.075714 0.508866 -1.268714 0
M  V30 43 H 1.374690 1.841871 -0.307342 0
M  V30 44 H -1.077126 1.704447 -1.684098 0
M  V30 45 H -1.060640 0.006308 -2.436821 0
M  V30 46 H 0.383494 1.009748 -2.504042 0
M  V30 47 H -1.715033 1.096954 0.200081 0
M  V30 48 H -0.255294 1.202711 1.261652 0
M  V30 49 H -1.058021 -0.361811 1.141921 0
M  V30 50 H 1.052106 -1.687278 -0.796287 0
M  V30 51 H -3.912878 0.736082 -0.689183 0
M  V30 52 H -6.018112 1.944623 -0.612039 0
M  V30 53 H -8.096129 -1.681979 -1.243233 0
M  V30 54 H -6.017153 -2.887924 -1.321220 0
M  V30 55 H -3.379306 -5.887400 -1.641566 0
M  V30 56 H 0.796969 -6.059183 -1.465716 0
M  V30 57 H 0.892023 -3.646005 -1.103126 0
M  V30 END ATOM
M  V30 BEGIN BOND
M  V30 1 1 1 2
M  V30 2 1 2 3
M  V30 3 1 2 4
M  V30 4 1 4 5
M  V30 5 2 5 6
M  V30 6 1 5 7
M  V30 7 1 2 8
M  V30 8 1 8 9
M  V30 9 2 9 10
M  V30 10 1 9 11
M  V30 11 1 11 12
M  V30 12 1 12 13
M  V30 13 1 12 14
M  V30 14 1 12 15
M  V30 15 1 15 16
M  V30 16 2 16 17
M  V30 17 1 17 18
M  V30 18 1 18 19
M  V30 19 2 19 20
M  V30 20 1 20 21
M  V30 21 2 21 22
M  V30 22 1 22 23
M  V30 23 2 23 24
M  V30 24 2 18 25
M  V30 25 1 25 26
M  V30 26 2 26 27
M  V30 27 1 27 28
M  V30 28 2 28 29
M  V30 29 1 29 30
M  V30 30 2 30 31
M  V30 31 1 31 16
M  V30 32 1 24 19
M  V30 33 1 31 26
M  V30 34 1 1 32
M  V30 35 1 1 33
M  V30 36 1 1 34
M  V30 37 1 3 35
M  V30 38 1 3 36
M  V30 39 1 3 37
M  V30 40 1 4 38
M  V30 41 1 4 39
M  V30 42 1 7 40
M  V30 43 1 8 41
M  V30 44 1 11 42
M  V30 45 1 11 43
M  V30 46 1 13 44
M  V30 47 1 13 45
M  V30 48 1 13 46
M  V30 49 1 14 47
M  V30 50 1 14 48
M  V30 51 1 14 49
M  V30 52 1 15 50
M  V30 53 1 20 51
M  V30 54 1 21 52
M  V30 55 1 23 53
M  V30 56 1 24 54
M  V30 57 1 27 55
M  V30 58 1 29 56
M  V30 59 1 30 57
M  V30 END BOND
M  V30 END CTAB
M  END
>  <Dataset>  (209) 
ChEMBL_Kinases

>  <Ligand_Instance>  (209) 
nan

>  <PDB_ID>  (209) 
nan

>  <Standardized_SMILES>  (209) 
CC(C)(CC(=O)O)NC(=O)CC(C)(C)Nc1nc(-c2ccncc2)nc2cnccc12

>  <Name>  (209) 
nan

>  <Pocket>  (209) 
nan

>  <ATP_Site>  (209) 
nan

>  <Peripheral>  (209) 
nan

>  <Num_H_Atoms_ProtBoundConf>  (209) 
nan

>  <Num_Resolved_Atoms>  (209) 
nan

>  <Num_Not_Resolved_Atoms>  (209) 
nan

$$$$
CHEMBL4455803
     RDKit          3D

  0  0  0  0  0  0  0  0  0  0999 V3000
M  V30 BEGIN CTAB
M  V30 COUNTS 40 42 0 0 0
M  V30 BEGIN ATOM
M  V30 1 C -1.025001 -4.338526 0.737504 0
M  V30 2 C -0.230240 -3.027035 0.584385 0
M  V30 3 C 0.798224 -2.999324 1.656479 0
M  V30 4 C 0.328539 -3.113773 -0.821842 0
M  V30 5 O 1.191697 -4.187333 -0.886866 0
M  V30 6 N -1.149763 -1.922717 0.760520 0
M  V30 7 C -0.785087 -0.555382 0.799163 0
M  V30 8 C 0.489316 -0.083395 0.696692 0
M  V30 9 C 0.894076 1.231899 0.738216 0
M  V30 10 C 2.276951 1.674687 0.622262 0
M  V30 11 C 3.386648 0.873772 0.455628 0
M  V30 12 C 4.661980 1.388911 0.355447 0
M  V30 13 N 4.888056 2.713711 0.416151 0
M  V30 14 C 3.835379 3.534777 0.578124 0
M  V30 15 C 2.558096 3.024530 0.678821 0
M  V30 16 F 1.598992 3.978396 0.839473 0
M  V30 17 N -0.088116 2.161073 0.899671 0
M  V30 18 C -1.371116 1.779827 1.009069 0
M  V30 19 C -2.305224 2.777394 1.169844 0
M  V30 20 N -3.629334 2.468380 1.287951 0
M  V30 21 C -4.020182 1.159942 1.245251 0
M  V30 22 C -3.053998 0.191748 1.083016 0
M  V30 23 C -1.717601 0.448339 0.960308 0
M  V30 24 H -1.231362 -4.548599 1.805112 0
M  V30 25 H -1.947492 -4.272084 0.113663 0
M  V30 26 H -0.446197 -5.200228 0.346367 0
M  V30 27 H 0.753995 -3.926508 2.298038 0
M  V30 28 H 1.848599 -2.987896 1.287131 0
M  V30 29 H 0.580723 -2.168288 2.371545 0
M  V30 30 H 0.805431 -2.221343 -1.198994 0
M  V30 31 H -0.553931 -3.305988 -1.475368 0
M  V30 32 H 1.441321 -4.512826 -0.002820 0
M  V30 33 H -2.148044 -2.182805 0.863493 0
M  V30 34 H 1.314465 -0.769366 0.574083 0
M  V30 35 H 3.230991 -0.186033 0.404418 0
M  V30 36 H 5.484892 0.668554 0.223835 0
M  V30 37 H 4.071139 4.574703 0.619696 0
M  V30 38 H -1.999826 3.832504 1.205302 0
M  V30 39 H -5.079168 0.964701 1.343007 0
M  V30 40 H -3.454349 -0.786843 1.062052 0
M  V30 END ATOM
M  V30 BEGIN BOND
M  V30 1 1 1 2
M  V30 2 1 2 3
M  V30 3 1 2 4
M  V30 4 1 4 5
M  V30 5 1 2 6
M  V30 6 1 6 7
M  V30 7 2 7 8
M  V30 8 1 8 9
M  V30 9 1 9 10
M  V30 10 2 10 11
M  V30 11 1 11 12
M  V30 12 2 12 13
M  V30 13 1 13 14
M  V30 14 2 14 15
M  V30 15 1 15 16
M  V30 16 2 9 17
M  V30 17 1 17 18
M  V30 18 2 18 19
M  V30 19 1 19 20
M  V30 20 2 20 21
M  V30 21 1 21 22
M  V30 22 2 22 23
M  V30 23 1 23 7
M  V30 24 1 15 10
M  V30 25 1 23 18
M  V30 26 1 1 24
M  V30 27 1 1 25
M  V30 28 1 1 26
M  V30 29 1 3 27
M  V30 30 1 3 28
M  V30 31 1 3 29
M  V30 32 1 4 30
M  V30 33 1 4 31
M  V30 34 1 5 32
M  V30 35 1 6 33
M  V30 36 1 8 34
M  V30 37 1 11 35
M  V30 38 1 12 36
M  V30 39 1 14 37
M  V30 40 1 19 38
M  V30 41 1 21 39
M  V30 42 1 22 40
M  V30 END BOND
M  V30 END CTAB
M  END
>  <Dataset>  (210) 
ChEMBL_Kinases

>  <Ligand_Instance>  (210) 
nan

>  <PDB_ID>  (210) 
nan

>  <Standardized_SMILES>  (210) 
CC(C)(CO)Nc1cc(-c2ccncc2F)nc2cnccc12

>  <Name>  (210) 
nan

>  <Pocket>  (210) 
nan

>  <ATP_Site>  (210) 
nan

>  <Peripheral>  (210) 
nan

>  <Num_H_Atoms_ProtBoundConf>  (210) 
nan

>  <Num_Resolved_Atoms>  (210) 
nan

>  <Num_Not_Resolved_Atoms>  (210) 
nan

$$$$
CHEMBL4456432
     RDKit          3D

  0  0  0  0  0  0  0  0  0  0999 V3000
M  V30 BEGIN CTAB
M  V30 COUNTS 33 35 0 0 0
M  V30 BEGIN ATOM
M  V30 1 N 1.406568 -4.967957 2.969906 0
M  V30 2 C 2.213487 -5.097572 1.804429 0
M  V30 3 O 3.048512 -6.054407 1.671233 0
M  V30 4 C 2.124316 -4.140002 0.703150 0
M  V30 5 N 2.861877 -4.217854 -0.415148 0
M  V30 6 C 2.518443 -3.179460 -1.201324 0
M  V30 7 C 1.547679 -2.477572 -0.511144 0
M  V30 8 C 0.903924 -1.265287 -1.027415 0
M  V30 9 C 1.231043 -0.734383 -2.260737 0
M  V30 10 C 0.629256 0.415950 -2.765638 0
M  V30 11 N -0.302486 0.998282 -1.984152 0
M  V30 12 C -0.655478 0.519412 -0.775897 0
M  V30 13 N -1.667039 1.217788 -0.013743 0
M  V30 14 C -1.027213 2.186419 0.799169 0
M  V30 15 O 0.156968 2.568117 1.008080 0
M  V30 16 C -1.739122 3.109070 1.731464 0
M  V30 17 C -3.153246 3.453783 1.580630 0
M  V30 18 C -2.755273 2.521125 2.693172 0
M  V30 19 C -0.058842 -0.620544 -0.276015 0
M  V30 20 N 1.290536 -3.064666 0.679765 0
M  V30 21 H 1.504211 -4.612378 3.944513 0
M  V30 22 H 0.458895 -5.131650 3.389339 0
M  V30 23 H 2.939701 -2.964030 -2.178962 0
M  V30 24 H 1.991674 -1.259620 -2.833681 0
M  V30 25 H 0.920287 0.795962 -3.742510 0
M  V30 26 H -2.713938 1.191754 0.087495 0
M  V30 27 H -1.029606 3.781262 2.263819 0
M  V30 28 H -3.714292 3.056963 0.708494 0
M  V30 29 H -3.453426 4.469708 1.960805 0
M  V30 30 H -2.805673 2.853596 3.736283 0
M  V30 31 H -2.994984 1.449486 2.557949 0
M  V30 32 H -0.361047 -0.995371 0.712553 0
M  V30 33 H 0.625267 -2.787995 1.419224 0
M  V30 END ATOM
M  V30 BEGIN BOND
M  V30 1 1 1 2
M  V30 2 2 2 3
M  V30 3 1 2 4
M  V30 4 2 4 5
M  V30 5 1 5 6
M  V30 6 2 6 7
M  V30 7 1 7 8
M  V30 8 2 8 9
M  V30 9 1 9 10
M  V30 10 2 10 11
M  V30 11 1 11 12
M  V30 12 1 12 13
M  V30 13 1 13 14
M  V30 14 2 14 15
M  V30 15 1 14 16
M  V30 16 1 16 17
M  V30 17 1 17 18
M  V30 18 2 12 19
M  V30 19 1 7 20
M  V30 20 1 20 4
M  V30 21 1 19 8
M  V30 22 1 18 16
M  V30 23 1 1 21
M  V30 24 1 1 22
M  V30 25 1 6 23
M  V30 26 1 9 24
M  V30 27 1 10 25
M  V30 28 1 13 26
M  V30 29 1 16 27
M  V30 30 1 17 28
M  V30 31 1 17 29
M  V30 32 1 18 30
M  V30 33 1 18 31
M  V30 34 1 19 32
M  V30 35 1 20 33
M  V30 END BOND
M  V30 END CTAB
M  END
>  <Dataset>  (211) 
ChEMBL_Kinases

>  <Ligand_Instance>  (211) 
nan

>  <PDB_ID>  (211) 
nan

>  <Standardized_SMILES>  (211) 
NC(=O)c1ncc(-c2ccnc(NC(=O)C3CC3)c2)[nH]1

>  <Name>  (211) 
nan

>  <Pocket>  (211) 
nan

>  <ATP_Site>  (211) 
nan

>  <Peripheral>  (211) 
nan

>  <Num_H_Atoms_ProtBoundConf>  (211) 
nan

>  <Num_Resolved_Atoms>  (211) 
nan

>  <Num_Not_Resolved_Atoms>  (211) 
nan

$$$$
CHEMBL4456423
     RDKit          3D

  0  0  0  0  0  0  0  0  0  0999 V3000
M  V30 BEGIN CTAB
M  V30 COUNTS 72 77 0 0 0
M  V30 BEGIN ATOM
M  V30 1 C -2.087475 -4.112937 3.122951 0
M  V30 2 C -1.578713 -2.731633 3.053720 0
M  V30 3 C -0.411426 -2.404699 2.402181 0
M  V30 4 C 0.036444 -1.100755 2.363105 0
M  V30 5 C 1.243564 -0.630502 1.691098 0
M  V30 6 C 2.282191 0.191499 2.152935 0
M  V30 7 N 3.186740 0.340607 1.152357 0
M  V30 8 N 2.772978 -0.330993 0.113869 0
M  V30 9 C 3.259236 -0.520968 -1.124500 0
M  V30 10 N 4.470758 0.106645 -1.443792 0
M  V30 11 C 4.835996 1.489550 -1.336543 0
M  V30 12 C 3.972106 2.428523 -2.147767 0
M  V30 13 C 2.531961 2.396512 -1.763362 0
M  V30 14 C 1.787190 3.635962 -2.214933 0
M  V30 15 O 2.463077 4.746749 -1.724227 0
M  V30 16 C 3.617190 4.878479 -2.486766 0
M  V30 17 C 4.600144 3.821212 -2.017525 0
M  V30 18 C 2.625450 -1.289397 -2.100459 0
M  V30 19 C 1.417575 -1.888120 -1.756525 0
M  V30 20 N 0.671402 -2.680772 -2.665652 0
M  V30 21 C -0.567542 -3.341005 -2.482250 0
M  V30 22 C -0.607237 -4.423389 -1.434997 0
M  V30 23 C -2.093941 -4.788527 -1.566498 0
M  V30 24 C -2.741304 -3.440259 -1.551680 0
M  V30 25 C -1.673146 -2.437482 -1.981722 0
M  V30 26 N 0.966885 -1.682117 -0.527889 0
M  V30 27 C 1.595000 -0.948042 0.369924 0
M  V30 28 C -0.694259 -0.105103 2.987634 0
M  V30 29 C -1.881422 -0.389770 3.658441 0
M  V30 30 C -2.293759 -1.730018 3.667685 0
M  V30 31 C -3.571731 -1.894598 4.392214 0
M  V30 32 O -3.845480 -2.518579 5.443989 0
M  V30 33 N -4.661603 -1.202398 3.742650 0
M  V30 34 C -6.041618 -1.145849 4.176012 0
M  V30 35 C -6.805226 0.133229 3.758684 0
M  V30 36 C -7.095848 -1.172008 3.019238 0
M  V30 37 H -1.247171 -4.841369 3.102082 0
M  V30 38 H -2.812548 -4.356933 2.345855 0
M  V30 39 H -2.637262 -4.209574 4.094959 0
M  V30 40 H 0.188580 -3.148356 1.901246 0
M  V30 41 H 2.232922 0.578092 3.180116 0
M  V30 42 H 5.155257 -0.626835 -1.807868 0
M  V30 43 H 4.862021 1.884843 -0.302966 0
M  V30 44 H 5.867781 1.588229 -1.790015 0
M  V30 45 H 4.053400 2.190848 -3.234098 0
M  V30 46 H 2.324925 2.279698 -0.690375 0
M  V30 47 H 2.043081 1.551304 -2.319919 0
M  V30 48 H 0.781510 3.598592 -1.742746 0
M  V30 49 H 1.744313 3.714692 -3.310747 0
M  V30 50 H 4.066340 5.862317 -2.226540 0
M  V30 51 H 3.395697 4.825086 -3.551380 0
M  V30 52 H 5.527563 3.820083 -2.589554 0
M  V30 53 H 4.812731 4.021618 -0.950099 0
M  V30 54 H 3.021641 -1.440312 -3.098614 0
M  V30 55 H 1.122285 -2.788956 -3.625776 0
M  V30 56 H -0.940791 -3.810320 -3.411621 0
M  V30 57 H -0.498090 -4.080859 -0.401902 0
M  V30 58 H 0.027815 -5.290263 -1.695665 0
M  V30 59 H -2.159831 -5.233626 -2.599376 0
M  V30 60 H -2.428775 -5.489111 -0.801668 0
M  V30 61 H -3.650319 -3.386288 -2.191668 0
M  V30 62 H -3.095992 -3.243151 -0.515813 0
M  V30 63 H -2.032981 -1.708056 -2.713369 0
M  V30 64 H -1.328914 -1.951188 -1.045916 0
M  V30 65 H -0.371120 0.941704 2.981758 0
M  V30 66 H -2.412856 0.423172 4.128558 0
M  V30 67 H -4.485485 -0.663607 2.850045 0
M  V30 68 H -6.385138 -1.634077 5.089147 0
M  V30 69 H -6.192055 0.902351 3.225860 0
M  V30 70 H -7.637780 0.462791 4.409360 0
M  V30 71 H -8.052402 -1.682537 3.232944 0
M  V30 72 H -6.660237 -1.237181 2.004796 0
M  V30 END ATOM
M  V30 BEGIN BOND
M  V30 1 1 1 2
M  V30 2 2 2 3
M  V30 3 1 3 4
M  V30 4 1 4 5
M  V30 5 1 5 6
M  V30 6 2 6 7
M  V30 7 1 7 8
M  V30 8 1 8 9
M  V30 9 1 9 10
M  V30 10 1 10 11
M  V30 11 1 11 12
M  V30 12 1 12 13
M  V30 13 1 13 14
M  V30 14 1 14 15
M  V30 15 1 15 16
M  V30 16 1 16 17
M  V30 17 2 9 18
M  V30 18 1 18 19
M  V30 19 1 19 20
M  V30 20 1 20 21
M  V30 21 1 21 22
M  V30 22 1 22 23
M  V30 23 1 23 24
M  V30 24 1 24 25
M  V30 25 2 19 26
M  V30 26 1 26 27
M  V30 27 2 4 28
M  V30 28 1 28 29
M  V30 29 2 29 30
M  V30 30 1 30 31
M  V30 31 2 31 32
M  V30 32 1 31 33
M  V30 33 1 33 34
M  V30 34 1 34 35
M  V30 35 1 35 36
M  V30 36 1 30 2
M  V30 37 1 36 34
M  V30 38 2 27 5
M  V30 39 1 27 8
M  V30 40 1 17 12
M  V30 41 1 25 21
M  V30 42 1 1 37
M  V30 43 1 1 38
M  V30 44 1 1 39
M  V30 45 1 3 40
M  V30 46 1 6 41
M  V30 47 1 10 42
M  V30 48 1 11 43
M  V30 49 1 11 44
M  V30 50 1 12 45
M  V30 51 1 13 46
M  V30 52 1 13 47
M  V30 53 1 14 48
M  V30 54 1 14 49
M  V30 55 1 16 50
M  V30 56 1 16 51
M  V30 57 1 17 52
M  V30 58 1 17 53
M  V30 59 1 18 54
M  V30 60 1 20 55
M  V30 61 1 21 56
M  V30 62 1 22 57
M  V30 63 1 22 58
M  V30 64 1 23 59
M  V30 65 1 23 60
M  V30 66 1 24 61
M  V30 67 1 24 62
M  V30 68 1 25 63
M  V30 69 1 25 64
M  V30 70 1 28 65
M  V30 71 1 29 66
M  V30 72 1 33 67
M  V30 73 1 34 68
M  V30 74 1 35 69
M  V30 75 1 35 70
M  V30 76 1 36 71
M  V30 77 1 36 72
M  V30 END BOND
M  V30 END CTAB
M  END
>  <Dataset>  (212) 
ChEMBL_Kinases

>  <Ligand_Instance>  (212) 
nan

>  <PDB_ID>  (212) 
nan

>  <Standardized_SMILES>  (212) 
Cc1cc(-c2cnn3c(NCC4CCOCC4)cc(NC4CCCC4)nc23)ccc1C(=O)NC1CC1

>  <Name>  (212) 
nan

>  <Pocket>  (212) 
nan

>  <ATP_Site>  (212) 
nan

>  <Peripheral>  (212) 
nan

>  <Num_H_Atoms_ProtBoundConf>  (212) 
nan

>  <Num_Resolved_Atoms>  (212) 
nan

>  <Num_Not_Resolved_Atoms>  (212) 
nan

$$$$
CHEMBL4745928
     RDKit          3D

  0  0  0  0  0  0  0  0  0  0999 V3000
M  V30 BEGIN CTAB
M  V30 COUNTS 52 59 0 0 0
M  V30 BEGIN ATOM
M  V30 1 C 3.371820 -1.819789 -0.106204 0
M  V30 2 C 2.122421 -1.188590 0.418431 0 CFG=2
M  V30 3 O 2.200761 0.198366 0.240747 0
M  V30 4 C 1.718991 0.846976 1.335275 0 CFG=2
M  V30 5 C 1.756654 -0.048421 2.532827 0
M  V30 6 C 2.106494 -1.374858 1.918255 0 CFG=1
M  V30 7 O 1.156479 -2.363134 2.264114 0
M  V30 8 C 3.400181 -1.785284 2.498207 0
M  V30 9 O 4.509243 -1.183453 2.424729 0
M  V30 10 O 3.592788 -2.959444 3.250574 0
M  V30 11 N 0.287127 1.171362 1.125059 0
M  V30 12 C -0.419138 2.257090 1.474870 0
M  V30 13 C 0.067891 3.363775 2.138153 0
M  V30 14 C -0.810638 4.388652 2.414894 0
M  V30 15 C -2.131399 4.269929 2.021732 0
M  V30 16 C -2.504795 3.119099 1.365770 0
M  V30 17 C -1.712869 2.056222 1.048493 0
M  V30 18 C -1.819779 0.843984 0.430712 0
M  V30 19 C -2.873159 0.190666 -0.143915 0
M  V30 20 C -2.580738 -1.050666 -0.662516 0
M  V30 21 C -1.332595 -1.612307 -0.619314 0
M  V30 22 C -0.842531 -2.808590 -1.055522 0
M  V30 23 C -1.289576 -3.917159 -1.677827 0
M  V30 24 C -0.535894 -5.024128 -1.995566 0
M  V30 25 C 0.821662 -5.003159 -1.642079 0
M  V30 26 C 1.286937 -3.876988 -1.007027 0
M  V30 27 C 0.486177 -2.786809 -0.709762 0
M  V30 28 N 0.888588 -1.677000 -0.090841 0
M  V30 29 C -0.276336 -0.957654 -0.045060 0
M  V30 30 C -0.562708 0.306439 0.487411 0
M  V30 31 C -3.835054 -1.527336 -1.205025 0
M  V30 32 O -4.205326 -2.563208 -1.792253 0
M  V30 33 N -4.854002 -0.550488 -0.995080 0
M  V30 34 C -4.262865 0.552394 -0.320510 0
M  V30 35 O -4.956674 1.542098 -0.022787 0
M  V30 36 H 3.295309 -1.907040 -1.204650 0
M  V30 37 H 3.780212 -2.649852 0.452715 0
M  V30 38 H 4.241847 -1.063647 -0.041172 0
M  V30 39 H 2.286144 1.764381 1.558773 0
M  V30 40 H 0.794524 -0.161467 3.062065 0
M  V30 41 H 2.477294 0.293928 3.309623 0
M  V30 42 H 1.405415 -2.824113 3.111946 0
M  V30 43 H 4.163597 -2.968183 4.108362 0
M  V30 44 H 1.103253 3.438399 2.437394 0
M  V30 45 H -0.434611 5.256442 2.933509 0
M  V30 46 H -2.822460 5.069732 2.236318 0
M  V30 47 H -3.528991 3.083977 1.089073 0
M  V30 48 H -2.294784 -3.979695 -1.960277 0
M  V30 49 H -0.945614 -5.882901 -2.493926 0
M  V30 50 H 1.440836 -5.865177 -1.881127 0
M  V30 51 H 2.318173 -3.933522 -0.757878 0
M  V30 52 H -5.883935 -0.596393 -1.276024 0
M  V30 END ATOM
M  V30 BEGIN BOND
M  V30 1 1 2 1 CFG=3
M  V30 2 1 2 3
M  V30 3 1 3 4
M  V30 4 1 4 5
M  V30 5 1 5 6
M  V30 6 1 6 7 CFG=3
M  V30 7 1 6 8
M  V30 8 2 8 9
M  V30 9 1 8 10
M  V30 10 1 4 11
M  V30 11 1 11 12
M  V30 12 2 12 13
M  V30 13 1 13 14
M  V30 14 2 14 15
M  V30 15 1 15 16
M  V30 16 2 16 17
M  V30 17 1 17 18
M  V30 18 2 18 19
M  V30 19 1 19 20
M  V30 20 2 20 21
M  V30 21 1 21 22
M  V30 22 2 22 23
M  V30 23 1 23 24
M  V30 24 2 24 25
M  V30 25 1 25 26
M  V30 26 2 26 27
M  V30 27 1 27 28
M  V30 28 1 28 29
M  V30 29 2 29 30
M  V30 30 1 20 31
M  V30 31 2 31 32
M  V30 32 1 31 33
M  V30 33 1 33 34
M  V30 34 2 34 35
M  V30 35 1 6 2
M  V30 36 1 30 11
M  V30 37 1 28 2
M  V30 38 1 17 12
M  V30 39 1 30 18
M  V30 40 1 34 19
M  V30 41 1 29 21
M  V30 42 1 27 22
M  V30 43 1 1 36
M  V30 44 1 1 37
M  V30 45 1 1 38
M  V30 46 1 4 39 CFG=1
M  V30 47 1 5 40
M  V30 48 1 5 41
M  V30 49 1 7 42
M  V30 50 1 10 43
M  V30 51 1 13 44
M  V30 52 1 14 45
M  V30 53 1 15 46
M  V30 54 1 16 47
M  V30 55 1 23 48
M  V30 56 1 24 49
M  V30 57 1 25 50
M  V30 58 1 26 51
M  V30 59 1 33 52
M  V30 END BOND
M  V30 END CTAB
M  END
>  <Dataset>  (213) 
ChEMBL_Kinases

>  <Ligand_Instance>  (213) 
nan

>  <PDB_ID>  (213) 
nan

>  <Standardized_SMILES>  (213) 
C[C@]12O[C@H](C[C@]1(O)C(=O)O)n1c3ccccc3c3c4c(c5c6ccccc6n2c5c31)C(=O)NC4=O

>  <Name>  (213) 
nan

>  <Pocket>  (213) 
nan

>  <ATP_Site>  (213) 
nan

>  <Peripheral>  (213) 
nan

>  <Num_H_Atoms_ProtBoundConf>  (213) 
nan

>  <Num_Resolved_Atoms>  (213) 
nan

>  <Num_Not_Resolved_Atoms>  (213) 
nan

$$$$
CHEMBL4456319
     RDKit          3D

  0  0  0  0  0  0  0  0  0  0999 V3000
M  V30 BEGIN CTAB
M  V30 COUNTS 35 38 0 0 0
M  V30 BEGIN ATOM
M  V30 1 O -2.082681 -3.832388 3.417493 0
M  V30 2 C -1.174326 -3.342738 2.505111 0
M  V30 3 C -1.425358 -1.821596 2.317686 0
M  V30 4 N -0.601370 -1.141651 1.423726 0
M  V30 5 C 0.142995 -0.299794 0.556536 0
M  V30 6 N 1.170082 -0.613935 -0.253357 0
M  V30 7 C 1.853422 0.183792 -1.055390 0
M  V30 8 C 2.934429 -0.394119 -1.843166 0
M  V30 9 C 3.244105 0.004972 -3.131151 0
M  V30 10 N 4.293265 -0.724132 -3.579253 0
M  V30 11 N 4.617913 -1.548883 -2.590706 0
M  V30 12 C 3.819498 -1.384014 -1.515999 0
M  V30 13 N 1.457947 1.453564 -1.043886 0
M  V30 14 C 0.459902 1.962623 -0.310152 0
M  V30 15 C 0.202792 3.308719 -0.438344 0
M  V30 16 N -0.805970 3.783056 0.314299 0
M  V30 17 C -1.520496 2.993598 1.141393 0
M  V30 18 C -1.188044 1.662957 1.200071 0
M  V30 19 C -0.182892 1.039088 0.489575 0
M  V30 20 C -2.946364 -1.552067 2.119758 0
M  V30 21 C -2.215849 -1.230215 3.403321 0
M  V30 22 H -1.785095 -3.848096 4.351112 0
M  V30 23 H -0.119088 -3.457416 2.774558 0
M  V30 24 H -1.373561 -3.813697 1.530093 0
M  V30 25 H -0.069223 -2.001802 1.185515 0
M  V30 26 H 2.774407 0.772304 -3.760059 0
M  V30 27 H 5.411377 -2.215440 -2.712968 0
M  V30 28 H 3.861508 -1.920987 -0.578639 0
M  V30 29 H 0.797813 3.907996 -1.111910 0
M  V30 30 H -2.324191 3.407080 1.731752 0
M  V30 31 H -1.780977 1.074573 1.869582 0
M  V30 32 H -3.255926 -0.707400 1.508701 0
M  V30 33 H -3.622203 -2.435292 2.100162 0
M  V30 34 H -2.496131 -1.930427 4.246299 0
M  V30 35 H -2.177547 -0.209690 3.767526 0
M  V30 END ATOM
M  V30 BEGIN BOND
M  V30 1 1 1 2
M  V30 2 1 2 3
M  V30 3 1 3 4
M  V30 4 1 4 5
M  V30 5 2 5 6
M  V30 6 1 6 7
M  V30 7 1 7 8
M  V30 8 1 8 9
M  V30 9 2 9 10
M  V30 10 1 10 11
M  V30 11 1 11 12
M  V30 12 2 7 13
M  V30 13 1 13 14
M  V30 14 2 14 15
M  V30 15 1 15 16
M  V30 16 2 16 17
M  V30 17 1 17 18
M  V30 18 2 18 19
M  V30 19 1 3 20
M  V30 20 1 20 21
M  V30 21 1 21 3
M  V30 22 1 19 5
M  V30 23 2 12 8
M  V30 24 1 19 14
M  V30 25 1 1 22
M  V30 26 1 2 23
M  V30 27 1 2 24
M  V30 28 1 4 25
M  V30 29 1 9 26
M  V30 30 1 11 27
M  V30 31 1 12 28
M  V30 32 1 15 29
M  V30 33 1 17 30
M  V30 34 1 18 31
M  V30 35 1 20 32
M  V30 36 1 20 33
M  V30 37 1 21 34
M  V30 38 1 21 35
M  V30 END BOND
M  V30 END CTAB
M  END
>  <Dataset>  (214) 
ChEMBL_Kinases

>  <Ligand_Instance>  (214) 
nan

>  <PDB_ID>  (214) 
nan

>  <Standardized_SMILES>  (214) 
OCC1(Nc2nc(-c3cn[nH]c3)nc3cnccc23)CC1

>  <Name>  (214) 
nan

>  <Pocket>  (214) 
nan

>  <ATP_Site>  (214) 
nan

>  <Peripheral>  (214) 
nan

>  <Num_H_Atoms_ProtBoundConf>  (214) 
nan

>  <Num_Resolved_Atoms>  (214) 
nan

>  <Num_Not_Resolved_Atoms>  (214) 
nan

$$$$
CHEMBL4745956
     RDKit          3D

  0  0  0  0  0  0  0  0  0  0999 V3000
M  V30 BEGIN CTAB
M  V30 COUNTS 52 54 0 0 0
M  V30 BEGIN ATOM
M  V30 1 N 2.789005 -5.483270 6.147644 0
M  V30 2 C 2.589175 -5.146136 5.060780 0
M  V30 3 C 2.342989 -4.743952 3.681877 0
M  V30 4 C 2.754886 -3.514468 3.214043 0
M  V30 5 N 2.546187 -3.100525 1.934023 0
M  V30 6 C 1.901493 -3.939912 1.078576 0
M  V30 7 N 1.565383 -3.752135 -0.291707 0
M  V30 8 C 0.300533 -3.104125 -0.318429 0
M  V30 9 C 0.162497 -1.733736 -0.369534 0
M  V30 10 C -0.999519 -0.992907 -0.393215 0
M  V30 11 N -1.048169 0.403743 -0.390396 0
M  V30 12 C -0.197591 1.550319 -0.410598 0
M  V30 13 C 0.481070 1.909542 0.865389 0
M  V30 14 C 1.327247 3.162814 0.623336 0
M  V30 15 C 1.686142 3.704369 1.980950 0
M  V30 16 N 1.533217 2.671684 3.001044 0
M  V30 17 C 2.215046 1.453186 2.600669 0
M  V30 18 C 1.419675 0.889990 1.431918 0
M  V30 19 C -2.195626 -1.711245 -0.365957 0
M  V30 20 C -3.575492 -1.213262 -0.475238 0
M  V30 21 C -4.086987 -1.071074 -1.878175 0
M  V30 22 C -3.390620 -0.158999 -2.807076 0
M  V30 23 O -3.392763 1.165656 -2.460339 0
M  V30 24 C -2.058870 -3.105094 -0.312704 0
M  V30 25 N -0.890212 -3.750162 -0.290525 0
M  V30 26 C 1.484307 -5.187878 1.555245 0
M  V30 27 N 1.692982 -5.606982 2.842009 0
M  V30 28 H 3.269687 -2.813738 3.854958 0
M  V30 29 H 2.090093 -4.009637 -1.180582 0
M  V30 30 H 1.127968 -1.229992 -0.406431 0
M  V30 31 H -2.022230 0.800339 -0.310483 0
M  V30 32 H 0.603041 1.397097 -1.212609 0
M  V30 33 H -0.727369 2.458270 -0.763780 0
M  V30 34 H -0.297283 2.221236 1.601960 0
M  V30 35 H 0.755588 3.920204 0.074621 0
M  V30 36 H 2.260120 2.886604 0.090936 0
M  V30 37 H 2.684551 4.152757 2.039622 0
M  V30 38 H 0.954220 4.506315 2.241107 0
M  V30 39 H 1.809064 3.006220 3.930380 0
M  V30 40 H 2.143254 0.746902 3.446137 0
M  V30 41 H 3.266621 1.637801 2.327659 0
M  V30 42 H 0.829950 0.049091 1.800333 0
M  V30 43 H 2.182402 0.604109 0.670534 0
M  V30 44 H -4.253082 -1.970802 0.010602 0
M  V30 45 H -3.693613 -0.264377 0.091475 0
M  V30 46 H -4.164307 -2.077961 -2.380896 0
M  V30 47 H -5.183625 -0.749040 -1.850769 0
M  V30 48 H -3.963062 -0.215109 -3.786694 0
M  V30 49 H -2.371976 -0.518412 -3.103666 0
M  V30 50 H -2.922372 1.662590 -3.163693 0
M  V30 51 H -2.933621 -3.736704 -0.286386 0
M  V30 52 H 0.964341 -5.955747 0.995741 0
M  V30 END ATOM
M  V30 BEGIN BOND
M  V30 1 3 1 2
M  V30 2 1 2 3
M  V30 3 2 3 4
M  V30 4 1 4 5
M  V30 5 2 5 6
M  V30 6 1 6 7
M  V30 7 1 7 8
M  V30 8 2 8 9
M  V30 9 1 9 10
M  V30 10 1 10 11
M  V30 11 1 11 12
M  V30 12 1 12 13
M  V30 13 1 13 14
M  V30 14 1 14 15
M  V30 15 1 15 16
M  V30 16 1 16 17
M  V30 17 1 17 18
M  V30 18 2 10 19
M  V30 19 1 19 20
M  V30 20 1 20 21
M  V30 21 1 21 22
M  V30 22 1 22 23
M  V30 23 1 19 24
M  V30 24 2 24 25
M  V30 25 1 6 26
M  V30 26 2 26 27
M  V30 27 1 27 3
M  V30 28 1 25 8
M  V30 29 1 18 13
M  V30 30 1 4 28
M  V30 31 1 7 29
M  V30 32 1 9 30
M  V30 33 1 11 31
M  V30 34 1 12 32
M  V30 35 1 12 33
M  V30 36 1 13 34
M  V30 37 1 14 35
M  V30 38 1 14 36
M  V30 39 1 15 37
M  V30 40 1 15 38
M  V30 41 1 16 39
M  V30 42 1 17 40
M  V30 43 1 17 41
M  V30 44 1 18 42
M  V30 45 1 18 43
M  V30 46 1 20 44
M  V30 47 1 20 45
M  V30 48 1 21 46
M  V30 49 1 21 47
M  V30 50 1 22 48
M  V30 51 1 22 49
M  V30 52 1 23 50
M  V30 53 1 24 51
M  V30 54 1 26 52
M  V30 END BOND
M  V30 END CTAB
M  END
>  <Dataset>  (215) 
ChEMBL_Kinases

>  <Ligand_Instance>  (215) 
nan

>  <PDB_ID>  (215) 
nan

>  <Standardized_SMILES>  (215) 
N#Cc1cnc(Nc2cc(NCC3CCNCC3)c(CCCO)cn2)cn1

>  <Name>  (215) 
nan

>  <Pocket>  (215) 
nan

>  <ATP_Site>  (215) 
nan

>  <Peripheral>  (215) 
nan

>  <Num_H_Atoms_ProtBoundConf>  (215) 
nan

>  <Num_Resolved_Atoms>  (215) 
nan

>  <Num_Not_Resolved_Atoms>  (215) 
nan

$$$$
CHEMBL4456130
     RDKit          3D

  0  0  0  0  0  0  0  0  0  0999 V3000
M  V30 BEGIN CTAB
M  V30 COUNTS 60 63 0 0 0
M  V30 BEGIN ATOM
M  V30 1 C 7.189519 -2.553251 -1.405963 0
M  V30 2 C 6.057201 -1.900277 -1.499008 0
M  V30 3 C 5.873553 -0.778579 -0.601683 0
M  V30 4 O 6.577243 -0.246545 0.275705 0
M  V30 5 N 4.611139 -0.076266 -0.707626 0
M  V30 6 C 4.227851 1.065741 0.077600 0
M  V30 7 C 2.886964 1.594404 -0.273327 0
M  V30 8 C 2.850513 2.495054 -1.321620 0
M  V30 9 C 1.552445 2.969616 -1.601635 0
M  V30 10 C 0.415133 2.612627 -0.940591 0
M  V30 11 O -0.798855 2.983387 -1.137194 0
M  V30 12 C -2.015870 3.400738 -1.381802 0
M  V30 13 C 0.553530 1.686531 0.118156 0
M  V30 14 N -0.571322 1.223443 0.922410 0
M  V30 15 C -0.382619 0.084622 1.770367 0
M  V30 16 N -0.901451 -0.961414 1.052628 0
M  V30 17 C -0.881443 -2.244604 1.519170 0
M  V30 18 N -1.470773 -3.220225 0.630882 0
M  V30 19 C -2.431212 -2.759314 -0.338999 0
M  V30 20 C -2.068152 -2.754238 -1.706340 0
M  V30 21 C -2.970125 -2.372770 -2.658031 0
M  V30 22 C -4.286675 -1.961046 -2.397756 0
M  V30 23 C -4.661939 -1.957474 -1.065086 0
M  V30 24 C -3.763413 -2.345082 -0.119238 0
M  V30 25 C -4.158208 -2.391547 1.292872 0
M  V30 26 O -3.409296 -2.806335 2.223676 0
M  V30 27 N -5.401304 -2.007654 1.906743 0
M  V30 28 C -5.260665 -2.263725 3.319958 0
M  V30 29 C -0.311444 -2.431322 2.758389 0
M  V30 30 C -0.220559 -3.663912 3.407195 0
M  V30 31 C 0.406617 -3.277920 4.590772 0
M  V30 32 N 0.652669 -1.962046 4.632220 0
M  V30 33 C 0.214856 -1.408871 3.506296 0
M  V30 34 N 0.145884 -0.191003 2.958668 0
M  V30 35 C 1.806586 1.170184 0.454539 0
M  V30 36 H 7.485131 -3.422874 -2.016669 0
M  V30 37 H 8.137569 -2.631832 -0.903691 0
M  V30 38 H 5.343800 -2.222042 -2.218197 0
M  V30 39 H 3.878325 -0.401900 -1.397442 0
M  V30 40 H 5.001105 1.843291 -0.147530 0
M  V30 41 H 4.280361 0.866621 1.172613 0
M  V30 42 H 3.684766 2.837393 -1.904190 0
M  V30 43 H 1.380438 3.666144 -2.393755 0
M  V30 44 H -2.048008 4.526758 -1.496062 0
M  V30 45 H -2.809005 3.174814 -0.589000 0
M  V30 46 H -2.517438 3.007733 -2.338735 0
M  V30 47 H -1.484262 1.677802 0.911776 0
M  V30 48 H -1.454405 -4.221686 0.418689 0
M  V30 49 H -1.062352 -3.045214 -2.070989 0
M  V30 50 H -2.795670 -2.337862 -3.747072 0
M  V30 51 H -4.991717 -1.672196 -3.151868 0
M  V30 52 H -5.661302 -1.663038 -0.702843 0
M  V30 53 H -6.114805 -1.630444 1.233996 0
M  V30 54 H -4.980689 -3.318235 3.557222 0
M  V30 55 H -4.428522 -1.636644 3.772580 0
M  V30 56 H -6.164055 -2.042289 3.905628 0
M  V30 57 H -0.535867 -4.628960 3.099014 0
M  V30 58 H 0.691100 -3.940489 5.417311 0
M  V30 59 H 1.098243 -1.343867 5.342935 0
M  V30 60 H 1.967556 0.463125 1.248800 0
M  V30 END ATOM
M  V30 BEGIN BOND
M  V30 1 2 1 2
M  V30 2 1 2 3
M  V30 3 2 3 4
M  V30 4 1 3 5
M  V30 5 1 5 6
M  V30 6 1 6 7
M  V30 7 2 7 8
M  V30 8 1 8 9
M  V30 9 2 9 10
M  V30 10 1 10 11
M  V30 11 1 11 12
M  V30 12 1 10 13
M  V30 13 1 13 14
M  V30 14 1 14 15
M  V30 15 2 15 16
M  V30 16 1 16 17
M  V30 17 1 17 18
M  V30 18 1 18 19
M  V30 19 2 19 20
M  V30 20 1 20 21
M  V30 21 2 21 22
M  V30 22 1 22 23
M  V30 23 2 23 24
M  V30 24 1 24 25
M  V30 25 2 25 26
M  V30 26 1 25 27
M  V30 27 1 27 28
M  V30 28 2 17 29
M  V30 29 1 29 30
M  V30 30 2 30 31
M  V30 31 1 31 32
M  V30 32 1 32 33
M  V30 33 2 33 34
M  V30 34 2 13 35
M  V30 35 1 35 7
M  V30 36 1 34 15
M  V30 37 1 24 19
M  V30 38 1 33 29
M  V30 39 1 1 36
M  V30 40 1 1 37
M  V30 41 1 2 38
M  V30 42 1 5 39
M  V30 43 1 6 40
M  V30 44 1 6 41
M  V30 45 1 8 42
M  V30 46 1 9 43
M  V30 47 1 12 44
M  V30 48 1 12 45
M  V30 49 1 12 46
M  V30 50 1 14 47
M  V30 51 1 18 48
M  V30 52 1 20 49
M  V30 53 1 21 50
M  V30 54 1 22 51
M  V30 55 1 23 52
M  V30 56 1 27 53
M  V30 57 1 28 54
M  V30 58 1 28 55
M  V30 59 1 28 56
M  V30 60 1 30 57
M  V30 61 1 31 58
M  V30 62 1 32 59
M  V30 63 1 35 60
M  V30 END BOND
M  V30 END CTAB
M  END
>  <Dataset>  (216) 
ChEMBL_Kinases

>  <Ligand_Instance>  (216) 
nan

>  <PDB_ID>  (216) 
nan

>  <Standardized_SMILES>  (216) 
C=CC(=O)NCc1ccc(OC)c(Nc2nc(Nc3ccccc3C(=O)NC)c3cc[nH]c3n2)c1

>  <Name>  (216) 
nan

>  <Pocket>  (216) 
nan

>  <ATP_Site>  (216) 
nan

>  <Peripheral>  (216) 
nan

>  <Num_H_Atoms_ProtBoundConf>  (216) 
nan

>  <Num_Resolved_Atoms>  (216) 
nan

>  <Num_Not_Resolved_Atoms>  (216) 
nan

$$$$
CHEMBL4456099
     RDKit          3D

  0  0  0  0  0  0  0  0  0  0999 V3000
M  V30 BEGIN CTAB
M  V30 COUNTS 73 77 0 0 0
M  V30 BEGIN ATOM
M  V30 1 C 3.103443 -1.601803 4.339903 0
M  V30 2 C 4.052665 -0.557029 3.827217 0
M  V30 3 C 4.586600 -0.852207 2.440538 0 CFG=2
M  V30 4 C 5.507693 0.295993 2.104472 0
M  V30 5 O 6.751906 0.266726 1.910709 0
M  V30 6 N 4.886988 1.593371 1.990979 0
M  V30 7 C 5.604165 2.846610 2.279178 0
M  V30 8 C 3.517824 1.638336 1.579013 0
M  V30 9 C 2.829280 2.821196 1.439068 0
M  V30 10 N 1.558306 2.744847 1.048256 0
M  V30 11 C 0.882432 1.616898 0.776315 0
M  V30 12 N -0.459590 1.717399 0.368434 0
M  V30 13 C -1.377901 0.719072 0.028795 0
M  V30 14 C -1.112154 -0.634680 0.051580 0
M  V30 15 C -2.010535 -1.624364 -0.283275 0
M  V30 16 C -3.287512 -1.297674 -0.679425 0
M  V30 17 C -4.253255 -2.338299 -1.032630 0
M  V30 18 C -5.633744 -2.172323 -0.537251 0
M  V30 19 C -6.598956 -2.182470 -1.707304 0
M  V30 20 N -6.200541 -1.197366 -2.660941 0
M  V30 21 C -7.225836 -0.700459 -3.521278 0
M  V30 22 C -4.924716 -1.404804 -3.262752 0
M  V30 23 C -4.220997 -2.534784 -2.550573 0
M  V30 24 C -3.589613 0.041418 -0.714394 0
M  V30 25 C -2.668047 1.002956 -0.373108 0
M  V30 26 O -3.071242 2.336058 -0.440534 0
M  V30 27 C -4.380320 2.704579 -0.845461 0
M  V30 28 N 1.550263 0.461422 0.912556 0
M  V30 29 C 2.831916 0.473588 1.302519 0
M  V30 30 N 3.526593 -0.786230 1.438754 0
M  V30 31 C 3.175657 -1.909611 0.607489 0
M  V30 32 C 2.743079 -3.136655 1.344791 0
M  V30 33 C 2.846159 -4.211207 0.264053 0
M  V30 34 C 3.805980 -3.693537 -0.777331 0
M  V30 35 C 4.369017 -2.413953 -0.171414 0
M  V30 36 H 3.544652 -2.596042 4.447615 0
M  V30 37 H 2.801378 -1.275761 5.373066 0
M  V30 38 H 2.162492 -1.654454 3.762888 0
M  V30 39 H 3.506610 0.410484 3.820803 0
M  V30 40 H 4.890912 -0.490017 4.528325 0
M  V30 41 H 5.137844 -1.789365 2.407284 0
M  V30 42 H 5.367987 3.609702 1.509579 0
M  V30 43 H 6.669885 2.614288 2.239700 0
M  V30 44 H 5.263926 3.228274 3.264759 0
M  V30 45 H 3.336536 3.760568 1.646838 0
M  V30 46 H -0.866178 2.700360 0.297870 0
M  V30 47 H -0.149364 -1.011502 0.344727 0
M  V30 48 H -1.763317 -2.679666 -0.254075 0
M  V30 49 H -3.827458 -3.310616 -0.643500 0
M  V30 50 H -5.939613 -3.053770 0.100141 0
M  V30 51 H -5.784488 -1.304031 0.137287 0
M  V30 52 H -6.487202 -3.201412 -2.166325 0
M  V30 53 H -7.640289 -2.004057 -1.377708 0
M  V30 54 H -6.973475 -0.682026 -4.586723 0
M  V30 55 H -7.424049 0.373565 -3.231860 0
M  V30 56 H -8.170220 -1.269919 -3.302618 0
M  V30 57 H -5.079116 -1.677636 -4.341659 0
M  V30 58 H -4.289922 -0.475524 -3.216902 0
M  V30 59 H -4.594909 -3.512563 -2.855249 0
M  V30 60 H -3.140601 -2.444698 -2.842972 0
M  V30 61 H -4.573151 0.354979 -1.010461 0
M  V30 62 H -4.416144 3.806325 -0.941339 0
M  V30 63 H -5.140239 2.461830 -0.053920 0
M  V30 64 H -4.651773 2.271812 -1.825316 0
M  V30 65 H 2.341860 -1.609755 -0.057580 0
M  V30 66 H 3.455891 -3.451993 2.128853 0
M  V30 67 H 1.751371 -3.086219 1.794666 0
M  V30 68 H 3.190767 -5.167795 0.690379 0
M  V30 69 H 1.842572 -4.284751 -0.217056 0
M  V30 70 H 3.263408 -3.363696 -1.705346 0
M  V30 71 H 4.623325 -4.382309 -1.002590 0
M  V30 72 H 5.173594 -2.632225 0.557228 0
M  V30 73 H 4.712228 -1.717029 -0.952629 0
M  V30 END ATOM
M  V30 BEGIN BOND
M  V30 1 1 1 2
M  V30 2 1 2 3
M  V30 3 1 3 4
M  V30 4 2 4 5
M  V30 5 1 4 6
M  V30 6 1 6 7
M  V30 7 1 6 8
M  V30 8 2 8 9
M  V30 9 1 9 10
M  V30 10 2 10 11
M  V30 11 1 11 12
M  V30 12 1 12 13
M  V30 13 2 13 14
M  V30 14 1 14 15
M  V30 15 2 15 16
M  V30 16 1 16 17
M  V30 17 1 17 18
M  V30 18 1 18 19
M  V30 19 1 19 20
M  V30 20 1 20 21
M  V30 21 1 20 22
M  V30 22 1 22 23
M  V30 23 1 16 24
M  V30 24 2 24 25
M  V30 25 1 25 26
M  V30 26 1 26 27
M  V30 27 1 11 28
M  V30 28 2 28 29
M  V30 29 1 29 30
M  V30 30 1 30 31
M  V30 31 1 31 32
M  V30 32 1 32 33
M  V30 33 1 33 34
M  V30 34 1 34 35
M  V30 35 1 30 3
M  V30 36 1 35 31
M  V30 37 1 29 8
M  V30 38 1 25 13
M  V30 39 1 23 17
M  V30 40 1 1 36
M  V30 41 1 1 37
M  V30 42 1 1 38
M  V30 43 1 2 39
M  V30 44 1 2 40
M  V30 45 1 3 41 CFG=1
M  V30 46 1 7 42
M  V30 47 1 7 43
M  V30 48 1 7 44
M  V30 49 1 9 45
M  V30 50 1 12 46
M  V30 51 1 14 47
M  V30 52 1 15 48
M  V30 53 1 17 49
M  V30 54 1 18 50
M  V30 55 1 18 51
M  V30 56 1 19 52
M  V30 57 1 19 53
M  V30 58 1 21 54
M  V30 59 1 21 55
M  V30 60 1 21 56
M  V30 61 1 22 57
M  V30 62 1 22 58
M  V30 63 1 23 59
M  V30 64 1 23 60
M  V30 65 1 24 61
M  V30 66 1 27 62
M  V30 67 1 27 63
M  V30 68 1 27 64
M  V30 69 1 31 65
M  V30 70 1 32 66
M  V30 71 1 32 67
M  V30 72 1 33 68
M  V30 73 1 33 69
M  V30 74 1 34 70
M  V30 75 1 34 71
M  V30 76 1 35 72
M  V30 77 1 35 73
M  V30 END BOND
M  V30 END CTAB
M  END
>  <Dataset>  (217) 
ChEMBL_Kinases

>  <Ligand_Instance>  (217) 
nan

>  <PDB_ID>  (217) 
nan

>  <Standardized_SMILES>  (217) 
CC[C@@H]1C(=O)N(C)c2cnc(Nc3ccc(C4CCN(C)CC4)cc3OC)nc2N1C1CCCC1

>  <Name>  (217) 
nan

>  <Pocket>  (217) 
nan

>  <ATP_Site>  (217) 
nan

>  <Peripheral>  (217) 
nan

>  <Num_H_Atoms_ProtBoundConf>  (217) 
nan

>  <Num_Resolved_Atoms>  (217) 
nan

>  <Num_Not_Resolved_Atoms>  (217) 
nan

$$$$
CHEMBL4456085
     RDKit          3D

  0  0  0  0  0  0  0  0  0  0999 V3000
M  V30 BEGIN CTAB
M  V30 COUNTS 64 68 0 0 0
M  V30 BEGIN ATOM
M  V30 1 C 1.965306 -3.503299 4.868688 0
M  V30 2 O 2.810518 -2.380271 4.675456 0
M  V30 3 C 2.550030 -1.450096 3.681938 0
M  V30 4 C 1.461923 -1.627823 2.881247 0
M  V30 5 C 1.237928 -0.684635 1.915161 0
M  V30 6 C 2.006725 0.426060 1.674468 0
M  V30 7 O 1.938531 1.459328 0.776015 0
M  V30 8 C 0.987364 1.688038 -0.177093 0
M  V30 9 C 1.047487 2.774006 -1.019356 0
M  V30 10 C 0.081700 2.998221 -1.975937 0
M  V30 11 N 0.153723 4.120286 -2.841536 0
M  V30 12 C 1.110457 5.193182 -2.955807 0
M  V30 13 C 1.167540 6.103749 -1.775387 0
M  V30 14 C -0.204377 6.754340 -1.556758 0
M  V30 15 F -1.150519 5.767116 -1.329872 0
M  V30 16 F -0.165259 7.522889 -0.390365 0
M  V30 17 F -0.607500 7.513710 -2.614301 0
M  V30 18 C -0.975867 2.085112 -2.074060 0
M  V30 19 N -2.016260 2.040435 -2.898283 0
M  V30 20 C -2.775078 0.964283 -2.646689 0
M  V30 21 C -2.143636 0.330741 -1.607169 0
M  V30 22 C -2.336574 -0.933908 -0.850925 0
M  V30 23 C -2.473688 -1.989447 -1.727313 0
M  V30 24 C -2.598350 -3.260393 -1.176644 0
M  V30 25 C -2.575178 -3.373708 0.203954 0
M  V30 26 C -2.630070 -4.679513 0.915208 0
M  V30 27 O -3.465115 -5.309914 1.646223 0
M  V30 28 N -1.407659 -5.429833 0.721919 0
M  V30 29 C -1.037917 -6.738504 1.233744 0
M  V30 30 C 0.448573 -7.073689 1.318644 0
M  V30 31 C -0.356753 -7.654922 0.184077 0
M  V30 32 C -2.441470 -2.298516 1.066286 0
M  V30 33 C -2.419906 -2.411226 2.534931 0
M  V30 34 C -2.315839 -1.013140 0.523094 0
M  V30 35 N -1.018348 1.031286 -1.245868 0
M  V30 36 N -0.061816 0.876869 -0.352631 0
M  V30 37 C 3.118174 0.579018 2.513493 0
M  V30 38 F 4.033078 1.581896 2.487234 0
M  V30 39 C 3.386311 -0.363207 3.517382 0
M  V30 40 F 4.446487 -0.272319 4.360570 0
M  V30 41 H 2.334115 -4.169269 5.654784 0
M  V30 42 H 0.962782 -3.143105 5.249631 0
M  V30 43 H 1.777054 -4.079481 3.959322 0
M  V30 44 H 0.795159 -2.449540 2.971712 0
M  V30 45 H 0.405714 -0.751763 1.240180 0
M  V30 46 H 1.903078 3.409102 -0.870766 0
M  V30 47 H -0.651609 4.180543 -3.535272 0
M  V30 48 H 2.127051 4.802691 -3.232006 0
M  V30 49 H 0.843365 5.838879 -3.842052 0
M  V30 50 H 1.894529 6.931437 -2.001591 0
M  V30 51 H 1.483965 5.683487 -0.824044 0
M  V30 52 H -3.684287 0.523250 -3.038529 0
M  V30 53 H -2.505143 -1.948701 -2.798834 0
M  V30 54 H -2.713269 -4.159161 -1.763793 0
M  V30 55 H -0.624707 -5.018753 0.121251 0
M  V30 56 H -1.681029 -7.257596 1.955372 0
M  V30 57 H 0.820528 -7.791545 2.052403 0
M  V30 58 H 1.191802 -6.295150 1.047924 0
M  V30 59 H -0.152564 -7.230215 -0.813930 0
M  V30 60 H -0.639548 -8.727962 0.259909 0
M  V30 61 H -2.441237 -3.455476 2.840275 0
M  V30 62 H -3.287349 -1.871619 3.012002 0
M  V30 63 H -1.521249 -1.870660 2.910124 0
M  V30 64 H -2.201362 -0.096977 1.095902 0
M  V30 END ATOM
M  V30 BEGIN BOND
M  V30 1 1 1 2
M  V30 2 1 2 3
M  V30 3 2 3 4
M  V30 4 1 4 5
M  V30 5 2 5 6
M  V30 6 1 6 7
M  V30 7 1 7 8
M  V30 8 1 8 9
M  V30 9 2 9 10
M  V30 10 1 10 11
M  V30 11 1 11 12
M  V30 12 1 12 13
M  V30 13 1 13 14
M  V30 14 1 14 15
M  V30 15 1 14 16
M  V30 16 1 14 17
M  V30 17 1 10 18
M  V30 18 2 18 19
M  V30 19 1 19 20
M  V30 20 2 20 21
M  V30 21 1 21 22
M  V30 22 2 22 23
M  V30 23 1 23 24
M  V30 24 2 24 25
M  V30 25 1 25 26
M  V30 26 2 26 27
M  V30 27 1 26 28
M  V30 28 1 28 29
M  V30 29 1 29 30
M  V30 30 1 30 31
M  V30 31 1 25 32
M  V30 32 1 32 33
M  V30 33 2 32 34
M  V30 34 1 21 35
M  V30 35 1 35 36
M  V30 36 1 6 37
M  V30 37 1 37 38
M  V30 38 2 37 39
M  V30 39 1 39 40
M  V30 40 1 39 3
M  V30 41 2 36 8
M  V30 42 1 35 18
M  V30 43 1 34 22
M  V30 44 1 31 29
M  V30 45 1 1 41
M  V30 46 1 1 42
M  V30 47 1 1 43
M  V30 48 1 4 44
M  V30 49 1 5 45
M  V30 50 1 9 46
M  V30 51 1 11 47
M  V30 52 1 12 48
M  V30 53 1 12 49
M  V30 54 1 13 50
M  V30 55 1 13 51
M  V30 56 1 20 52
M  V30 57 1 23 53
M  V30 58 1 24 54
M  V30 59 1 28 55
M  V30 60 1 29 56
M  V30 61 1 30 57
M  V30 62 1 30 58
M  V30 63 1 31 59
M  V30 64 1 31 60
M  V30 65 1 33 61
M  V30 66 1 33 62
M  V30 67 1 33 63
M  V30 68 1 34 64
M  V30 END BOND
M  V30 END CTAB
M  END
>  <Dataset>  (218) 
ChEMBL_Kinases

>  <Ligand_Instance>  (218) 
nan

>  <PDB_ID>  (218) 
nan

>  <Standardized_SMILES>  (218) 
COc1ccc(Oc2cc(NCCC(F)(F)F)c3ncc(-c4ccc(C(=O)NC5CC5)c(C)c4)n3n2)c(F)c1F

>  <Name>  (218) 
BAY-1217389

>  <Pocket>  (218) 
nan

>  <ATP_Site>  (218) 
nan

>  <Peripheral>  (218) 
nan

>  <Num_H_Atoms_ProtBoundConf>  (218) 
nan

>  <Num_Resolved_Atoms>  (218) 
nan

>  <Num_Not_Resolved_Atoms>  (218) 
nan

$$$$
CHEMBL4456001
     RDKit          3D

  0  0  0  0  0  0  0  0  0  0999 V3000
M  V30 BEGIN CTAB
M  V30 COUNTS 47 51 0 0 0
M  V30 BEGIN ATOM
M  V30 1 C -2.183315 -4.684496 1.846921 0
M  V30 2 N -0.964389 -4.862963 1.078389 0
M  V30 3 N -0.256910 -5.977613 1.008712 0
M  V30 4 C 0.811032 -5.800183 0.211106 0
M  V30 5 C 0.713328 -4.490799 -0.209416 0
M  V30 6 C 1.511900 -3.728190 -1.040386 0
M  V30 7 C 1.168863 -2.432164 -1.287869 0
M  V30 8 C 0.063812 -1.789031 -0.770219 0
M  V30 9 N -0.288932 -0.436040 -1.030623 0
M  V30 10 C 0.469682 0.483558 -1.849286 0
M  V30 11 C 0.775270 1.795908 -1.125224 0
M  V30 12 N -0.180809 1.957080 -0.091601 0
M  V30 13 C -0.054573 2.445516 1.236622 0
M  V30 14 C -0.838948 3.572506 1.506763 0
M  V30 15 N -0.838076 4.166127 2.723513 0
M  V30 16 C -0.073578 3.693268 3.740076 0
M  V30 17 C 0.708347 2.582810 3.497437 0
M  V30 18 C 1.533025 2.002063 4.449817 0
M  V30 19 C 2.304305 0.888738 4.174031 0
M  V30 20 C 2.282042 0.304271 2.920515 0
M  V30 21 C 1.469336 0.857514 1.942925 0
M  V30 22 C 0.723735 1.962540 2.268370 0
M  V30 23 C -1.524069 1.551341 -0.461047 0
M  V30 24 C -1.514936 0.039689 -0.418931 0
M  V30 25 C -0.688163 -2.590233 0.043135 0
M  V30 26 C -0.389459 -3.904334 0.327686 0
M  V30 27 H -1.978847 -4.481318 2.902482 0
M  V30 28 H -2.727610 -5.645888 1.781160 0
M  V30 29 H -2.845256 -3.918479 1.361399 0
M  V30 30 H 1.565671 -6.529560 -0.034312 0
M  V30 31 H 2.387140 -4.201085 -1.463913 0
M  V30 32 H 1.841959 -1.913948 -1.943403 0
M  V30 33 H 1.457001 0.041720 -2.083564 0
M  V30 34 H -0.023518 0.676573 -2.824575 0
M  V30 35 H 0.596719 2.619994 -1.876696 0
M  V30 36 H 1.833770 1.902140 -0.846653 0
M  V30 37 H -1.495022 4.050311 0.781740 0
M  V30 38 H -0.045928 4.140230 4.726259 0
M  V30 39 H 1.561815 2.450089 5.441136 0
M  V30 40 H 2.951120 0.427326 4.908876 0
M  V30 41 H 2.879157 -0.565885 2.690147 0
M  V30 42 H 1.458962 0.401933 0.984375 0
M  V30 43 H -2.312323 1.964514 0.192327 0
M  V30 44 H -1.743708 1.829604 -1.525224 0
M  V30 45 H -1.525855 -0.203419 0.683957 0
M  V30 46 H -2.396352 -0.363073 -0.951059 0
M  V30 47 H -1.587327 -2.232930 0.525720 0
M  V30 END ATOM
M  V30 BEGIN BOND
M  V30 1 1 1 2
M  V30 2 1 2 3
M  V30 3 2 3 4
M  V30 4 1 4 5
M  V30 5 2 5 6
M  V30 6 1 6 7
M  V30 7 2 7 8
M  V30 8 1 8 9
M  V30 9 1 9 10
M  V30 10 1 10 11
M  V30 11 1 11 12
M  V30 12 1 12 13
M  V30 13 2 13 14
M  V30 14 1 14 15
M  V30 15 2 15 16
M  V30 16 1 16 17
M  V30 17 2 17 18
M  V30 18 1 18 19
M  V30 19 2 19 20
M  V30 20 1 20 21
M  V30 21 2 21 22
M  V30 22 1 12 23
M  V30 23 1 23 24
M  V30 24 1 8 25
M  V30 25 2 25 26
M  V30 26 1 26 2
M  V30 27 1 26 5
M  V30 28 1 24 9
M  V30 29 1 22 13
M  V30 30 1 22 17
M  V30 31 1 1 27
M  V30 32 1 1 28
M  V30 33 1 1 29
M  V30 34 1 4 30
M  V30 35 1 6 31
M  V30 36 1 7 32
M  V30 37 1 10 33
M  V30 38 1 10 34
M  V30 39 1 11 35
M  V30 40 1 11 36
M  V30 41 1 14 37
M  V30 42 1 16 38
M  V30 43 1 18 39
M  V30 44 1 19 40
M  V30 45 1 20 41
M  V30 46 1 21 42
M  V30 47 1 23 43
M  V30 48 1 23 44
M  V30 49 1 24 45
M  V30 50 1 24 46
M  V30 51 1 25 47
M  V30 END BOND
M  V30 END CTAB
M  END
>  <Dataset>  (219) 
ChEMBL_Kinases

>  <Ligand_Instance>  (219) 
nan

>  <PDB_ID>  (219) 
nan

>  <Standardized_SMILES>  (219) 
Cn1ncc2ccc(N3CCN(c4cncc5ccccc45)CC3)cc21

>  <Name>  (219) 
nan

>  <Pocket>  (219) 
nan

>  <ATP_Site>  (219) 
nan

>  <Peripheral>  (219) 
nan

>  <Num_H_Atoms_ProtBoundConf>  (219) 
nan

>  <Num_Resolved_Atoms>  (219) 
nan

>  <Num_Not_Resolved_Atoms>  (219) 
nan

$$$$
CHEMBL4455996
     RDKit          3D

  0  0  0  0  0  0  0  0  0  0999 V3000
M  V30 BEGIN CTAB
M  V30 COUNTS 62 65 0 0 0
M  V30 BEGIN ATOM
M  V30 1 C -0.322733 -2.983219 4.131623 0
M  V30 2 C 0.716514 -2.135800 3.521256 0
M  V30 3 C 1.793921 -1.599850 4.196350 0
M  V30 4 C 2.745749 -0.808174 3.586046 0
M  V30 5 C 2.604882 -0.546072 2.238110 0
M  V30 6 N 3.552848 0.271301 1.520575 0
M  V30 7 C 3.125110 1.634046 1.582331 0
M  V30 8 O 2.038809 1.745443 2.245947 0
M  V30 9 C 3.859325 2.732264 0.956231 0
M  V30 10 C 5.018926 2.597384 0.250471 0
M  V30 11 C 5.573584 3.750856 -0.271645 0
M  V30 12 N 4.996903 4.967340 -0.094814 0
M  V30 13 C 3.862057 5.103042 0.595320 0
M  V30 14 C 3.295775 6.455453 0.745008 0
M  V30 15 F 1.990889 6.403893 1.254704 0
M  V30 16 F 4.020187 7.211354 1.653074 0
M  V30 17 F 3.265061 7.140054 -0.459387 0
M  V30 18 C 3.279919 3.979053 1.130176 0
M  V30 19 C 1.517056 -1.084718 1.546908 0
M  V30 20 C 0.555873 -1.886891 2.173308 0
M  V30 21 C -0.505262 -2.358527 1.285735 0
M  V30 22 C -0.951278 -3.662204 1.265554 0
M  V30 23 C -1.958887 -4.102339 0.422427 0
M  V30 24 N -2.382874 -5.455780 0.437056 0
M  V30 25 C -3.423344 -5.963233 -0.406613 0
M  V30 26 C -4.730434 -5.267650 -0.139605 0
M  V30 27 O -5.069883 -5.489220 1.204380 0
M  V30 28 N -2.482050 -3.164737 -0.386679 0
M  V30 29 C -2.064016 -1.886435 -0.385778 0
M  V30 30 N -2.723601 -1.022262 -1.304648 0
M  V30 31 C -3.772993 -1.524920 -2.173478 0
M  V30 32 C -3.449811 -0.927723 -3.549595 0
M  V30 33 O -2.127794 -0.554662 -3.658458 0
M  V30 34 C -1.746557 0.488732 -2.839171 0
M  V30 35 C -2.447358 0.391233 -1.480592 0
M  V30 36 C -1.070883 -1.412076 0.432351 0
M  V30 37 H 0.012008 -4.049882 4.238330 0
M  V30 38 H -1.291033 -2.888600 3.622880 0
M  V30 39 H -0.531815 -2.674918 5.197752 0
M  V30 40 H 1.856964 -1.839448 5.263508 0
M  V30 41 H 3.583227 -0.397706 4.134043 0
M  V30 42 H 4.435298 0.038028 1.003028 0
M  V30 43 H 5.420943 1.607906 0.148613 0
M  V30 44 H 6.500634 3.659127 -0.838318 0
M  V30 45 H 2.345790 4.121367 1.693573 0
M  V30 46 H 1.460103 -0.841971 0.483284 0
M  V30 47 H -0.511912 -4.389058 1.924279 0
M  V30 48 H -1.915600 -6.116681 1.093798 0
M  V30 49 H -3.599463 -7.046332 -0.276919 0
M  V30 50 H -3.141110 -5.807370 -1.488205 0
M  V30 51 H -4.622017 -4.179150 -0.313329 0
M  V30 52 H -5.545758 -5.708255 -0.749865 0
M  V30 53 H -5.997718 -5.153656 1.322996 0
M  V30 54 H -3.737555 -2.623327 -2.204000 0
M  V30 55 H -4.762713 -1.106958 -1.899538 0
M  V30 56 H -3.623733 -1.698219 -4.332372 0
M  V30 57 H -4.072007 -0.044491 -3.767318 0
M  V30 58 H -0.661310 0.387419 -2.640397 0
M  V30 59 H -1.933689 1.489635 -3.276795 0
M  V30 60 H -3.416704 0.947580 -1.644628 0
M  V30 61 H -1.896601 0.859545 -0.669557 0
M  V30 62 H -0.739039 -0.401780 0.434386 0
M  V30 END ATOM
M  V30 BEGIN BOND
M  V30 1 1 1 2
M  V30 2 2 2 3
M  V30 3 1 3 4
M  V30 4 2 4 5
M  V30 5 1 5 6
M  V30 6 1 6 7
M  V30 7 2 7 8
M  V30 8 1 7 9
M  V30 9 2 9 10
M  V30 10 1 10 11
M  V30 11 2 11 12
M  V30 12 1 12 13
M  V30 13 1 13 14
M  V30 14 1 14 15
M  V30 15 1 14 16
M  V30 16 1 14 17
M  V30 17 2 13 18
M  V30 18 1 5 19
M  V30 19 2 19 20
M  V30 20 1 20 21
M  V30 21 2 21 22
M  V30 22 1 22 23
M  V30 23 1 23 24
M  V30 24 1 24 25
M  V30 25 1 25 26
M  V30 26 1 26 27
M  V30 27 2 23 28
M  V30 28 1 28 29
M  V30 29 1 29 30
M  V30 30 1 30 31
M  V30 31 1 31 32
M  V30 32 1 32 33
M  V30 33 1 33 34
M  V30 34 1 34 35
M  V30 35 2 29 36
M  V30 36 1 20 2
M  V30 37 1 36 21
M  V30 38 1 18 9
M  V30 39 1 35 30
M  V30 40 1 1 37
M  V30 41 1 1 38
M  V30 42 1 1 39
M  V30 43 1 3 40
M  V30 44 1 4 41
M  V30 45 1 6 42
M  V30 46 1 10 43
M  V30 47 1 11 44
M  V30 48 1 18 45
M  V30 49 1 19 46
M  V30 50 1 22 47
M  V30 51 1 24 48
M  V30 52 1 25 49
M  V30 53 1 25 50
M  V30 54 1 26 51
M  V30 55 1 26 52
M  V30 56 1 27 53
M  V30 57 1 31 54
M  V30 58 1 31 55
M  V30 59 1 32 56
M  V30 60 1 32 57
M  V30 61 1 34 58
M  V30 62 1 34 59
M  V30 63 1 35 60
M  V30 64 1 35 61
M  V30 65 1 36 62
M  V30 END BOND
M  V30 END CTAB
M  END
>  <Dataset>  (220) 
ChEMBL_Kinases

>  <Ligand_Instance>  (220) 
nan

>  <PDB_ID>  (220) 
nan

>  <Standardized_SMILES>  (220) 
Cc1ccc(NC(=O)c2ccnc(C(F)(F)F)c2)cc1-c1cc(NCCO)nc(N2CCOCC2)c1

>  <Name>  (220) 
nan

>  <Pocket>  (220) 
nan

>  <ATP_Site>  (220) 
nan

>  <Peripheral>  (220) 
nan

>  <Num_H_Atoms_ProtBoundConf>  (220) 
nan

>  <Num_Resolved_Atoms>  (220) 
nan

>  <Num_Not_Resolved_Atoms>  (220) 
nan

$$$$
CHEMBL4745993
     RDKit          3D

  0  0  0  0  0  0  0  0  0  0999 V3000
M  V30 BEGIN CTAB
M  V30 COUNTS 55 58 0 0 0
M  V30 BEGIN ATOM
M  V30 1 C 3.489672 -0.214586 6.998114 0
M  V30 2 C 4.607745 -0.790598 6.581887 0
M  V30 3 C 5.109696 -1.202185 5.291116 0
M  V30 4 O 6.216339 -1.740541 5.107868 0
M  V30 5 N 4.284654 -0.977472 4.153557 0
M  V30 6 C 4.679582 -1.346405 2.812231 0
M  V30 7 C 3.601033 -0.989599 1.780311 0
M  V30 8 C 3.408563 0.501532 1.866116 0
M  V30 9 C 3.086383 1.131976 0.527111 0
M  V30 10 N 2.433418 0.080814 -0.236014 0
M  V30 11 C 1.027828 0.110787 -0.446371 0
M  V30 12 S 0.091958 1.405611 0.208530 0
M  V30 13 N -1.521855 0.799738 -0.431808 0
M  V30 14 C -1.139597 -0.344123 -1.082718 0
M  V30 15 C -2.018212 -1.176840 -1.744696 0
M  V30 16 C -3.449072 -0.926537 -1.821502 0
M  V30 17 C -3.992700 -0.552509 -0.597237 0
M  V30 18 C -5.350639 -0.269826 -0.466083 0
M  V30 19 C -6.185072 -0.361378 -1.577083 0
M  V30 20 O -7.549194 -0.094686 -1.523249 0
M  V30 21 C -8.090386 0.284941 -0.271580 0
M  V30 22 C -5.612199 -0.737791 -2.787546 0
M  V30 23 N -6.404074 -0.847428 -3.943885 0
M  V30 24 C -4.267141 -1.019692 -2.925976 0
M  V30 25 C -1.593207 -2.320362 -2.388304 0
M  V30 26 C -0.255964 -2.656191 -2.380033 0
M  V30 27 N 0.562047 -1.816966 -1.723841 0
M  V30 28 C 0.177652 -0.698811 -1.089483 0
M  V30 29 C 3.351145 -0.931989 -0.718804 0
M  V30 30 C 4.164663 -1.440950 0.448712 0
M  V30 31 H 2.741134 0.029632 6.256197 0
M  V30 32 H 2.507680 0.212173 6.792607 0
M  V30 33 H 5.179683 -0.931193 7.481070 0
M  V30 34 H 3.331773 -0.520466 4.263955 0
M  V30 35 H 5.600933 -0.829288 2.478685 0
M  V30 36 H 4.893555 -2.444741 2.775968 0
M  V30 37 H 2.679942 -1.573842 2.008621 0
M  V30 38 H 2.538984 0.666471 2.533285 0
M  V30 39 H 4.264287 1.010313 2.355706 0
M  V30 40 H 2.358284 1.950071 0.694289 0
M  V30 41 H 4.006583 1.492169 0.021640 0
M  V30 42 H -3.440395 -0.450127 0.325733 0
M  V30 43 H -5.790225 0.024865 0.489380 0
M  V30 44 H -7.742271 1.280287 0.075114 0
M  V30 45 H -9.207046 0.332864 -0.334475 0
M  V30 46 H -7.779047 -0.433335 0.532922 0
M  V30 47 H -6.816917 -0.169284 -4.640557 0
M  V30 48 H -6.627432 -1.863887 -4.144225 0
M  V30 49 H -3.771737 -1.311187 -3.819655 0
M  V30 50 H -2.260695 -2.989411 -2.913882 0
M  V30 51 H 0.082854 -3.551754 -2.882977 0
M  V30 52 H 4.083035 -0.366371 -1.366694 0
M  V30 53 H 2.908105 -1.699407 -1.346387 0
M  V30 54 H 5.226824 -1.122013 0.423459 0
M  V30 55 H 4.114124 -2.541409 0.428131 0
M  V30 END ATOM
M  V30 BEGIN BOND
M  V30 1 2 1 2
M  V30 2 1 2 3
M  V30 3 2 3 4
M  V30 4 1 3 5
M  V30 5 1 5 6
M  V30 6 1 6 7
M  V30 7 1 7 8
M  V30 8 1 8 9
M  V30 9 1 9 10
M  V30 10 1 10 11
M  V30 11 1 11 12
M  V30 12 1 12 13
M  V30 13 2 13 14
M  V30 14 1 14 15
M  V30 15 1 15 16
M  V30 16 2 16 17
M  V30 17 1 17 18
M  V30 18 2 18 19
M  V30 19 1 19 20
M  V30 20 1 20 21
M  V30 21 1 19 22
M  V30 22 1 22 23
M  V30 23 2 22 24
M  V30 24 2 15 25
M  V30 25 1 25 26
M  V30 26 2 26 27
M  V30 27 1 27 28
M  V30 28 1 10 29
M  V30 29 1 29 30
M  V30 30 1 30 7
M  V30 31 2 28 11
M  V30 32 1 28 14
M  V30 33 1 24 16
M  V30 34 1 1 31
M  V30 35 1 1 32
M  V30 36 1 2 33
M  V30 37 1 5 34
M  V30 38 1 6 35
M  V30 39 1 6 36
M  V30 40 1 7 37
M  V30 41 1 8 38
M  V30 42 1 8 39
M  V30 43 1 9 40
M  V30 44 1 9 41
M  V30 45 1 17 42
M  V30 46 1 18 43
M  V30 47 1 21 44
M  V30 48 1 21 45
M  V30 49 1 21 46
M  V30 50 1 23 47
M  V30 51 1 23 48
M  V30 52 1 24 49
M  V30 53 1 25 50
M  V30 54 1 26 51
M  V30 55 1 29 52
M  V30 56 1 29 53
M  V30 57 1 30 54
M  V30 58 1 30 55
M  V30 END BOND
M  V30 END CTAB
M  END
>  <Dataset>  (221) 
ChEMBL_Kinases

>  <Ligand_Instance>  (221) 
nan

>  <PDB_ID>  (221) 
nan

>  <Standardized_SMILES>  (221) 
C=CC(=O)NCC1CCN(c2snc3c(-c4ccc(OC)c(N)c4)ccnc23)CC1

>  <Name>  (221) 
nan

>  <Pocket>  (221) 
nan

>  <ATP_Site>  (221) 
nan

>  <Peripheral>  (221) 
nan

>  <Num_H_Atoms_ProtBoundConf>  (221) 
nan

>  <Num_Resolved_Atoms>  (221) 
nan

>  <Num_Not_Resolved_Atoms>  (221) 
nan

$$$$
CHEMBL4455852
     RDKit          3D

  0  0  0  0  0  0  0  0  0  0999 V3000
M  V30 BEGIN CTAB
M  V30 COUNTS 58 62 0 0 0
M  V30 BEGIN ATOM
M  V30 1 C 1.825698 -1.522676 -0.935282 0
M  V30 2 C 0.395835 -1.642636 -0.547644 0
M  V30 3 C -0.408244 -0.768595 0.156077 0
M  V30 4 C 0.056209 0.514686 0.672133 0
M  V30 5 N 0.587731 0.629078 1.899373 0
M  V30 6 C 1.009511 1.791395 2.369479 0
M  V30 7 N 1.575852 1.908511 3.679455 0
M  V30 8 C 1.662687 0.688893 4.462042 0
M  V30 9 C 2.272675 1.002938 5.784841 0
M  V30 10 C 2.515657 -0.267401 3.651738 0
M  V30 11 C 0.286951 0.061110 4.585659 0
M  V30 12 C 0.866109 2.867536 1.517945 0
M  V30 13 C 1.272295 4.124745 1.905806 0
M  V30 14 C 1.156258 5.237338 1.103043 0
M  V30 15 N 0.625718 5.110594 -0.116019 0
M  V30 16 C 0.205644 3.913250 -0.565487 0
M  V30 17 C 0.330071 2.818611 0.249040 0
M  V30 18 N -0.078835 1.590445 -0.159075 0
M  V30 19 C -1.636159 -1.396000 0.218443 0
M  V30 20 C -2.803975 -0.959100 0.810993 0
M  V30 21 C -3.909546 -1.785139 0.732417 0
M  V30 22 C -3.833152 -3.013128 0.074873 0
M  V30 23 N -2.685335 -3.395280 -0.483146 0
M  V30 24 C -1.579206 -2.617547 -0.429665 0
M  V30 25 N -0.319816 -2.751419 -0.894674 0
M  V30 26 S 0.201012 -4.146318 -1.778039 0
M  V30 27 O -0.118416 -5.399194 -0.986627 0
M  V30 28 O 1.657062 -4.093121 -2.060352 0
M  V30 29 C -0.770548 -4.244179 -3.254758 0
M  V30 30 C -1.960866 -4.938798 -3.291726 0
M  V30 31 C -2.698142 -4.994365 -4.469950 0
M  V30 32 C -2.253267 -4.356144 -5.623596 0
M  V30 33 C -1.047716 -3.653794 -5.582577 0
M  V30 34 C -0.319643 -3.605126 -4.399926 0
M  V30 35 H 2.322664 -0.667381 -0.423394 0
M  V30 36 H 1.995905 -1.415340 -2.009435 0
M  V30 37 H 2.413192 -2.420619 -0.589689 0
M  V30 38 H 1.923754 2.789006 4.104097 0
M  V30 39 H 1.492086 1.452584 6.431779 0
M  V30 40 H 2.800611 0.157572 6.253530 0
M  V30 41 H 3.000961 1.845719 5.604277 0
M  V30 42 H 3.452774 -0.483931 4.238435 0
M  V30 43 H 2.014330 -1.243615 3.479924 0
M  V30 44 H 2.796067 0.123198 2.658187 0
M  V30 45 H 0.267393 -0.987576 4.258476 0
M  V30 46 H 0.049610 0.049280 5.674227 0
M  V30 47 H -0.493662 0.618411 4.040485 0
M  V30 48 H 1.710944 4.317058 2.872576 0
M  V30 49 H 1.465550 6.240990 1.376570 0
M  V30 50 H -0.238432 3.723040 -1.546320 0
M  V30 51 H -2.861656 -0.006018 1.320821 0
M  V30 52 H -4.865644 -1.523653 1.167903 0
M  V30 53 H -4.669519 -3.695991 -0.014469 0
M  V30 54 H -2.329536 -5.445607 -2.403810 0
M  V30 55 H -3.643019 -5.556585 -4.465915 0
M  V30 56 H -2.841253 -4.407078 -6.542861 0
M  V30 57 H -0.726877 -3.163566 -6.506911 0
M  V30 58 H 0.628253 -3.046925 -4.386033 0
M  V30 END ATOM
M  V30 BEGIN BOND
M  V30 1 1 1 2
M  V30 2 2 2 3
M  V30 3 1 3 4
M  V30 4 2 4 5
M  V30 5 1 5 6
M  V30 6 1 6 7
M  V30 7 1 7 8
M  V30 8 1 8 9
M  V30 9 1 8 10
M  V30 10 1 8 11
M  V30 11 2 6 12
M  V30 12 1 12 13
M  V30 13 2 13 14
M  V30 14 1 14 15
M  V30 15 2 15 16
M  V30 16 1 16 17
M  V30 17 2 17 18
M  V30 18 1 3 19
M  V30 19 2 19 20
M  V30 20 1 20 21
M  V30 21 2 21 22
M  V30 22 1 22 23
M  V30 23 2 23 24
M  V30 24 1 24 25
M  V30 25 1 25 26
M  V30 26 2 26 27
M  V30 27 2 26 28
M  V30 28 1 26 29
M  V30 29 2 29 30
M  V30 30 1 30 31
M  V30 31 2 31 32
M  V30 32 1 32 33
M  V30 33 2 33 34
M  V30 34 1 25 2
M  V30 35 1 34 29
M  V30 36 1 18 4
M  V30 37 1 24 19
M  V30 38 1 17 12
M  V30 39 1 1 35
M  V30 40 1 1 36
M  V30 41 1 1 37
M  V30 42 1 7 38
M  V30 43 1 9 39
M  V30 44 1 9 40
M  V30 45 1 9 41
M  V30 46 1 10 42
M  V30 47 1 10 43
M  V30 48 1 10 44
M  V30 49 1 11 45
M  V30 50 1 11 46
M  V30 51 1 11 47
M  V30 52 1 13 48
M  V30 53 1 14 49
M  V30 54 1 16 50
M  V30 55 1 20 51
M  V30 56 1 21 52
M  V30 57 1 22 53
M  V30 58 1 30 54
M  V30 59 1 31 55
M  V30 60 1 32 56
M  V30 61 1 33 57
M  V30 62 1 34 58
M  V30 END BOND
M  V30 END CTAB
M  END
>  <Dataset>  (222) 
ChEMBL_Kinases

>  <Ligand_Instance>  (222) 
nan

>  <PDB_ID>  (222) 
nan

>  <Standardized_SMILES>  (222) 
Cc1c(-c2nc(NC(C)(C)C)c3ccncc3n2)c2cccnc2n1S(=O)(=O)c1ccccc1

>  <Name>  (222) 
nan

>  <Pocket>  (222) 
nan

>  <ATP_Site>  (222) 
nan

>  <Peripheral>  (222) 
nan

>  <Num_H_Atoms_ProtBoundConf>  (222) 
nan

>  <Num_Resolved_Atoms>  (222) 
nan

>  <Num_Not_Resolved_Atoms>  (222) 
nan

$$$$
CHEMBL4456439
     RDKit          3D

  0  0  0  0  0  0  0  0  0  0999 V3000
M  V30 BEGIN CTAB
M  V30 COUNTS 40 43 0 0 0
M  V30 BEGIN ATOM
M  V30 1 N -7.056739 3.951221 1.755008 0
M  V30 2 C -6.217610 4.223753 0.640065 0
M  V30 3 O -6.928976 5.239502 0.497682 0
M  V30 4 C -5.107869 3.403940 0.194929 0
M  V30 5 C -4.392811 3.833615 -0.898576 0
M  V30 6 C -3.343798 3.034644 -1.300262 0
M  V30 7 C -3.070113 1.874054 -0.603762 0
M  V30 8 C -1.981902 0.967278 -0.951510 0
M  V30 9 C -1.310834 0.210707 0.015190 0
M  V30 10 C -0.278926 -0.655212 -0.280615 0
M  V30 11 C 0.089271 -0.761697 -1.599730 0
M  V30 12 C 1.084702 -1.552905 -2.140425 0
M  V30 13 N 2.003306 -2.467007 -1.556486 0
M  V30 14 C 3.313319 -2.258486 -1.039259 0
M  V30 15 O 3.743424 -1.079572 -1.100757 0
M  V30 16 C 4.078861 -3.400168 -0.473816 0
M  V30 17 C 5.046867 -3.179513 0.610998 0
M  V30 18 C 5.532093 -3.385206 -0.817106 0
M  V30 19 N 1.040968 -1.293474 -3.459051 0
M  V30 20 N 0.099958 -0.411253 -3.749686 0
M  V30 21 C -0.536908 -0.036492 -2.617885 0
M  V30 22 C -1.568162 0.820212 -2.270316 0
M  V30 23 C -3.835284 1.489964 0.502428 0
M  V30 24 C -4.901671 2.266487 0.940718 0
M  V30 25 H -7.134580 3.389618 2.628850 0
M  V30 26 H -7.010880 3.325644 2.614708 0
M  V30 27 H -4.660415 4.748293 -1.394651 0
M  V30 28 H -2.735405 3.305072 -2.151419 0
M  V30 29 H -1.591659 0.286261 1.054695 0
M  V30 30 H 0.201555 -1.215358 0.517415 0
M  V30 31 H 1.581520 -3.419950 -1.538744 0
M  V30 32 H 3.555118 -4.378517 -0.491133 0
M  V30 33 H 5.236374 -4.040265 1.307425 0
M  V30 34 H 5.113770 -2.152999 1.025021 0
M  V30 35 H 6.050148 -4.359785 -1.039840 0
M  V30 36 H 5.967852 -2.528796 -1.369433 0
M  V30 37 H -0.162152 -0.023673 -4.676249 0
M  V30 38 H -2.018365 1.354299 -3.072593 0
M  V30 39 H -3.610593 0.572250 1.044276 0
M  V30 40 H -5.509701 1.995433 1.790941 0
M  V30 END ATOM
M  V30 BEGIN BOND
M  V30 1 1 1 2
M  V30 2 2 2 3
M  V30 3 1 2 4
M  V30 4 2 4 5
M  V30 5 1 5 6
M  V30 6 2 6 7
M  V30 7 1 7 8
M  V30 8 2 8 9
M  V30 9 1 9 10
M  V30 10 2 10 11
M  V30 11 1 11 12
M  V30 12 1 12 13
M  V30 13 1 13 14
M  V30 14 2 14 15
M  V30 15 1 14 16
M  V30 16 1 16 17
M  V30 17 1 17 18
M  V30 18 2 12 19
M  V30 19 1 19 20
M  V30 20 1 20 21
M  V30 21 2 21 22
M  V30 22 1 7 23
M  V30 23 2 23 24
M  V30 24 1 24 4
M  V30 25 1 22 8
M  V30 26 1 21 11
M  V30 27 1 18 16
M  V30 28 1 1 25
M  V30 29 1 1 26
M  V30 30 1 5 27
M  V30 31 1 6 28
M  V30 32 1 9 29
M  V30 33 1 10 30
M  V30 34 1 13 31
M  V30 35 1 16 32
M  V30 36 1 17 33
M  V30 37 1 17 34
M  V30 38 1 18 35
M  V30 39 1 18 36
M  V30 40 1 20 37
M  V30 41 1 22 38
M  V30 42 1 23 39
M  V30 43 1 24 40
M  V30 END BOND
M  V30 END CTAB
M  END
>  <Dataset>  (223) 
ChEMBL_Kinases

>  <Ligand_Instance>  (223) 
nan

>  <PDB_ID>  (223) 
nan

>  <Standardized_SMILES>  (223) 
NC(=O)c1ccc(-c2ccc3c(NC(=O)C4CC4)n[nH]c3c2)cc1

>  <Name>  (223) 
nan

>  <Pocket>  (223) 
nan

>  <ATP_Site>  (223) 
nan

>  <Peripheral>  (223) 
nan

>  <Num_H_Atoms_ProtBoundConf>  (223) 
nan

>  <Num_Resolved_Atoms>  (223) 
nan

>  <Num_Not_Resolved_Atoms>  (223) 
nan

$$$$
CHEMBL4746702
     RDKit          3D

  0  0  0  0  0  0  0  0  0  0999 V3000
M  V30 BEGIN CTAB
M  V30 COUNTS 55 58 0 0 0
M  V30 BEGIN ATOM
M  V30 1 C -1.988136 -3.429176 4.429776 0
M  V30 2 N -0.896809 -3.285418 3.606157 0
M  V30 3 C 0.286200 -3.134917 2.749796 0
M  V30 4 N 1.584976 -2.903264 3.123607 0
M  V30 5 C 2.441863 -2.395083 2.139149 0
M  V30 6 C 1.777989 -2.229183 0.968694 0
M  V30 7 C 2.690213 -1.377216 0.084132 0
M  V30 8 C 3.699255 -0.700209 -0.665385 0
M  V30 9 N 3.379161 0.548936 -0.846771 0
M  V30 10 N 2.316052 1.078543 -0.424151 0
M  V30 11 C 1.739166 2.410348 -0.467848 0
M  V30 12 C 2.631412 3.269472 0.431801 0
M  V30 13 C 2.355001 3.125424 1.879406 0
M  V30 14 N 0.977682 2.882648 2.210548 0
M  V30 15 C 0.114973 3.403438 1.150725 0
M  V30 16 C 0.314829 2.455068 -0.036069 0
M  V30 17 C 2.011185 -0.095116 0.076654 0
M  V30 18 C 0.534369 -2.445012 0.536354 0
M  V30 19 C -0.338771 -2.957273 1.489085 0
M  V30 20 O -1.630591 -3.249935 1.174147 0
M  V30 21 C -2.164473 -3.426907 -0.140104 0 CFG=2
M  V30 22 C -1.149043 -4.305337 -0.893406 0
M  V30 23 C -2.558540 -2.255217 -0.853588 0
M  V30 24 C -3.029191 -2.643966 -2.137185 0
M  V30 25 Cl -3.157054 -4.327299 -2.689570 0
M  V30 26 C -3.483771 -1.748144 -3.174197 0
M  V30 27 C -3.409375 -0.418437 -2.766738 0
M  V30 28 C -2.989499 0.124960 -1.575526 0
M  V30 29 F -2.945505 1.404531 -1.268339 0
M  V30 30 C -2.627620 -0.920317 -0.789862 0
M  V30 31 Cl -2.185316 -0.500376 0.892090 0
M  V30 32 H -2.329343 -2.300717 4.670112 0
M  V30 33 H -2.946243 -3.771016 3.890189 0
M  V30 34 H -1.947273 -3.812668 5.440826 0
M  V30 35 H -0.238086 -3.357104 4.417927 0
M  V30 36 H 3.439362 -2.236441 2.415566 0
M  V30 37 H 4.285623 -1.630813 -0.721965 0
M  V30 38 H 1.855092 2.776320 -1.489799 0
M  V30 39 H 2.442816 4.310729 0.081017 0
M  V30 40 H 3.672294 2.965415 0.201367 0
M  V30 41 H 2.691116 4.023448 2.450633 0
M  V30 42 H 2.975879 2.283598 2.294036 0
M  V30 43 H 0.691927 3.323989 3.079221 0
M  V30 44 H 0.357963 4.429064 0.893959 0
M  V30 45 H -0.916851 3.339373 1.531497 0
M  V30 46 H -0.167086 1.516561 0.234291 0
M  V30 47 H -0.373494 2.920045 -0.824441 0
M  V30 48 H 1.012475 0.144459 0.612147 0
M  V30 49 H 0.331774 -2.187719 -0.522845 0
M  V30 50 H -3.014878 -4.186441 0.037716 0
M  V30 51 H -0.273707 -4.466951 -0.226632 0
M  V30 52 H -1.565841 -5.338842 -1.033294 0
M  V30 53 H -0.815286 -3.849670 -1.830862 0
M  V30 54 H -3.812944 -2.084509 -4.137727 0
M  V30 55 H -3.710840 0.293389 -3.569077 0
M  V30 END ATOM
M  V30 BEGIN BOND
M  V30 1 1 1 2
M  V30 2 1 2 3
M  V30 3 2 3 4
M  V30 4 1 4 5
M  V30 5 2 5 6
M  V30 6 1 6 7
M  V30 7 1 7 8
M  V30 8 2 8 9
M  V30 9 1 9 10
M  V30 10 1 10 11
M  V30 11 1 11 12
M  V30 12 1 12 13
M  V30 13 1 13 14
M  V30 14 1 14 15
M  V30 15 1 15 16
M  V30 16 1 10 17
M  V30 17 1 6 18
M  V30 18 2 18 19
M  V30 19 1 19 20
M  V30 20 1 20 21
M  V30 21 1 21 22
M  V30 22 1 21 23
M  V30 23 2 23 24
M  V30 24 1 24 25
M  V30 25 1 24 26
M  V30 26 2 26 27
M  V30 27 1 27 28
M  V30 28 1 28 29
M  V30 29 2 28 30
M  V30 30 1 30 31
M  V30 31 1 19 3
M  V30 32 1 30 23
M  V30 33 2 17 7
M  V30 34 1 16 11
M  V30 35 1 1 32
M  V30 36 1 1 33
M  V30 37 1 1 34
M  V30 38 1 2 35
M  V30 39 1 5 36
M  V30 40 1 8 37
M  V30 41 1 11 38
M  V30 42 1 12 39
M  V30 43 1 12 40
M  V30 44 1 13 41
M  V30 45 1 13 42
M  V30 46 1 14 43
M  V30 47 1 15 44
M  V30 48 1 15 45
M  V30 49 1 16 46
M  V30 50 1 16 47
M  V30 51 1 17 48
M  V30 52 1 18 49
M  V30 53 1 21 50 CFG=1
M  V30 54 1 22 51
M  V30 55 1 22 52
M  V30 56 1 22 53
M  V30 57 1 26 54
M  V30 58 1 27 55
M  V30 END BOND
M  V30 END CTAB
M  END
>  <Dataset>  (224) 
ChEMBL_Kinases

>  <Ligand_Instance>  (224) 
nan

>  <PDB_ID>  (224) 
nan

>  <Standardized_SMILES>  (224) 
CNc1ncc(-c2cnn(C3CCNCC3)c2)cc1O[C@H](C)c1c(Cl)ccc(F)c1Cl

>  <Name>  (224) 
nan

>  <Pocket>  (224) 
nan

>  <ATP_Site>  (224) 
nan

>  <Peripheral>  (224) 
nan

>  <Num_H_Atoms_ProtBoundConf>  (224) 
nan

>  <Num_Resolved_Atoms>  (224) 
nan

>  <Num_Not_Resolved_Atoms>  (224) 
nan

$$$$
CHEMBL4746739
     RDKit          3D

  0  0  0  0  0  0  0  0  0  0999 V3000
M  V30 BEGIN CTAB
M  V30 COUNTS 25 26 0 0 0
M  V30 BEGIN ATOM
M  V30 1 C -2.402596 -3.704200 4.107597 0
M  V30 2 C -1.797864 -2.750620 3.146935 0
M  V30 3 O -2.146193 -1.533941 3.034311 0
M  V30 4 N -0.772599 -3.211794 2.301832 0
M  V30 5 C -0.260980 -2.148019 1.392135 0
M  V30 6 N 0.587113 -1.427366 1.592117 0
M  V30 7 C 1.120059 -0.461545 0.877618 0
M  V30 8 C 2.159105 0.405953 1.147863 0
M  V30 9 C 2.538383 1.345994 0.225486 0
M  V30 10 C 1.953446 1.520490 -1.012335 0
M  V30 11 O 2.291795 2.449101 -1.982602 0
M  V30 12 C 1.633986 3.712119 -1.939478 0
M  V30 13 F 1.875071 4.369499 -0.742057 0
M  V30 14 F 2.044007 4.534274 -2.959197 0
M  V30 15 F 0.260442 3.511656 -2.010470 0
M  V30 16 C 0.912270 0.662946 -1.302362 0
M  V30 17 C 0.542291 -0.291725 -0.340889 0
M  V30 18 S -0.749217 -1.555723 -0.372625 0
M  V30 19 H -1.882429 -3.622857 5.095481 0
M  V30 20 H -2.400566 -4.727330 3.722461 0
M  V30 21 H -3.464209 -3.404267 4.277123 0
M  V30 22 H -0.378043 -4.156587 2.266009 0
M  V30 23 H 2.731323 0.412555 2.068361 0
M  V30 24 H 3.366969 2.044994 0.429181 0
M  V30 25 H 0.323884 0.621757 -2.192532 0
M  V30 END ATOM
M  V30 BEGIN BOND
M  V30 1 1 1 2
M  V30 2 2 2 3
M  V30 3 1 2 4
M  V30 4 1 4 5
M  V30 5 2 5 6
M  V30 6 1 6 7
M  V30 7 2 7 8
M  V30 8 1 8 9
M  V30 9 2 9 10
M  V30 10 1 10 11
M  V30 11 1 11 12
M  V30 12 1 12 13
M  V30 13 1 12 14
M  V30 14 1 12 15
M  V30 15 1 10 16
M  V30 16 2 16 17
M  V30 17 1 17 18
M  V30 18 1 18 5
M  V30 19 1 17 7
M  V30 20 1 1 19
M  V30 21 1 1 20
M  V30 22 1 1 21
M  V30 23 1 4 22
M  V30 24 1 8 23
M  V30 25 1 9 24
M  V30 26 1 16 25
M  V30 END BOND
M  V30 END CTAB
M  END
>  <Dataset>  (225) 
ChEMBL_Kinases

>  <Ligand_Instance>  (225) 
nan

>  <PDB_ID>  (225) 
nan

>  <Standardized_SMILES>  (225) 
CC(=O)Nc1nc2ccc(OC(F)(F)F)cc2s1

>  <Name>  (225) 
nan

>  <Pocket>  (225) 
nan

>  <ATP_Site>  (225) 
nan

>  <Peripheral>  (225) 
nan

>  <Num_H_Atoms_ProtBoundConf>  (225) 
nan

>  <Num_Resolved_Atoms>  (225) 
nan

>  <Num_Not_Resolved_Atoms>  (225) 
nan

$$$$
CHEMBL4454066
     RDKit          3D

  0  0  0  0  0  0  0  0  0  0999 V3000
M  V30 BEGIN CTAB
M  V30 COUNTS 60 63 0 0 0
M  V30 BEGIN ATOM
M  V30 1 C 0.047413 -4.591762 2.179816 0
M  V30 2 C 0.376151 -3.168474 1.941842 0
M  V30 3 C 0.725930 -2.351029 3.004288 0
M  V30 4 C 1.015388 -1.034241 2.673519 0
M  V30 5 C 0.972323 -0.523491 1.386361 0
M  V30 6 N 1.301120 0.853569 1.242670 0
M  V30 7 C 2.500104 1.568323 1.015449 0
M  V30 8 O 3.564956 0.885395 0.904336 0
M  V30 9 C 2.432708 3.022710 0.925349 0
M  V30 10 C 1.304393 3.809463 1.036829 0
M  V30 11 C 1.418638 5.195154 0.924041 0
M  V30 12 C 2.635305 5.828764 0.701175 0
M  V30 13 N 2.744595 7.236173 0.586796 0
M  V30 14 C 4.058564 7.842241 0.349859 0
M  V30 15 C 1.602795 8.090661 0.696087 0
M  V30 16 C 3.772945 5.032159 0.589039 0
M  V30 17 C 3.633975 3.654483 0.704964 0
M  V30 18 C 0.618510 -1.380441 0.368014 0
M  V30 19 C 0.322148 -2.693442 0.640905 0
M  V30 20 N -0.029955 -3.476076 -0.488623 0
M  V30 21 C 0.688022 -4.273407 -1.413130 0
M  V30 22 O 1.950888 -4.382827 -1.307058 0
M  V30 23 C 0.079845 -5.015493 -2.533915 0
M  V30 24 O -1.300151 -4.908152 -2.646131 0
M  V30 25 C -2.114023 -5.389175 -1.633267 0
M  V30 26 C -1.891871 -6.027867 -0.410270 0
M  V30 27 C -2.947484 -6.387909 0.390555 0
M  V30 28 C -4.254115 -6.142223 0.035106 0
M  V30 29 C -5.220428 -6.555025 0.930919 0
M  V30 30 O -4.921283 -7.126243 2.015913 0
M  V30 31 C -6.531557 -6.323346 0.603534 0
M  V30 32 C -6.725294 -5.690489 -0.611330 0
M  V30 33 O -5.770661 -5.318352 -1.426711 0
M  V30 34 C -4.499571 -5.512721 -1.168020 0
M  V30 35 C -3.439279 -5.138297 -1.997220 0
M  V30 36 H -1.030482 -4.822917 2.138880 0
M  V30 37 H 0.586131 -5.245432 1.440154 0
M  V30 38 H 0.502434 -4.888829 3.167156 0
M  V30 39 H 0.768852 -2.715295 4.015178 0
M  V30 40 H 1.289963 -0.396039 3.515549 0
M  V30 41 H 0.346553 1.261171 1.356304 0
M  V30 42 H 0.385033 3.289407 1.207411 0
M  V30 43 H 0.518224 5.786902 1.014847 0
M  V30 44 H 4.016725 8.930469 0.418222 0
M  V30 45 H 4.320355 7.609015 -0.717755 0
M  V30 46 H 4.819567 7.464536 1.043864 0
M  V30 47 H 1.918562 9.111911 1.035855 0
M  V30 48 H 1.106645 8.164692 -0.293703 0
M  V30 49 H 0.861034 7.759018 1.448440 0
M  V30 50 H 4.755100 5.495819 0.413112 0
M  V30 51 H 4.576468 3.091666 0.605223 0
M  V30 52 H 0.590789 -0.961473 -0.633337 0
M  V30 53 H -1.059809 -3.345498 -0.558790 0
M  V30 54 H 0.416488 -6.094159 -2.474457 0
M  V30 55 H 0.508686 -4.681743 -3.526602 0
M  V30 56 H -0.824648 -6.145285 -0.285184 0
M  V30 57 H -2.596583 -6.874154 1.305811 0
M  V30 58 H -7.367796 -6.610722 1.241450 0
M  V30 59 H -7.740715 -5.475395 -0.934490 0
M  V30 60 H -3.831943 -4.661245 -2.889959 0
M  V30 END ATOM
M  V30 BEGIN BOND
M  V30 1 1 1 2
M  V30 2 2 2 3
M  V30 3 1 3 4
M  V30 4 2 4 5
M  V30 5 1 5 6
M  V30 6 1 6 7
M  V30 7 2 7 8
M  V30 8 1 7 9
M  V30 9 2 9 10
M  V30 10 1 10 11
M  V30 11 2 11 12
M  V30 12 1 12 13
M  V30 13 1 13 14
M  V30 14 1 13 15
M  V30 15 1 12 16
M  V30 16 2 16 17
M  V30 17 1 5 18
M  V30 18 2 18 19
M  V30 19 1 19 20
M  V30 20 1 20 21
M  V30 21 2 21 22
M  V30 22 1 21 23
M  V30 23 1 23 24
M  V30 24 1 24 25
M  V30 25 2 25 26
M  V30 26 1 26 27
M  V30 27 2 27 28
M  V30 28 1 28 29
M  V30 29 2 29 30
M  V30 30 1 29 31
M  V30 31 2 31 32
M  V30 32 1 32 33
M  V30 33 1 33 34
M  V30 34 2 34 35
M  V30 35 1 19 2
M  V30 36 1 35 25
M  V30 37 1 17 9
M  V30 38 1 34 28
M  V30 39 1 1 36
M  V30 40 1 1 37
M  V30 41 1 1 38
M  V30 42 1 3 39
M  V30 43 1 4 40
M  V30 44 1 6 41
M  V30 45 1 10 42
M  V30 46 1 11 43
M  V30 47 1 14 44
M  V30 48 1 14 45
M  V30 49 1 14 46
M  V30 50 1 15 47
M  V30 51 1 15 48
M  V30 52 1 15 49
M  V30 53 1 16 50
M  V30 54 1 17 51
M  V30 55 1 18 52
M  V30 56 1 20 53
M  V30 57 1 23 54
M  V30 58 1 23 55
M  V30 59 1 26 56
M  V30 60 1 27 57
M  V30 61 1 31 58
M  V30 62 1 32 59
M  V30 63 1 35 60
M  V30 END BOND
M  V30 END CTAB
M  END
>  <Dataset>  (226) 
ChEMBL_Kinases

>  <Ligand_Instance>  (226) 
nan

>  <PDB_ID>  (226) 
nan

>  <Standardized_SMILES>  (226) 
Cc1ccc(NC(=O)c2ccc(N(C)C)cc2)cc1NC(=O)COc1ccc2c(=O)ccoc2c1

>  <Name>  (226) 
nan

>  <Pocket>  (226) 
nan

>  <ATP_Site>  (226) 
nan

>  <Peripheral>  (226) 
nan

>  <Num_H_Atoms_ProtBoundConf>  (226) 
nan

>  <Num_Resolved_Atoms>  (226) 
nan

>  <Num_Not_Resolved_Atoms>  (226) 
nan

$$$$
CHEMBL4746829
     RDKit          3D

  0  0  0  0  0  0  0  0  0  0999 V3000
M  V30 BEGIN CTAB
M  V30 COUNTS 37 39 0 0 0
M  V30 BEGIN ATOM
M  V30 1 C 0.175872 -6.662633 4.183693 0
M  V30 2 C 0.117841 -5.571774 3.668816 0
M  V30 3 C 0.060297 -4.269635 3.069154 0
M  V30 4 N 0.955369 -3.902665 2.143276 0
M  V30 5 C 0.988260 -2.730114 1.532911 0
M  V30 6 N 1.990803 -2.459277 0.565547 0
M  V30 7 C 2.197088 -1.277995 -0.193332 0
M  V30 8 C 3.233666 -1.189992 -1.097965 0
M  V30 9 C 3.470316 -0.067077 -1.853073 0
M  V30 10 C 2.670257 1.047930 -1.743278 0
M  V30 11 C 1.632337 1.001475 -0.858194 0
M  V30 12 C 0.764375 2.195823 -0.731494 0
M  V30 13 C -0.415330 2.180483 -1.679421 0
M  V30 14 C -1.172025 3.448959 -1.413643 0
M  V30 15 N -2.311236 3.527408 -2.265453 0
M  V30 16 O -0.827853 4.312675 -0.549614 0
M  V30 17 C 1.434260 -0.147027 -0.122395 0
M  V30 18 N 0.028493 -1.890070 1.912340 0
M  V30 19 C -0.896920 -2.154193 2.812278 0
M  V30 20 N -1.934496 -1.424355 3.311105 0
M  V30 21 C -2.579314 -2.198654 4.231664 0
M  V30 22 N -1.952955 -3.402729 4.310178 0
M  V30 23 C -0.910529 -3.377658 3.431945 0
M  V30 24 H 0.221712 -7.637491 4.640308 0
M  V30 25 H 2.687407 -3.241148 0.375872 0
M  V30 26 H 3.910707 -2.041167 -1.236816 0
M  V30 27 H 4.313432 -0.072726 -2.550460 0
M  V30 28 H 2.883690 1.900128 -2.344445 0
M  V30 29 H 0.345704 2.218526 0.298617 0
M  V30 30 H 1.338157 3.150775 -0.839555 0
M  V30 31 H -0.154135 2.092646 -2.732116 0
M  V30 32 H -1.110674 1.367115 -1.361649 0
M  V30 33 H -3.289666 3.853367 -2.010144 0
M  V30 34 H -3.214353 3.876539 -1.845601 0
M  V30 35 H 0.597052 -0.097805 0.548411 0
M  V30 36 H -2.201798 -0.462749 3.054950 0
M  V30 37 H -3.448163 -1.851340 4.780555 0
M  V30 END ATOM
M  V30 BEGIN BOND
M  V30 1 3 1 2
M  V30 2 1 2 3
M  V30 3 2 3 4
M  V30 4 1 4 5
M  V30 5 1 5 6
M  V30 6 1 6 7
M  V30 7 2 7 8
M  V30 8 1 8 9
M  V30 9 2 9 10
M  V30 10 1 10 11
M  V30 11 1 11 12
M  V30 12 1 12 13
M  V30 13 1 13 14
M  V30 14 1 14 15
M  V30 15 2 14 16
M  V30 16 2 11 17
M  V30 17 2 5 18
M  V30 18 1 18 19
M  V30 19 1 19 20
M  V30 20 1 20 21
M  V30 21 2 21 22
M  V30 22 1 22 23
M  V30 23 1 23 3
M  V30 24 1 17 7
M  V30 25 2 23 19
M  V30 26 1 1 24
M  V30 27 1 6 25
M  V30 28 1 8 26
M  V30 29 1 9 27
M  V30 30 1 10 28
M  V30 31 1 12 29
M  V30 32 1 12 30
M  V30 33 1 13 31
M  V30 34 1 13 32
M  V30 35 1 15 33
M  V30 36 1 15 34
M  V30 37 1 17 35
M  V30 38 1 20 36
M  V30 39 1 21 37
M  V30 END BOND
M  V30 END CTAB
M  END
>  <Dataset>  (227) 
ChEMBL_Kinases

>  <Ligand_Instance>  (227) 
nan

>  <PDB_ID>  (227) 
nan

>  <Standardized_SMILES>  (227) 
C#Cc1nc(Nc2cccc(CCC(N)=O)c2)nc2[nH]cnc12

>  <Name>  (227) 
nan

>  <Pocket>  (227) 
nan

>  <ATP_Site>  (227) 
nan

>  <Peripheral>  (227) 
nan

>  <Num_H_Atoms_ProtBoundConf>  (227) 
nan

>  <Num_Resolved_Atoms>  (227) 
nan

>  <Num_Not_Resolved_Atoms>  (227) 
nan

$$$$
CHEMBL4454007
     RDKit          3D

  0  0  0  0  0  0  0  0  0  0999 V3000
M  V30 BEGIN CTAB
M  V30 COUNTS 49 52 0 0 0
M  V30 BEGIN ATOM
M  V30 1 C 4.923932 -7.003304 1.555731 0
M  V30 2 O 4.604634 -5.741486 1.052659 0
M  V30 3 C 4.238739 -4.631997 1.769495 0
M  V30 4 C 4.135910 -4.625670 3.145589 0
M  V30 5 C 3.760567 -3.438677 3.692986 0
M  V30 6 C 3.487161 -2.286307 2.985617 0
M  V30 7 C 3.601212 -2.333047 1.611875 0
M  V30 8 C 3.315706 -1.130417 0.876295 0
M  V30 9 C 3.066009 -0.130803 0.242972 0
M  V30 10 C 2.747169 1.056622 -0.506847 0
M  V30 11 C 3.583432 1.897098 -1.211798 0
M  V30 12 N 2.817192 2.867999 -1.741115 0
M  V30 13 C 1.519255 2.709275 -1.420415 0
M  V30 14 N 0.367154 3.361590 -1.670905 0
M  V30 15 C -0.822057 2.946358 -1.194761 0
M  V30 16 C -0.938007 1.814332 -0.411626 0
M  V30 17 C -2.185404 1.298814 0.142829 0
M  V30 18 C -2.159779 0.628159 1.348953 0
M  V30 19 C -3.361497 0.165297 1.825133 0
M  V30 20 C -4.524637 0.356035 1.144637 0
M  V30 21 O -5.717412 -0.147762 1.696764 0
M  V30 22 C -5.653428 -0.830267 2.935093 0
M  V30 23 C -4.587456 1.029116 -0.076727 0
M  V30 24 O -5.813274 1.159844 -0.668275 0
M  V30 25 C -5.957937 1.825493 -1.903747 0
M  V30 26 C -3.360136 1.497081 -0.554717 0
M  V30 27 C 0.251251 1.157560 -0.164260 0
M  V30 28 C 1.475197 1.575604 -0.647954 0
M  V30 29 C 3.981973 -3.525473 1.011197 0
M  V30 30 H 5.777257 -7.422977 0.950465 0
M  V30 31 H 5.278492 -7.021769 2.594491 0
M  V30 32 H 4.097708 -7.741662 1.429468 0
M  V30 33 H 4.345259 -5.514936 3.715138 0
M  V30 34 H 3.652471 -3.339345 4.782368 0
M  V30 35 H 3.188357 -1.358487 3.487471 0
M  V30 36 H 4.652412 1.751861 -1.289708 0
M  V30 37 H 3.189928 3.639954 -2.323593 0
M  V30 38 H -1.756216 3.488697 -1.407021 0
M  V30 39 H -1.238166 0.492782 1.860034 0
M  V30 40 H -3.295002 -0.359311 2.780878 0
M  V30 41 H -4.884569 -1.630935 2.912086 0
M  V30 42 H -6.673282 -1.286439 3.085811 0
M  V30 43 H -5.387941 -0.150007 3.764290 0
M  V30 44 H -6.988729 1.774841 -2.296831 0
M  V30 45 H -5.696045 2.901417 -1.826857 0
M  V30 46 H -5.318862 1.356788 -2.700628 0
M  V30 47 H -3.426072 2.022425 -1.513273 0
M  V30 48 H 0.227907 0.263045 0.443461 0
M  V30 49 H 4.052526 -3.494458 -0.067128 0
M  V30 END ATOM
M  V30 BEGIN BOND
M  V30 1 1 1 2
M  V30 2 1 2 3
M  V30 3 2 3 4
M  V30 4 1 4 5
M  V30 5 2 5 6
M  V30 6 1 6 7
M  V30 7 1 7 8
M  V30 8 3 8 9
M  V30 9 1 9 10
M  V30 10 2 10 11
M  V30 11 1 11 12
M  V30 12 1 12 13
M  V30 13 2 13 14
M  V30 14 1 14 15
M  V30 15 2 15 16
M  V30 16 1 16 17
M  V30 17 2 17 18
M  V30 18 1 18 19
M  V30 19 2 19 20
M  V30 20 1 20 21
M  V30 21 1 21 22
M  V30 22 1 20 23
M  V30 23 1 23 24
M  V30 24 1 24 25
M  V30 25 2 23 26
M  V30 26 1 16 27
M  V30 27 2 27 28
M  V30 28 2 7 29
M  V30 29 1 29 3
M  V30 30 1 28 10
M  V30 31 1 28 13
M  V30 32 1 26 17
M  V30 33 1 1 30
M  V30 34 1 1 31
M  V30 35 1 1 32
M  V30 36 1 4 33
M  V30 37 1 5 34
M  V30 38 1 6 35
M  V30 39 1 11 36
M  V30 40 1 12 37
M  V30 41 1 15 38
M  V30 42 1 18 39
M  V30 43 1 19 40
M  V30 44 1 22 41
M  V30 45 1 22 42
M  V30 46 1 22 43
M  V30 47 1 25 44
M  V30 48 1 25 45
M  V30 49 1 25 46
M  V30 50 1 26 47
M  V30 51 1 27 48
M  V30 52 1 29 49
M  V30 END BOND
M  V30 END CTAB
M  END
>  <Dataset>  (228) 
ChEMBL_Kinases

>  <Ligand_Instance>  (228) 
nan

>  <PDB_ID>  (228) 
nan

>  <Standardized_SMILES>  (228) 
COc1cccc(C#Cc2c[nH]c3ncc(-c4ccc(OC)c(OC)c4)cc23)c1

>  <Name>  (228) 
nan

>  <Pocket>  (228) 
nan

>  <ATP_Site>  (228) 
nan

>  <Peripheral>  (228) 
nan

>  <Num_H_Atoms_ProtBoundConf>  (228) 
nan

>  <Num_Resolved_Atoms>  (228) 
nan

>  <Num_Not_Resolved_Atoms>  (228) 
nan

$$$$
CHEMBL4746922
     RDKit          3D

  0  0  0  0  0  0  0  0  0  0999 V3000
M  V30 BEGIN CTAB
M  V30 COUNTS 63 67 0 0 0
M  V30 BEGIN ATOM
M  V30 1 C 4.931892 -1.131553 5.894004 0
M  V30 2 C 4.325581 0.272785 5.794934 0
M  V30 3 O 2.938867 0.158481 6.019919 0
M  V30 4 C 2.138400 -0.612180 5.215546 0
M  V30 5 N 2.599132 -1.317918 4.144909 0
M  V30 6 C 1.753624 -2.048225 3.401184 0
M  V30 7 N 1.849584 -2.850190 2.230778 0
M  V30 8 C 1.498294 -2.080380 1.061579 0
M  V30 9 C 1.220964 -0.704139 1.097406 0
M  V30 10 C 0.879734 0.058188 0.006099 0
M  V30 11 C 0.797924 -0.554471 -1.218594 0
M  V30 12 C 0.435554 0.235081 -2.387286 0
M  V30 13 O 1.294513 0.049071 -3.277463 0
M  V30 14 N -0.721022 1.091011 -2.503635 0
M  V30 15 C -0.851665 1.757253 -3.766175 0
M  V30 16 C -2.326256 1.878827 -4.078751 0
M  V30 17 C -3.093184 0.877129 -3.263544 0
M  V30 18 C -2.998304 1.260409 -1.793752 0
M  V30 19 C -1.567296 1.145439 -1.333829 0
M  V30 20 C -2.752483 -0.559202 -3.519812 0
M  V30 21 N -4.071574 -0.718258 -4.119641 0
M  V30 22 C -4.885642 -1.753585 -3.553272 0
M  V30 23 C -4.506033 0.604157 -3.719187 0
M  V30 24 C 1.064615 -1.930489 -1.324525 0
M  V30 25 C 1.402754 -2.650038 -0.202523 0
M  V30 26 O 1.668408 -4.015195 -0.312726 0
M  V30 27 C 1.621097 -4.769143 -1.477596 0
M  V30 28 N 0.428221 -2.065067 3.747581 0
M  V30 29 C -0.064277 -1.381195 4.797581 0
M  V30 30 N -1.307871 -1.227851 5.338479 0
M  V30 31 C -1.252476 -0.422974 6.393680 0
M  V30 32 C 0.043917 -0.035805 6.557339 0
M  V30 33 C 0.816396 -0.632488 5.554096 0
M  V30 34 H 5.049522 -1.547934 4.850332 0
M  V30 35 H 5.915725 -1.036774 6.399630 0
M  V30 36 H 4.229173 -1.805712 6.418426 0
M  V30 37 H 4.806501 0.887285 6.605367 0
M  V30 38 H 4.537242 0.691566 4.779027 0
M  V30 39 H 2.112588 -3.833607 2.056380 0
M  V30 40 H 1.284535 -0.193971 2.061419 0
M  V30 41 H 0.691381 1.116073 0.158931 0
M  V30 42 H -0.419257 2.772529 -3.698210 0
M  V30 43 H -0.306888 1.242104 -4.582063 0
M  V30 44 H -2.666394 2.889030 -3.787401 0
M  V30 45 H -2.445507 1.685917 -5.172636 0
M  V30 46 H -3.666435 0.633947 -1.164952 0
M  V30 47 H -3.344988 2.311961 -1.675310 0
M  V30 48 H -1.462723 0.218116 -0.726363 0
M  V30 49 H -1.351587 2.020083 -0.668223 0
M  V30 50 H -1.908475 -0.746814 -4.230476 0
M  V30 51 H -2.676836 -1.221205 -2.622752 0
M  V30 52 H -4.300188 -2.635130 -3.170529 0
M  V30 53 H -5.570900 -1.359491 -2.766381 0
M  V30 54 H -5.593593 -2.180969 -4.321088 0
M  V30 55 H -5.286762 0.627698 -2.929274 0
M  V30 56 H -4.740772 1.240795 -4.621196 0
M  V30 57 H 0.968949 -2.285831 -2.319081 0
M  V30 58 H 0.950760 -5.653974 -1.449513 0
M  V30 59 H 1.488358 -4.166288 -2.387503 0
M  V30 60 H 2.649870 -5.229208 -1.594076 0
M  V30 61 H -2.142352 -1.725396 4.906164 0
M  V30 62 H -2.175615 -0.195691 6.944390 0
M  V30 63 H 0.407818 0.620840 7.324453 0
M  V30 END ATOM
M  V30 BEGIN BOND
M  V30 1 1 1 2
M  V30 2 1 2 3
M  V30 3 1 3 4
M  V30 4 2 4 5
M  V30 5 1 5 6
M  V30 6 1 6 7
M  V30 7 1 7 8
M  V30 8 2 8 9
M  V30 9 1 9 10
M  V30 10 2 10 11
M  V30 11 1 11 12
M  V30 12 2 12 13
M  V30 13 1 12 14
M  V30 14 1 14 15
M  V30 15 1 15 16
M  V30 16 1 16 17
M  V30 17 1 17 18
M  V30 18 1 18 19
M  V30 19 1 17 20
M  V30 20 1 20 21
M  V30 21 1 21 22
M  V30 22 1 21 23
M  V30 23 1 11 24
M  V30 24 2 24 25
M  V30 25 1 25 26
M  V30 26 1 26 27
M  V30 27 2 6 28
M  V30 28 1 28 29
M  V30 29 1 29 30
M  V30 30 1 30 31
M  V30 31 2 31 32
M  V30 32 1 32 33
M  V30 33 1 33 4
M  V30 34 1 25 8
M  V30 35 2 33 29
M  V30 36 1 19 14
M  V30 37 1 23 17
M  V30 38 1 1 34
M  V30 39 1 1 35
M  V30 40 1 1 36
M  V30 41 1 2 37
M  V30 42 1 2 38
M  V30 43 1 7 39
M  V30 44 1 9 40
M  V30 45 1 10 41
M  V30 46 1 15 42
M  V30 47 1 15 43
M  V30 48 1 16 44
M  V30 49 1 16 45
M  V30 50 1 18 46
M  V30 51 1 18 47
M  V30 52 1 19 48
M  V30 53 1 19 49
M  V30 54 1 20 50
M  V30 55 1 20 51
M  V30 56 1 22 52
M  V30 57 1 22 53
M  V30 58 1 22 54
M  V30 59 1 23 55
M  V30 60 1 23 56
M  V30 61 1 24 57
M  V30 62 1 27 58
M  V30 63 1 27 59
M  V30 64 1 27 60
M  V30 65 1 30 61
M  V30 66 1 31 62
M  V30 67 1 32 63
M  V30 END BOND
M  V30 END CTAB
M  END
>  <Dataset>  (229) 
ChEMBL_Kinases

>  <Ligand_Instance>  (229) 
nan

>  <PDB_ID>  (229) 
nan

>  <Standardized_SMILES>  (229) 
CCOc1nc(Nc2ccc(C(=O)N3CCC4(CC3)CN(C)C4)cc2OC)nc2[nH]ccc12

>  <Name>  (229) 
nan

>  <Pocket>  (229) 
nan

>  <ATP_Site>  (229) 
nan

>  <Peripheral>  (229) 
nan

>  <Num_H_Atoms_ProtBoundConf>  (229) 
nan

>  <Num_Resolved_Atoms>  (229) 
nan

>  <Num_Not_Resolved_Atoms>  (229) 
nan

$$$$
CHEMBL445397
     RDKit          3D

  0  0  0  0  0  0  0  0  0  0999 V3000
M  V30 BEGIN CTAB
M  V30 COUNTS 61 64 0 0 0
M  V30 BEGIN ATOM
M  V30 1 C 2.511246 1.625078 5.681805 0
M  V30 2 N 3.367708 0.489833 5.858925 0
M  V30 3 C 2.733430 -0.670847 6.400862 0
M  V30 4 C 4.200039 0.233457 4.701252 0
M  V30 5 C 3.405638 -0.026828 3.486390 0
M  V30 6 C 3.050512 1.018959 2.671056 0
M  V30 7 C 2.309151 0.783997 1.538750 0
M  V30 8 N 1.890059 -0.433550 1.154313 0
M  V30 9 C 1.165957 -0.926812 0.112645 0
M  V30 10 C 0.663467 -0.008653 -0.900834 0
M  V30 11 C 1.612539 0.612852 -1.680647 0
M  V30 12 C 1.145279 1.484503 -2.637956 0
M  V30 13 N -0.146155 1.738413 -2.828854 0
M  V30 14 C -1.085036 1.128358 -2.062402 0
M  V30 15 N -2.494413 1.255216 -2.066390 0
M  V30 16 C -3.658853 0.730647 -1.448515 0
M  V30 17 C -4.021629 -0.674208 -1.771753 0
M  V30 18 C -2.994390 -1.684511 -1.403507 0
M  V30 19 C -5.307729 -0.983015 -0.984301 0
M  V30 20 C -4.410206 -0.804018 -3.252385 0
M  V30 21 N -0.614067 0.292100 -1.145866 0
M  V30 22 C 1.082692 -2.269077 0.296827 0
M  V30 23 C 0.376197 -3.148162 -0.626825 0
M  V30 24 C 0.802369 -3.246269 -1.956123 0
M  V30 25 C 0.127990 -4.086723 -2.831919 0
M  V30 26 C -0.961503 -4.838560 -2.433854 0
M  V30 27 F -1.632127 -5.664733 -3.279570 0
M  V30 28 C -1.362005 -4.719425 -1.104195 0
M  V30 29 C -0.707643 -3.884080 -0.194725 0
M  V30 30 N 1.744428 -2.581073 1.429102 0
M  V30 31 C 2.251195 -1.442781 1.970412 0
M  V30 32 C 2.994172 -1.277779 3.121628 0
M  V30 33 H 2.159907 1.947215 6.683184 0
M  V30 34 H 3.133272 2.453369 5.285263 0
M  V30 35 H 1.670793 1.456373 4.977299 0
M  V30 36 H 1.625711 -0.593652 6.235030 0
M  V30 37 H 2.846211 -0.651004 7.519861 0
M  V30 38 H 3.146766 -1.626290 6.067989 0
M  V30 39 H 4.911153 -0.566020 4.899723 0
M  V30 40 H 4.792557 1.155983 4.528171 0
M  V30 41 H 3.348016 2.035068 2.908886 0
M  V30 42 H 2.047708 1.633030 0.918554 0
M  V30 43 H 2.687289 0.507225 -1.640933 0
M  V30 44 H 1.727123 2.079696 -3.360684 0
M  V30 45 H -2.688021 2.009109 -2.796845 0
M  V30 46 H -4.536822 1.377424 -1.679009 0
M  V30 47 H -3.500889 0.797015 -0.338454 0
M  V30 48 H -2.180020 -1.733031 -2.155919 0
M  V30 49 H -3.525700 -2.686636 -1.359976 0
M  V30 50 H -2.606300 -1.447184 -0.393653 0
M  V30 51 H -5.041431 -0.913395 0.095483 0
M  V30 52 H -5.667854 -1.982381 -1.271894 0
M  V30 53 H -6.069837 -0.208100 -1.176545 0
M  V30 54 H -3.654456 -1.489108 -3.722551 0
M  V30 55 H -4.309449 0.164658 -3.768789 0
M  V30 56 H -5.412020 -1.248198 -3.377628 0
M  V30 57 H 1.634091 -2.694193 -2.324230 0
M  V30 58 H 0.437557 -4.182654 -3.872471 0
M  V30 59 H -2.218189 -5.314874 -0.809920 0
M  V30 60 H -1.070510 -3.837742 0.826344 0
M  V30 61 H 3.247215 -2.124622 3.725800 0
M  V30 END ATOM
M  V30 BEGIN BOND
M  V30 1 1 1 2
M  V30 2 1 2 3
M  V30 3 1 2 4
M  V30 4 1 4 5
M  V30 5 1 5 6
M  V30 6 2 6 7
M  V30 7 1 7 8
M  V30 8 1 8 9
M  V30 9 1 9 10
M  V30 10 2 10 11
M  V30 11 1 11 12
M  V30 12 2 12 13
M  V30 13 1 13 14
M  V30 14 1 14 15
M  V30 15 1 15 16
M  V30 16 1 16 17
M  V30 17 1 17 18
M  V30 18 1 17 19
M  V30 19 1 17 20
M  V30 20 2 14 21
M  V30 21 2 9 22
M  V30 22 1 22 23
M  V30 23 2 23 24
M  V30 24 1 24 25
M  V30 25 2 25 26
M  V30 26 1 26 27
M  V30 27 1 26 28
M  V30 28 2 28 29
M  V30 29 1 22 30
M  V30 30 2 30 31
M  V30 31 1 31 32
M  V30 32 2 32 5
M  V30 33 1 31 8
M  V30 34 1 21 10
M  V30 35 1 29 23
M  V30 36 1 1 33
M  V30 37 1 1 34
M  V30 38 1 1 35
M  V30 39 1 3 36
M  V30 40 1 3 37
M  V30 41 1 3 38
M  V30 42 1 4 39
M  V30 43 1 4 40
M  V30 44 1 6 41
M  V30 45 1 7 42
M  V30 46 1 11 43
M  V30 47 1 12 44
M  V30 48 1 15 45
M  V30 49 1 16 46
M  V30 50 1 16 47
M  V30 51 1 18 48
M  V30 52 1 18 49
M  V30 53 1 18 50
M  V30 54 1 19 51
M  V30 55 1 19 52
M  V30 56 1 19 53
M  V30 57 1 20 54
M  V30 58 1 20 55
M  V30 59 1 20 56
M  V30 60 1 24 57
M  V30 61 1 25 58
M  V30 62 1 28 59
M  V30 63 1 29 60
M  V30 64 1 32 61
M  V30 END BOND
M  V30 END CTAB
M  END
>  <Dataset>  (230) 
ChEMBL_Kinases

>  <Ligand_Instance>  (230) 
nan

>  <PDB_ID>  (230) 
nan

>  <Standardized_SMILES>  (230) 
CN(C)Cc1ccn2c(-c3ccnc(NCC(C)(C)C)n3)c(-c3ccc(F)cc3)nc2c1

>  <Name>  (230) 
nan

>  <Pocket>  (230) 
nan

>  <ATP_Site>  (230) 
nan

>  <Peripheral>  (230) 
nan

>  <Num_H_Atoms_ProtBoundConf>  (230) 
nan

>  <Num_Resolved_Atoms>  (230) 
nan

>  <Num_Not_Resolved_Atoms>  (230) 
nan

$$$$
CHEMBL4746990
     RDKit          3D

  0  0  0  0  0  0  0  0  0  0999 V3000
M  V30 BEGIN CTAB
M  V30 COUNTS 40 42 0 0 0
M  V30 BEGIN ATOM
M  V30 1 C -0.238682 -5.071199 1.475912 0
M  V30 2 C -1.006825 -4.338888 0.370302 0
M  V30 3 C -1.339718 -5.415050 -0.674134 0
M  V30 4 N -0.125465 -3.387835 -0.297319 0
M  V30 5 C -0.402823 -1.977521 -0.477064 0
M  V30 6 O -1.526392 -1.860483 0.070841 0
M  V30 7 C 0.741246 -1.414736 -1.190691 0
M  V30 8 C 0.676598 0.053658 -1.487345 0
M  V30 9 N 0.579896 0.909040 -0.340730 0
M  V30 10 C 1.786223 1.264342 0.194934 0
M  V30 11 O 2.885094 0.857283 -0.279352 0
M  V30 12 C 1.890039 2.094066 1.293385 0
M  V30 13 C 3.124311 2.439526 1.818115 0
M  V30 14 C 3.130540 3.273558 2.916972 0
M  V30 15 Cl 4.708490 3.684052 3.546790 0
M  V30 16 C 1.993671 3.778792 3.518191 0
M  V30 17 C 0.768331 3.415616 2.970620 0
M  V30 18 C 0.751842 2.586501 1.877647 0
M  V30 19 N -0.421337 2.232939 1.345527 0
M  V30 20 C -1.670471 2.533651 1.660363 0
M  V30 21 S -2.338531 3.436005 2.805110 0
M  V30 22 N -2.510785 1.925828 0.805317 0
M  V30 23 N -1.774741 1.224437 -0.070226 0
M  V30 24 C -0.492730 1.423876 0.276201 0
M  V30 25 H -0.970016 -5.617742 2.100020 0
M  V30 26 H 0.391601 -5.826033 0.965667 0
M  V30 27 H 0.401821 -4.380994 2.061784 0
M  V30 28 H -1.924898 -3.899585 0.760649 0
M  V30 29 H -1.870860 -4.995073 -1.528000 0
M  V30 30 H -0.333828 -5.832944 -0.948595 0
M  V30 31 H -1.888807 -6.257112 -0.204678 0
M  V30 32 H 0.714992 -3.978445 -0.590541 0
M  V30 33 H 0.923877 -1.926173 -2.161593 0
M  V30 34 H 1.676818 -1.591081 -0.583174 0
M  V30 35 H 1.609254 0.277859 -2.085936 0
M  V30 36 H -0.192300 0.281598 -2.144232 0
M  V30 37 H 4.030910 2.061358 1.371248 0
M  V30 38 H 2.080683 4.434763 4.387083 0
M  V30 39 H -0.066220 3.844341 3.488296 0
M  V30 40 H -3.567328 1.889358 0.688468 0
M  V30 END ATOM
M  V30 BEGIN BOND
M  V30 1 1 1 2
M  V30 2 1 2 3
M  V30 3 1 2 4
M  V30 4 1 4 5
M  V30 5 2 5 6
M  V30 6 1 5 7
M  V30 7 1 7 8
M  V30 8 1 8 9
M  V30 9 1 9 10
M  V30 10 2 10 11
M  V30 11 1 10 12
M  V30 12 2 12 13
M  V30 13 1 13 14
M  V30 14 1 14 15
M  V30 15 2 14 16
M  V30 16 1 16 17
M  V30 17 2 17 18
M  V30 18 1 18 19
M  V30 19 1 19 20
M  V30 20 2 20 21
M  V30 21 1 20 22
M  V30 22 1 22 23
M  V30 23 2 23 24
M  V30 24 1 24 9
M  V30 25 1 18 12
M  V30 26 1 24 19
M  V30 27 1 1 25
M  V30 28 1 1 26
M  V30 29 1 1 27
M  V30 30 1 2 28
M  V30 31 1 3 29
M  V30 32 1 3 30
M  V30 33 1 3 31
M  V30 34 1 4 32
M  V30 35 1 7 33
M  V30 36 1 7 34
M  V30 37 1 8 35
M  V30 38 1 8 36
M  V30 39 1 13 37
M  V30 40 1 16 38
M  V30 41 1 17 39
M  V30 42 1 22 40
M  V30 END BOND
M  V30 END CTAB
M  END
>  <Dataset>  (231) 
ChEMBL_Kinases

>  <Ligand_Instance>  (231) 
nan

>  <PDB_ID>  (231) 
nan

>  <Standardized_SMILES>  (231) 
CC(C)NC(=O)CCn1c(=O)c2cc(Cl)ccc2n2c(=S)[nH]nc12

>  <Name>  (231) 
nan

>  <Pocket>  (231) 
nan

>  <ATP_Site>  (231) 
nan

>  <Peripheral>  (231) 
nan

>  <Num_H_Atoms_ProtBoundConf>  (231) 
nan

>  <Num_Resolved_Atoms>  (231) 
nan

>  <Num_Not_Resolved_Atoms>  (231) 
nan

$$$$
CHEMBL4747004
     RDKit          3D

  0  0  0  0  0  0  0  0  0  0999 V3000
M  V30 BEGIN CTAB
M  V30 COUNTS 65 69 0 0 0
M  V30 BEGIN ATOM
M  V30 1 O 4.226693 -0.563954 -3.676200 0
M  V30 2 S 3.167446 -0.870258 -2.656488 0
M  V30 3 O 1.903668 -0.220489 -3.178913 0
M  V30 4 N 2.986537 -2.588558 -2.582368 0
M  V30 5 C 1.880110 -2.936340 -1.676815 0
M  V30 6 C 1.702804 -4.420001 -1.593449 0
M  V30 7 C 0.587765 -4.912241 -0.729520 0
M  V30 8 N 0.629563 -4.540970 0.648641 0
M  V30 9 C 0.286059 -3.342630 1.342392 0
M  V30 10 C -0.321057 -2.257174 0.764312 0
M  V30 11 C -0.668469 -1.091443 1.385251 0
M  V30 12 C -1.305327 0.049850 0.785260 0
M  V30 13 N -0.702764 1.277190 0.764090 0
M  V30 14 C -1.476107 2.197334 0.162528 0
M  V30 15 C -1.161749 3.605499 -0.044385 0
M  V30 16 C 0.046579 4.102426 0.397239 0
M  V30 17 C 0.377010 5.429061 0.218349 0
M  V30 18 C -0.521177 6.272888 -0.415512 0
M  V30 19 C -1.724343 5.755882 -0.849616 0
M  V30 20 C -2.064870 4.429598 -0.675420 0
M  V30 21 N -2.600984 1.560787 -0.215070 0
M  V30 22 C -2.517000 0.252981 0.154390 0
M  V30 23 C -3.452312 -0.841093 -0.024500 0
M  V30 24 C -3.720289 -1.041368 -1.381378 0
M  V30 25 C -4.580169 -2.027335 -1.828481 0
M  V30 26 C -5.182802 -2.829852 -0.871360 0
M  V30 27 C -4.915709 -2.628649 0.464803 0
M  V30 28 O -5.504475 -3.418316 1.463210 0
M  V30 29 C -4.058891 -1.646864 0.916803 0
M  V30 30 C -0.377821 -0.991677 2.745199 0
M  V30 31 C 0.238084 -2.109466 3.303270 0
M  V30 32 N 0.552336 -3.220333 2.642855 0
M  V30 33 C 3.558703 -0.200974 -1.100372 0
M  V30 34 C 2.662912 0.227045 -0.146171 0
M  V30 35 C 3.185385 0.730209 1.026195 0
M  V30 36 C 4.533451 0.829687 1.297895 0
M  V30 37 C 5.437769 0.400754 0.342305 0
M  V30 38 Cl 7.156335 0.509523 0.647958 0
M  V30 39 C 4.923682 -0.107311 -0.841005 0
M  V30 40 H 2.775420 -2.912841 -3.551947 0
M  V30 41 H 0.980350 -2.484789 -2.090971 0
M  V30 42 H 2.081720 -2.473364 -0.682720 0
M  V30 43 H 1.585026 -4.781310 -2.640839 0
M  V30 44 H 2.663108 -4.833320 -1.151529 0
M  V30 45 H 0.522493 -6.024129 -0.817660 0
M  V30 46 H -0.415194 -4.524202 -1.105145 0
M  V30 47 H 0.991168 -5.317584 1.264115 0
M  V30 48 H -0.569642 -2.288224 -0.285067 0
M  V30 49 H 0.233808 1.525989 1.149222 0
M  V30 50 H 0.788508 3.477833 0.902422 0
M  V30 51 H 1.332340 5.790656 0.574982 0
M  V30 52 H -0.191573 7.297946 -0.518570 0
M  V30 53 H -2.367548 6.485007 -1.334306 0
M  V30 54 H -3.038221 4.075845 -1.043288 0
M  V30 55 H -3.302548 -0.469243 -2.220856 0
M  V30 56 H -4.815588 -2.216279 -2.864785 0
M  V30 57 H -5.871151 -3.625320 -1.167939 0
M  V30 58 H -5.480225 -4.443425 1.368549 0
M  V30 59 H -3.781218 -1.404415 1.922784 0
M  V30 60 H -0.592051 -0.135178 3.368971 0
M  V30 61 H 0.507759 -2.125804 4.372605 0
M  V30 62 H 1.624142 0.135493 -0.390807 0
M  V30 63 H 2.499163 1.071064 1.786413 0
M  V30 64 H 4.899436 1.235223 2.240802 0
M  V30 65 H 5.687391 -0.422273 -1.540924 0
M  V30 END ATOM
M  V30 BEGIN BOND
M  V30 1 2 1 2
M  V30 2 2 2 3
M  V30 3 1 2 4
M  V30 4 1 4 5
M  V30 5 1 5 6
M  V30 6 1 6 7
M  V30 7 1 7 8
M  V30 8 1 8 9
M  V30 9 2 9 10
M  V30 10 1 10 11
M  V30 11 1 11 12
M  V30 12 1 12 13
M  V30 13 1 13 14
M  V30 14 1 14 15
M  V30 15 2 15 16
M  V30 16 1 16 17
M  V30 17 2 17 18
M  V30 18 1 18 19
M  V30 19 2 19 20
M  V30 20 2 14 21
M  V30 21 1 21 22
M  V30 22 1 22 23
M  V30 23 2 23 24
M  V30 24 1 24 25
M  V30 25 2 25 26
M  V30 26 1 26 27
M  V30 27 1 27 28
M  V30 28 2 27 29
M  V30 29 2 11 30
M  V30 30 1 30 31
M  V30 31 2 31 32
M  V30 32 1 2 33
M  V30 33 2 33 34
M  V30 34 1 34 35
M  V30 35 2 35 36
M  V30 36 1 36 37
M  V30 37 1 37 38
M  V30 38 2 37 39
M  V30 39 1 32 9
M  V30 40 1 39 33
M  V30 41 2 22 12
M  V30 42 1 29 23
M  V30 43 1 20 15
M  V30 44 1 4 40
M  V30 45 1 5 41
M  V30 46 1 5 42
M  V30 47 1 6 43
M  V30 48 1 6 44
M  V30 49 1 7 45
M  V30 50 1 7 46
M  V30 51 1 8 47
M  V30 52 1 10 48
M  V30 53 1 13 49
M  V30 54 1 16 50
M  V30 55 1 17 51
M  V30 56 1 18 52
M  V30 57 1 19 53
M  V30 58 1 20 54
M  V30 59 1 24 55
M  V30 60 1 25 56
M  V30 61 1 26 57
M  V30 62 1 28 58
M  V30 63 1 29 59
M  V30 64 1 30 60
M  V30 65 1 31 61
M  V30 66 1 34 62
M  V30 67 1 35 63
M  V30 68 1 36 64
M  V30 69 1 39 65
M  V30 END BOND
M  V30 END CTAB
M  END
>  <Dataset>  (232) 
ChEMBL_Kinases

>  <Ligand_Instance>  (232) 
nan

>  <PDB_ID>  (232) 
nan

>  <Standardized_SMILES>  (232) 
O=S(=O)(NCCCNc1cc(-c2[nH]c(-c3ccccc3)nc2-c2cccc(O)c2)ccn1)c1cccc(Cl)c1

>  <Name>  (232) 
nan

>  <Pocket>  (232) 
nan

>  <ATP_Site>  (232) 
nan

>  <Peripheral>  (232) 
nan

>  <Num_H_Atoms_ProtBoundConf>  (232) 
nan

>  <Num_Resolved_Atoms>  (232) 
nan

>  <Num_Not_Resolved_Atoms>  (232) 
nan

$$$$
CHEMBL4747052
     RDKit          3D

  0  0  0  0  0  0  0  0  0  0999 V3000
M  V30 BEGIN CTAB
M  V30 COUNTS 50 53 0 0 0
M  V30 BEGIN ATOM
M  V30 1 C 4.579795 -2.603471 1.829315 0
M  V30 2 N 3.641844 -2.245837 0.808626 0
M  V30 3 C 4.026916 -2.412320 -0.571371 0
M  V30 4 O 5.134417 -2.936423 -0.763626 0
M  V30 5 C 3.263566 -2.035605 -1.763806 0
M  V30 6 C 3.788537 -2.553761 -2.930895 0
M  V30 7 C 3.145232 -2.262792 -4.126521 0
M  V30 8 C 2.009474 -1.484731 -4.218082 0
M  V30 9 C 1.463913 -0.953127 -3.057079 0
M  V30 10 C 2.125822 -1.260218 -1.886583 0
M  V30 11 N 1.434003 -0.633425 -0.784463 0
M  V30 12 C 0.651220 0.541987 -1.055744 0
M  V30 13 C 1.433588 -1.049427 0.577462 0
M  V30 14 C 0.299862 -0.683163 1.268557 0
M  V30 15 C 0.037029 -0.953183 2.590257 0
M  V30 16 N -1.121927 -0.572007 3.305012 0
M  V30 17 C -2.281866 0.173830 2.920258 0 CFG=1
M  V30 18 C -2.022284 1.596472 2.540031 0
M  V30 19 C -3.193753 2.110496 1.737382 0
M  V30 20 C -4.509059 1.525652 2.258621 0 CFG=1
M  V30 21 O -5.528757 2.133720 1.527873 0
M  V30 22 C -4.534475 0.045575 1.976236 0
M  V30 23 C -3.102662 -0.494174 1.828505 0
M  V30 24 N 1.025556 -1.639021 3.185808 0
M  V30 25 C 2.150834 -2.031543 2.594419 0
M  V30 26 C 2.393473 -1.750141 1.269795 0
M  V30 27 H 5.573625 -2.651361 1.325557 0
M  V30 28 H 4.711056 -1.802551 2.598160 0
M  V30 29 H 4.434910 -3.602388 2.268649 0
M  V30 30 H 4.678411 -3.164627 -2.866737 0
M  V30 31 H 3.596484 -2.695438 -5.034020 0
M  V30 32 H 1.533257 -1.277649 -5.167410 0
M  V30 33 H 0.571895 -0.330815 -3.034487 0
M  V30 34 H -0.385278 0.386715 -1.327908 0
M  V30 35 H 0.698285 1.277755 -0.193943 0
M  V30 36 H 1.255880 1.119151 -1.821470 0
M  V30 37 H -0.422686 -0.143444 0.678503 0
M  V30 38 H -1.117105 -0.911092 4.319280 0
M  V30 39 H -2.960873 0.232770 3.826827 0
M  V30 40 H -1.087047 1.689989 1.973995 0
M  V30 41 H -1.921956 2.239565 3.466586 0
M  V30 42 H -3.116592 1.841075 0.670356 0
M  V30 43 H -3.288806 3.193961 1.818081 0
M  V30 44 H -4.616416 1.719224 3.348690 0
M  V30 45 H -6.378217 1.614749 1.559091 0
M  V30 46 H -5.060140 -0.119153 1.013205 0
M  V30 47 H -5.085429 -0.514239 2.754593 0
M  V30 48 H -3.150716 -1.580310 1.953789 0
M  V30 49 H -2.770351 -0.155992 0.832949 0
M  V30 50 H 2.899033 -2.580696 3.146941 0
M  V30 END ATOM
M  V30 BEGIN BOND
M  V30 1 1 1 2
M  V30 2 1 2 3
M  V30 3 2 3 4
M  V30 4 1 3 5
M  V30 5 2 5 6
M  V30 6 1 6 7
M  V30 7 2 7 8
M  V30 8 1 8 9
M  V30 9 2 9 10
M  V30 10 1 10 11
M  V30 11 1 11 12
M  V30 12 1 11 13
M  V30 13 2 13 14
M  V30 14 1 14 15
M  V30 15 1 15 16
M  V30 16 1 16 17
M  V30 17 1 17 18
M  V30 18 1 18 19
M  V30 19 1 19 20
M  V30 20 1 20 21
M  V30 21 1 20 22
M  V30 22 1 22 23
M  V30 23 2 15 24
M  V30 24 1 24 25
M  V30 25 2 25 26
M  V30 26 1 26 2
M  V30 27 1 10 5
M  V30 28 1 26 13
M  V30 29 1 23 17
M  V30 30 1 1 27
M  V30 31 1 1 28
M  V30 32 1 1 29
M  V30 33 1 6 30
M  V30 34 1 7 31
M  V30 35 1 8 32
M  V30 36 1 9 33
M  V30 37 1 12 34
M  V30 38 1 12 35
M  V30 39 1 12 36
M  V30 40 1 14 37
M  V30 41 1 16 38
M  V30 42 1 17 39 CFG=1
M  V30 43 1 18 40
M  V30 44 1 18 41
M  V30 45 1 19 42
M  V30 46 1 19 43
M  V30 47 1 20 44 CFG=1
M  V30 48 1 21 45
M  V30 49 1 22 46
M  V30 50 1 22 47
M  V30 51 1 23 48
M  V30 52 1 23 49
M  V30 53 1 25 50
M  V30 END BOND
M  V30 END CTAB
M  END
>  <Dataset>  (233) 
ChEMBL_Kinases

>  <Ligand_Instance>  (233) 
nan

>  <PDB_ID>  (233) 
nan

>  <Standardized_SMILES>  (233) 
CN1C(=O)c2ccccc2N(C)c2cc(N[C@H]3CC[C@@H](O)CC3)ncc21

>  <Name>  (233) 
nan

>  <Pocket>  (233) 
nan

>  <ATP_Site>  (233) 
nan

>  <Peripheral>  (233) 
nan

>  <Num_H_Atoms_ProtBoundConf>  (233) 
nan

>  <Num_Resolved_Atoms>  (233) 
nan

>  <Num_Not_Resolved_Atoms>  (233) 
nan

$$$$
CHEMBL4747110
     RDKit          3D

  0  0  0  0  0  0  0  0  0  0999 V3000
M  V30 BEGIN CTAB
M  V30 COUNTS 48 52 0 0 0
M  V30 BEGIN ATOM
M  V30 1 C -0.159745 0.241909 4.669281 0
M  V30 2 O 0.610937 0.689785 3.605967 0
M  V30 3 C 1.957281 0.567035 3.430914 0
M  V30 4 C 2.808622 -0.052666 4.327850 0
M  V30 5 C 4.149584 -0.095670 4.006179 0
M  V30 6 C 4.686024 0.434202 2.860587 0
M  V30 7 C 3.814903 1.053580 1.970174 0
M  V30 8 F 4.401113 1.558255 0.856534 0
M  V30 9 C 2.461420 1.115395 2.260631 0
M  V30 10 C 1.613207 1.781895 1.275721 0
M  V30 11 C 1.072909 0.997723 0.271544 0
M  V30 12 C 0.253056 1.566747 -0.703893 0
M  V30 13 C -0.008075 2.902862 -0.654572 0
M  V30 14 C 0.544414 3.664943 0.359855 0
M  V30 15 N 1.340857 3.102941 1.304566 0
M  V30 16 C -0.833111 3.203274 -1.721021 0
M  V30 17 N -1.054919 2.043220 -2.394528 0
M  V30 18 N -0.394468 1.058828 -1.772722 0
M  V30 19 C -0.314388 -0.339217 -2.095906 0
M  V30 20 C 0.436001 -0.961739 -3.079303 0
M  V30 21 C 0.336283 -2.333848 -3.187042 0
M  V30 22 C -0.483536 -3.046123 -2.340847 0
M  V30 23 C -1.226377 -2.416094 -1.365085 0
M  V30 24 N -2.083883 -3.145995 -0.477496 0
M  V30 25 C -3.491569 -3.466485 -0.691900 0
M  V30 26 C -4.036093 -3.275950 0.709677 0
M  V30 27 C -2.909334 -3.663368 1.655884 0
M  V30 28 C -1.723129 -3.694092 0.777599 0
M  V30 29 O -0.568141 -4.133955 1.080699 0
M  V30 30 N -1.117072 -1.076196 -1.273881 0
M  V30 31 H -0.160841 0.991620 5.481556 0
M  V30 32 H 0.067462 -0.784620 5.011791 0
M  V30 33 H -1.223991 0.192420 4.306073 0
M  V30 34 H 2.365891 -0.459939 5.217498 0
M  V30 35 H 4.794828 -0.591159 4.733979 0
M  V30 36 H 5.765380 0.352938 2.688401 0
M  V30 37 H 1.295900 -0.072719 0.251411 0
M  V30 38 H 0.340725 4.724321 0.403663 0
M  V30 39 H -1.242494 4.152104 -2.000894 0
M  V30 40 H 1.025653 -0.265819 -3.657831 0
M  V30 41 H 0.943894 -2.763186 -3.971085 0
M  V30 42 H -0.534291 -4.133545 -2.459445 0
M  V30 43 H -3.960024 -2.701784 -1.358820 0
M  V30 44 H -3.658397 -4.475183 -1.086485 0
M  V30 45 H -4.264095 -2.184694 0.816348 0
M  V30 46 H -4.942645 -3.899732 0.863654 0
M  V30 47 H -3.159209 -4.619354 2.122808 0
M  V30 48 H -2.792495 -2.910077 2.466637 0
M  V30 END ATOM
M  V30 BEGIN BOND
M  V30 1 1 1 2
M  V30 2 1 2 3
M  V30 3 2 3 4
M  V30 4 1 4 5
M  V30 5 2 5 6
M  V30 6 1 6 7
M  V30 7 1 7 8
M  V30 8 2 7 9
M  V30 9 1 9 10
M  V30 10 2 10 11
M  V30 11 1 11 12
M  V30 12 2 12 13
M  V30 13 1 13 14
M  V30 14 2 14 15
M  V30 15 1 13 16
M  V30 16 2 16 17
M  V30 17 1 17 18
M  V30 18 1 18 19
M  V30 19 2 19 20
M  V30 20 1 20 21
M  V30 21 2 21 22
M  V30 22 1 22 23
M  V30 23 1 23 24
M  V30 24 1 24 25
M  V30 25 1 25 26
M  V30 26 1 26 27
M  V30 27 1 27 28
M  V30 28 2 28 29
M  V30 29 2 23 30
M  V30 30 1 9 3
M  V30 31 1 15 10
M  V30 32 1 30 19
M  V30 33 1 18 12
M  V30 34 1 28 24
M  V30 35 1 1 31
M  V30 36 1 1 32
M  V30 37 1 1 33
M  V30 38 1 4 34
M  V30 39 1 5 35
M  V30 40 1 6 36
M  V30 41 1 11 37
M  V30 42 1 14 38
M  V30 43 1 16 39
M  V30 44 1 20 40
M  V30 45 1 21 41
M  V30 46 1 22 42
M  V30 47 1 25 43
M  V30 48 1 25 44
M  V30 49 1 26 45
M  V30 50 1 26 46
M  V30 51 1 27 47
M  V30 52 1 27 48
M  V30 END BOND
M  V30 END CTAB
M  END
>  <Dataset>  (234) 
ChEMBL_Kinases

>  <Ligand_Instance>  (234) 
nan

>  <PDB_ID>  (234) 
nan

>  <Standardized_SMILES>  (234) 
COc1cccc(F)c1-c1cc2c(cn1)cnn2-c1cccc(N2CCCC2=O)n1

>  <Name>  (234) 
nan

>  <Pocket>  (234) 
nan

>  <ATP_Site>  (234) 
nan

>  <Peripheral>  (234) 
nan

>  <Num_H_Atoms_ProtBoundConf>  (234) 
nan

>  <Num_Resolved_Atoms>  (234) 
nan

>  <Num_Not_Resolved_Atoms>  (234) 
nan

$$$$
CHEMBL4455041
     RDKit          3D

  0  0  0  0  0  0  0  0  0  0999 V3000
M  V30 BEGIN CTAB
M  V30 COUNTS 61 66 0 0 0
M  V30 BEGIN ATOM
M  V30 1 C 3.441345 -0.268555 6.355974 0
M  V30 2 C 2.444668 -0.330939 5.221147 0
M  V30 3 C 2.452318 0.119480 3.876599 0
M  V30 4 C 1.417573 -0.006297 2.745200 0
M  V30 5 N 2.256042 0.685277 1.877441 0
M  V30 6 C 1.627203 0.732582 0.604882 0
M  V30 7 C 0.750072 1.903827 0.289677 0
M  V30 8 F -0.303586 2.063439 1.195480 0
M  V30 9 C 1.446247 3.215691 0.165528 0
M  V30 10 C 2.504663 3.211967 -0.917431 0
M  V30 11 N 1.962980 2.693375 -2.160605 0
M  V30 12 C 0.522673 2.570333 -2.076476 0
M  V30 13 C 0.094173 1.561687 -1.059680 0
M  V30 14 C 0.667310 -0.625941 3.524445 0
M  V30 15 N -0.252250 -0.797663 2.454232 0
M  V30 16 C -1.401020 -1.440575 2.545069 0
M  V30 17 C -2.436182 -1.978189 1.614687 0
M  V30 18 N -3.681393 -2.400846 1.842003 0
M  V30 19 N -4.084185 -3.009550 0.694232 0
M  V30 20 C -2.973193 -2.865579 -0.113812 0
M  V30 21 C -3.124082 -3.427836 -1.406205 0
M  V30 22 C -1.963305 -3.273666 -2.237055 0
M  V30 23 C -0.825258 -2.608576 -1.748689 0
M  V30 24 N -1.402886 -2.421932 -0.643336 0
M  V30 25 N -1.825864 -2.184958 0.426502 0
M  V30 26 N -1.941464 -3.929078 -3.561781 0
M  V30 27 C -0.635096 -4.335926 -4.095552 0
M  V30 28 C -3.132688 -4.249393 -4.355886 0
M  V30 29 C -4.300493 -3.700997 -3.537206 0
M  V30 30 O -4.109569 -4.114628 -2.163289 0
M  V30 31 C -1.675462 -1.947357 3.764728 0
M  V30 32 C -0.924771 -1.896155 4.908680 0
M  V30 33 C 0.220289 -1.217348 4.660281 0
M  V30 34 C 1.250362 -1.028896 5.592192 0
M  V30 35 H 4.444121 -0.672028 6.030560 0
M  V30 36 H 3.056844 -0.864256 7.190882 0
M  V30 37 H 3.564017 0.762642 6.647558 0
M  V30 38 H 3.485467 0.619920 3.974771 0
M  V30 39 H 3.136103 1.165132 1.811168 0
M  V30 40 H 1.099496 -0.243504 0.329806 0
M  V30 41 H 2.440890 0.741946 -0.187932 0
M  V30 42 H 1.993175 3.400571 1.142992 0
M  V30 43 H 0.749603 4.072804 0.076697 0
M  V30 44 H 2.835211 4.247611 -1.083458 0
M  V30 45 H 3.391760 2.625247 -0.591290 0
M  V30 46 H 2.355813 1.739868 -2.295666 0
M  V30 47 H 0.119618 3.566059 -1.781049 0
M  V30 48 H 0.086469 2.315356 -3.073032 0
M  V30 49 H 0.445904 0.566618 -1.417270 0
M  V30 50 H -1.023702 1.577387 -0.966340 0
M  V30 51 H 0.025259 -2.487957 -2.349699 0
M  V30 52 H 0.183357 -3.667420 -3.858273 0
M  V30 53 H -0.444871 -5.400141 -3.693321 0
M  V30 54 H -0.661625 -4.451649 -5.196331 0
M  V30 55 H -3.306940 -5.347790 -4.403659 0
M  V30 56 H -3.122720 -3.769064 -5.321110 0
M  V30 57 H -5.267712 -4.055898 -3.852992 0
M  V30 58 H -4.177449 -2.603530 -3.550850 0
M  V30 59 H -2.579563 -2.523591 4.090590 0
M  V30 60 H -0.983740 -2.226245 5.903282 0
M  V30 61 H 1.062227 -1.445485 6.577421 0
M  V30 END ATOM
M  V30 BEGIN BOND
M  V30 1 1 1 2
M  V30 2 2 2 3
M  V30 3 1 3 4
M  V30 4 1 4 5
M  V30 5 1 5 6
M  V30 6 1 6 7
M  V30 7 1 7 8
M  V30 8 1 7 9
M  V30 9 1 9 10
M  V30 10 1 10 11
M  V30 11 1 11 12
M  V30 12 1 12 13
M  V30 13 2 4 14
M  V30 14 1 14 15
M  V30 15 2 15 16
M  V30 16 1 16 17
M  V30 17 2 17 18
M  V30 18 1 18 19
M  V30 19 2 19 20
M  V30 20 1 20 21
M  V30 21 2 21 22
M  V30 22 1 22 23
M  V30 23 2 23 24
M  V30 24 1 24 25
M  V30 25 1 22 26
M  V30 26 1 26 27
M  V30 27 1 26 28
M  V30 28 1 28 29
M  V30 29 1 29 30
M  V30 30 1 16 31
M  V30 31 2 31 32
M  V30 32 1 32 33
M  V30 33 2 33 34
M  V30 34 1 34 2
M  V30 35 1 13 7
M  V30 36 1 33 14
M  V30 37 1 25 17
M  V30 38 1 25 20
M  V30 39 1 30 21
M  V30 40 1 1 35
M  V30 41 1 1 36
M  V30 42 1 1 37
M  V30 43 1 3 38
M  V30 44 1 5 39
M  V30 45 1 6 40
M  V30 46 1 6 41
M  V30 47 1 9 42
M  V30 48 1 9 43
M  V30 49 1 10 44
M  V30 50 1 10 45
M  V30 51 1 11 46
M  V30 52 1 12 47
M  V30 53 1 12 48
M  V30 54 1 13 49
M  V30 55 1 13 50
M  V30 56 1 23 51
M  V30 57 1 27 52
M  V30 58 1 27 53
M  V30 59 1 27 54
M  V30 60 1 28 55
M  V30 61 1 28 56
M  V30 62 1 29 57
M  V30 63 1 29 58
M  V30 64 1 31 59
M  V30 65 1 32 60
M  V30 66 1 34 61
M  V30 END BOND
M  V30 END CTAB
M  END
>  <Dataset>  (235) 
ChEMBL_Kinases

>  <Ligand_Instance>  (235) 
nan

>  <PDB_ID>  (235) 
nan

>  <Standardized_SMILES>  (235) 
Cc1cc(NCC2(F)CCNCC2)c2nc(-c3nnc4c5c(cnn34)N(C)CCO5)ccc2c1

>  <Name>  (235) 
nan

>  <Pocket>  (235) 
nan

>  <ATP_Site>  (235) 
nan

>  <Peripheral>  (235) 
nan

>  <Num_H_Atoms_ProtBoundConf>  (235) 
nan

>  <Num_Resolved_Atoms>  (235) 
nan

>  <Num_Not_Resolved_Atoms>  (235) 
nan

$$$$
CHEMBL474714
     RDKit          3D

  0  0  0  0  0  0  0  0  0  0999 V3000
M  V30 BEGIN CTAB
M  V30 COUNTS 58 63 0 0 0
M  V30 BEGIN ATOM
M  V30 1 C 0.409106 -3.898108 1.638711 0
M  V30 2 N -0.218135 -2.597875 1.440827 0
M  V30 3 C 0.214114 -1.370436 1.855252 0
M  V30 4 C 1.372445 -1.046568 2.578062 0
M  V30 5 C 1.676561 0.277986 2.930898 0
M  V30 6 S 3.136576 0.445042 3.881475 0
M  V30 7 C 4.683340 0.364380 3.014577 0
M  V30 8 C 5.039722 1.459119 2.065075 0
M  V30 9 C 4.117610 1.573394 0.917371 0
M  V30 10 N 4.503594 2.636789 -0.011848 0
M  V30 11 C 4.144699 3.948208 -0.020930 0
M  V30 12 C 4.741695 4.582396 -1.074876 0
M  V30 13 C 5.494820 3.628560 -1.738447 0
M  V30 14 C 5.330386 2.431301 -1.059891 0
M  V30 15 C 0.734545 1.223019 2.502928 0
M  V30 16 O 1.086271 2.522844 2.884955 0
M  V30 17 C -0.374635 0.862361 1.803476 0
M  V30 18 C -0.690730 -0.413498 1.449475 0
M  V30 19 C -1.664719 -1.071261 0.791659 0
M  V30 20 C -2.788110 -0.626625 0.191102 0
M  V30 21 C -3.643712 -1.505019 -0.425568 0
M  V30 22 C -3.359957 -2.860367 -0.436510 0
M  V30 23 C -4.236631 -3.837386 -1.078660 0
M  V30 24 C -5.242422 -4.413227 -0.336277 0
M  V30 25 C -6.015071 -5.328426 -1.052745 0
M  V30 26 C -5.814177 -5.647216 -2.381559 0
M  V30 27 C -4.791684 -5.035173 -3.063767 0
M  V30 28 C -3.990004 -4.122603 -2.421118 0
M  V30 29 Cl -2.656333 -3.302046 -3.249866 0
M  V30 30 C -2.215448 -3.330140 0.173252 0
M  V30 31 C -1.379031 -2.417824 0.783081 0
M  V30 32 C -4.810643 -0.860446 -1.025534 0
M  V30 33 O -5.757842 -1.400222 -1.651588 0
M  V30 34 N -4.616472 0.535436 -0.729077 0
M  V30 35 C -3.406434 0.659044 -0.003276 0
M  V30 36 O -3.093475 1.810488 0.330763 0
M  V30 37 H -0.123719 -4.377968 2.490408 0
M  V30 38 H 1.471640 -3.834674 1.888877 0
M  V30 39 H 0.240776 -4.561324 0.763538 0
M  V30 40 H 2.020419 -1.896900 2.846666 0
M  V30 41 H 4.745419 -0.633998 2.439867 0
M  V30 42 H 5.546116 0.227714 3.750086 0
M  V30 43 H 6.110359 1.342022 1.778040 0
M  V30 44 H 5.049727 2.407385 2.692207 0
M  V30 45 H 3.990200 0.665004 0.331976 0
M  V30 46 H 3.135152 1.875158 1.289492 0
M  V30 47 H 3.473216 4.367494 0.734410 0
M  V30 48 H 4.645414 5.640858 -1.345613 0
M  V30 49 H 6.113136 3.757499 -2.629375 0
M  V30 50 H 5.810340 1.516186 -1.365948 0
M  V30 51 H 1.129889 2.663758 3.898294 0
M  V30 52 H -0.970086 1.683443 1.561907 0
M  V30 53 H -5.409007 -4.177581 0.687173 0
M  V30 54 H -6.827771 -5.819567 -0.523691 0
M  V30 55 H -6.447014 -6.364731 -2.881182 0
M  V30 56 H -4.560148 -5.220803 -4.100400 0
M  V30 57 H -1.988678 -4.405788 0.165550 0
M  V30 58 H -5.330592 1.233060 -1.056419 0
M  V30 END ATOM
M  V30 BEGIN BOND
M  V30 1 1 1 2
M  V30 2 1 2 3
M  V30 3 2 3 4
M  V30 4 1 4 5
M  V30 5 1 5 6
M  V30 6 1 6 7
M  V30 7 1 7 8
M  V30 8 1 8 9
M  V30 9 1 9 10
M  V30 10 1 10 11
M  V30 11 2 11 12
M  V30 12 1 12 13
M  V30 13 2 13 14
M  V30 14 2 5 15
M  V30 15 1 15 16
M  V30 16 1 15 17
M  V30 17 2 17 18
M  V30 18 1 18 19
M  V30 19 2 19 20
M  V30 20 1 20 21
M  V30 21 2 21 22
M  V30 22 1 22 23
M  V30 23 2 23 24
M  V30 24 1 24 25
M  V30 25 2 25 26
M  V30 26 1 26 27
M  V30 27 2 27 28
M  V30 28 1 28 29
M  V30 29 1 22 30
M  V30 30 2 30 31
M  V30 31 1 21 32
M  V30 32 2 32 33
M  V30 33 1 32 34
M  V30 34 1 34 35
M  V30 35 2 35 36
M  V30 36 1 31 2
M  V30 37 1 18 3
M  V30 38 1 31 19
M  V30 39 1 14 10
M  V30 40 1 35 20
M  V30 41 1 28 23
M  V30 42 1 1 37
M  V30 43 1 1 38
M  V30 44 1 1 39
M  V30 45 1 4 40
M  V30 46 1 7 41
M  V30 47 1 7 42
M  V30 48 1 8 43
M  V30 49 1 8 44
M  V30 50 1 9 45
M  V30 51 1 9 46
M  V30 52 1 11 47
M  V30 53 1 12 48
M  V30 54 1 13 49
M  V30 55 1 14 50
M  V30 56 1 16 51
M  V30 57 1 17 52
M  V30 58 1 24 53
M  V30 59 1 25 54
M  V30 60 1 26 55
M  V30 61 1 27 56
M  V30 62 1 30 57
M  V30 63 1 34 58
M  V30 END BOND
M  V30 END CTAB
M  END
>  <Dataset>  (236) 
ChEMBL_Kinases

>  <Ligand_Instance>  (236) 
nan

>  <PDB_ID>  (236) 
nan

>  <Standardized_SMILES>  (236) 
Cn1c2cc(SCCCn3cccc3)c(O)cc2c2c3c(c(-c4ccccc4Cl)cc21)C(=O)NC3=O

>  <Name>  (236) 
nan

>  <Pocket>  (236) 
nan

>  <ATP_Site>  (236) 
nan

>  <Peripheral>  (236) 
nan

>  <Num_H_Atoms_ProtBoundConf>  (236) 
nan

>  <Num_Resolved_Atoms>  (236) 
nan

>  <Num_Not_Resolved_Atoms>  (236) 
nan

$$$$
CHEMBL4453844
     RDKit          3D

  0  0  0  0  0  0  0  0  0  0999 V3000
M  V30 BEGIN CTAB
M  V30 COUNTS 48 52 0 0 0
M  V30 BEGIN ATOM
M  V30 1 C 0.020380 -2.059427 7.052964 0
M  V30 2 C 0.089696 -2.343474 5.616359 0
M  V30 3 N 1.169238 -2.213285 4.829206 0
M  V30 4 C 0.788456 -2.577217 3.599372 0
M  V30 5 C 1.564366 -2.634796 2.314899 0
M  V30 6 C 1.532523 -1.395728 1.569903 0
M  V30 7 N 2.470782 -0.462289 1.945096 0
M  V30 8 C 2.286295 0.621948 1.214251 0
M  V30 9 C 3.013768 1.798315 1.280129 0
M  V30 10 N 2.662084 2.787515 0.462522 0
M  V30 11 C 1.638149 2.633704 -0.384881 0
M  V30 12 C 1.319619 3.707750 -1.168943 0
M  V30 13 C 0.259360 3.596691 -2.019775 0
M  V30 14 C -0.487808 2.415109 -2.091645 0
M  V30 15 C -1.614957 2.395564 -3.040755 0
M  V30 16 F -1.118556 2.930834 -4.237483 0
M  V30 17 F -2.540835 3.338936 -2.598722 0
M  V30 18 F -2.140919 1.158760 -3.241565 0
M  V30 19 C -0.082664 1.391732 -1.259166 0
M  V30 20 C 0.967567 1.433657 -0.388292 0
M  V30 21 C 1.228457 0.333541 0.396207 0
M  V30 22 N 0.731342 -0.904089 0.575959 0
M  V30 23 C -0.294695 -1.523803 -0.111409 0 CFG=2
M  V30 24 C -1.687630 -1.378504 0.361047 0
M  V30 25 C -2.588735 -1.575633 -0.868202 0
M  V30 26 O -1.875484 -2.188650 -1.894927 0
M  V30 27 C -1.206835 -3.319576 -1.501342 0
M  V30 28 C -0.219531 -3.055985 -0.331797 0
M  V30 29 F -0.869373 -3.683205 0.699831 0
M  V30 30 F 1.015747 -3.485640 -0.654406 0
M  V30 31 N -0.514380 -2.923817 3.651189 0
M  V30 32 O -0.890282 -2.769681 4.870817 0
M  V30 33 H 1.015680 -1.789076 7.446172 0
M  V30 34 H -0.331854 -2.968338 7.603771 0
M  V30 35 H -0.713401 -1.264676 7.293665 0
M  V30 36 H 1.429533 -3.588072 1.814070 0
M  V30 37 H 2.614366 -2.795095 2.735575 0
M  V30 38 H 3.839493 1.924439 1.964656 0
M  V30 39 H 1.881588 4.625946 -1.128038 0
M  V30 40 H 0.009004 4.446643 -2.639955 0
M  V30 41 H -0.736857 0.574349 -1.372716 0
M  V30 42 H -0.232635 -1.219972 -1.193549 0
M  V30 43 H -2.020805 -2.200709 1.048561 0
M  V30 44 H -1.920980 -0.434107 0.876677 0
M  V30 45 H -3.480664 -2.164803 -0.671666 0
M  V30 46 H -2.869727 -0.584836 -1.223093 0
M  V30 47 H -0.529958 -3.588226 -2.366761 0
M  V30 48 H -1.833902 -4.189934 -1.339082 0
M  V30 END ATOM
M  V30 BEGIN BOND
M  V30 1 1 1 2
M  V30 2 2 2 3
M  V30 3 1 3 4
M  V30 4 1 4 5
M  V30 5 1 5 6
M  V30 6 2 6 7
M  V30 7 1 7 8
M  V30 8 2 8 9
M  V30 9 1 9 10
M  V30 10 2 10 11
M  V30 11 1 11 12
M  V30 12 2 12 13
M  V30 13 1 13 14
M  V30 14 1 14 15
M  V30 15 1 15 16
M  V30 16 1 15 17
M  V30 17 1 15 18
M  V30 18 2 14 19
M  V30 19 1 19 20
M  V30 20 2 20 21
M  V30 21 1 21 22
M  V30 22 1 22 23
M  V30 23 1 23 24
M  V30 24 1 24 25
M  V30 25 1 25 26
M  V30 26 1 26 27
M  V30 27 1 27 28
M  V30 28 1 28 29
M  V30 29 1 28 30
M  V30 30 2 4 31
M  V30 31 1 31 32
M  V30 32 1 32 2
M  V30 33 1 22 6
M  V30 34 1 28 23
M  V30 35 1 21 8
M  V30 36 1 20 11
M  V30 37 1 1 33
M  V30 38 1 1 34
M  V30 39 1 1 35
M  V30 40 1 5 36
M  V30 41 1 5 37
M  V30 42 1 9 38
M  V30 43 1 12 39
M  V30 44 1 13 40
M  V30 45 1 19 41
M  V30 46 1 23 42 CFG=3
M  V30 47 1 24 43
M  V30 48 1 24 44
M  V30 49 1 25 45
M  V30 50 1 25 46
M  V30 51 1 27 47
M  V30 52 1 27 48
M  V30 END BOND
M  V30 END CTAB
M  END
>  <Dataset>  (237) 
ChEMBL_Kinases

>  <Ligand_Instance>  (237) 
nan

>  <PDB_ID>  (237) 
nan

>  <Standardized_SMILES>  (237) 
Cc1nc(Cc2nc3cnc4ccc(C(F)(F)F)cc4c3n2[C@@H]2CCOCC2(F)F)no1

>  <Name>  (237) 
nan

>  <Pocket>  (237) 
nan

>  <ATP_Site>  (237) 
nan

>  <Peripheral>  (237) 
nan

>  <Num_H_Atoms_ProtBoundConf>  (237) 
nan

>  <Num_Resolved_Atoms>  (237) 
nan

>  <Num_Not_Resolved_Atoms>  (237) 
nan

$$$$
CHEMBL4453782
     RDKit          3D

  0  0  0  0  0  0  0  0  0  0999 V3000
M  V30 BEGIN CTAB
M  V30 COUNTS 52 55 0 0 0
M  V30 BEGIN ATOM
M  V30 1 C -3.362167 -3.236025 4.646082 0
M  V30 2 S -1.966744 -4.362426 4.402757 0
M  V30 3 C -0.718190 -3.613275 3.367947 0
M  V30 4 C 0.253056 -2.893222 4.019653 0
M  V30 5 N 1.216505 -2.311566 3.248738 0
M  V30 6 C 1.209469 -2.441757 1.910665 0
M  V30 7 N 2.244249 -1.809443 1.166127 0
M  V30 8 C 2.031555 -0.452499 0.765719 0
M  V30 9 C 2.957260 0.285325 0.025077 0
M  V30 10 C 2.728103 1.594777 -0.344052 0
M  V30 11 C 1.556591 2.218122 0.016614 0
M  V30 12 N 1.335055 3.565139 -0.366463 0
M  V30 13 C 2.238257 4.418403 -1.107466 0
M  V30 14 C 2.545575 5.701980 -0.366826 0
M  V30 15 O 1.403902 6.350201 0.068646 0
M  V30 16 C 0.639094 5.476000 0.848264 0
M  V30 17 C 0.175518 4.389933 -0.111762 0
M  V30 18 C 0.606805 1.542265 0.746247 0
M  V30 19 C 0.874343 0.233528 1.095733 0
M  V30 20 N 0.233560 -3.155252 1.365181 0
M  V30 21 C -0.767223 -3.774781 2.000664 0
M  V30 22 N -1.803216 -4.533319 1.404565 0
M  V30 23 C -2.019012 -4.826831 0.038165 0
M  V30 24 C -3.124699 -5.565343 -0.374872 0
M  V30 25 C -3.349794 -5.862998 -1.697957 0
M  V30 26 C -2.496397 -5.446604 -2.672371 0
M  V30 27 C -1.397837 -4.720997 -2.331036 0
M  V30 28 O -0.508407 -4.283257 -3.315462 0
M  V30 29 C -1.202658 -4.440877 -0.996880 0
M  V30 30 H -3.035755 -2.210604 4.916447 0
M  V30 31 H -4.042956 -3.180113 3.784754 0
M  V30 32 H -3.955693 -3.585909 5.535948 0
M  V30 33 H 0.261738 -2.786644 5.091151 0
M  V30 34 H 3.159898 -2.222157 0.869297 0
M  V30 35 H 3.862210 -0.250406 -0.233598 0
M  V30 36 H 3.519407 2.026011 -0.903221 0
M  V30 37 H 1.748415 4.745558 -2.069779 0
M  V30 38 H 3.175596 3.948948 -1.406275 0
M  V30 39 H 3.290578 5.569411 0.442537 0
M  V30 40 H 3.024229 6.393609 -1.113776 0
M  V30 41 H -0.181118 5.971310 1.374671 0
M  V30 42 H 1.319244 4.958752 1.580233 0
M  V30 43 H -0.272852 4.830565 -1.027162 0
M  V30 44 H -0.640126 3.816035 0.363515 0
M  V30 45 H -0.334911 1.955765 1.069095 0
M  V30 46 H 0.130351 -0.317142 1.675744 0
M  V30 47 H -2.522132 -4.941532 2.070424 0
M  V30 48 H -3.831353 -5.915565 0.384352 0
M  V30 49 H -4.235790 -6.445341 -1.951403 0
M  V30 50 H -2.687629 -5.689136 -3.707964 0
M  V30 51 H 0.394650 -4.750449 -3.424402 0
M  V30 52 H -0.314213 -3.862712 -0.788597 0
M  V30 END ATOM
M  V30 BEGIN BOND
M  V30 1 1 1 2
M  V30 2 1 2 3
M  V30 3 2 3 4
M  V30 4 1 4 5
M  V30 5 2 5 6
M  V30 6 1 6 7
M  V30 7 1 7 8
M  V30 8 2 8 9
M  V30 9 1 9 10
M  V30 10 2 10 11
M  V30 11 1 11 12
M  V30 12 1 12 13
M  V30 13 1 13 14
M  V30 14 1 14 15
M  V30 15 1 15 16
M  V30 16 1 16 17
M  V30 17 1 11 18
M  V30 18 2 18 19
M  V30 19 1 6 20
M  V30 20 2 20 21
M  V30 21 1 21 22
M  V30 22 1 22 23
M  V30 23 2 23 24
M  V30 24 1 24 25
M  V30 25 2 25 26
M  V30 26 1 26 27
M  V30 27 1 27 28
M  V30 28 2 27 29
M  V30 29 1 21 3
M  V30 30 1 29 23
M  V30 31 1 19 8
M  V30 32 1 17 12
M  V30 33 1 1 30
M  V30 34 1 1 31
M  V30 35 1 1 32
M  V30 36 1 4 33
M  V30 37 1 7 34
M  V30 38 1 9 35
M  V30 39 1 10 36
M  V30 40 1 13 37
M  V30 41 1 13 38
M  V30 42 1 14 39
M  V30 43 1 14 40
M  V30 44 1 16 41
M  V30 45 1 16 42
M  V30 46 1 17 43
M  V30 47 1 17 44
M  V30 48 1 18 45
M  V30 49 1 19 46
M  V30 50 1 22 47
M  V30 51 1 24 48
M  V30 52 1 25 49
M  V30 53 1 26 50
M  V30 54 1 28 51
M  V30 55 1 29 52
M  V30 END BOND
M  V30 END CTAB
M  END
>  <Dataset>  (238) 
ChEMBL_Kinases

>  <Ligand_Instance>  (238) 
nan

>  <PDB_ID>  (238) 
nan

>  <Standardized_SMILES>  (238) 
CSc1cnc(Nc2ccc(N3CCOCC3)cc2)nc1Nc1cccc(O)c1

>  <Name>  (238) 
nan

>  <Pocket>  (238) 
nan

>  <ATP_Site>  (238) 
nan

>  <Peripheral>  (238) 
nan

>  <Num_H_Atoms_ProtBoundConf>  (238) 
nan

>  <Num_Resolved_Atoms>  (238) 
nan

>  <Num_Not_Resolved_Atoms>  (238) 
nan

$$$$
CHEMBL4453662
     RDKit          3D

  0  0  0  0  0  0  0  0  0  0999 V3000
M  V30 BEGIN CTAB
M  V30 COUNTS 51 54 0 0 0
M  V30 BEGIN ATOM
M  V30 1 C 1.027178 0.403889 4.756833 0
M  V30 2 N 2.457598 0.547579 4.981868 0
M  V30 3 N 2.941890 0.517779 6.238150 0
M  V30 4 C 4.277308 0.663573 6.211366 0
M  V30 5 C 4.525514 0.777910 4.869062 0
M  V30 6 Cl 6.214928 0.983725 4.547316 0
M  V30 7 C 3.429597 0.712070 4.068018 0
M  V30 8 C 3.339334 0.789750 2.634046 0
M  V30 9 C 2.152635 0.711406 1.972849 0
M  V30 10 C 2.104797 0.780378 0.632886 0
M  V30 11 C 1.045620 0.731890 -0.409197 0
M  V30 12 O 1.393907 0.828359 -1.610702 0
M  V30 13 N -0.292460 0.582426 -0.035991 0
M  V30 14 C -1.501449 0.505111 -0.834821 0 CFG=2
M  V30 15 C -2.416826 1.600773 -0.354640 0
M  V30 16 N -3.136787 1.169029 0.823534 0
M  V30 17 C -4.094146 0.125915 0.515375 0
M  V30 18 C -3.596556 -0.826756 -0.521525 0
M  V30 19 C -2.102895 -0.866423 -0.515837 0 CFG=1
M  V30 20 C -1.615900 -1.895515 -1.466335 0
M  V30 21 C -1.962992 -1.762532 -2.812940 0
M  V30 22 C -1.498876 -2.728909 -3.679981 0
M  V30 23 C -0.723250 -3.800592 -3.290957 0
M  V30 24 Cl -0.191640 -4.966722 -4.479474 0
M  V30 25 C -0.376015 -3.933251 -1.943773 0
M  V30 26 C 0.454302 -5.090547 -1.574111 0
M  V30 27 F 1.675848 -5.070118 -2.254107 0
M  V30 28 F -0.150789 -6.289136 -1.896697 0
M  V30 29 F 0.771706 -5.042294 -0.218411 0
M  V30 30 C -0.840174 -2.966988 -1.077068 0
M  V30 31 S 3.703471 0.965624 0.075347 0
M  V30 32 C 4.470104 0.944336 1.812440 0
M  V30 33 Cl 6.121965 1.097186 1.884849 0
M  V30 34 H 0.879878 -0.547756 4.199877 0
M  V30 35 H 0.556650 0.285082 5.784636 0
M  V30 36 H 0.556633 1.290440 4.337226 0
M  V30 37 H 4.776376 0.655459 7.157892 0
M  V30 38 H 1.125917 0.597494 2.265050 0
M  V30 39 H -0.499803 0.510138 0.986825 0
M  V30 40 H -1.307826 0.576117 -1.907925 0
M  V30 41 H -3.137808 1.862538 -1.152773 0
M  V30 42 H -1.775773 2.454139 -0.044930 0
M  V30 43 H -2.506897 0.949264 1.603341 0
M  V30 44 H -4.990974 0.651904 0.114460 0
M  V30 45 H -4.432337 -0.393724 1.434816 0
M  V30 46 H -3.986784 -0.537754 -1.518357 0
M  V30 47 H -3.939435 -1.849844 -0.225259 0
M  V30 48 H -1.775812 -1.202061 0.504366 0
M  V30 49 H -2.571922 -0.915837 -3.100592 0
M  V30 50 H -1.760274 -2.637794 -4.725666 0
M  V30 51 H -0.569053 -3.073440 -0.035698 0
M  V30 END ATOM
M  V30 BEGIN BOND
M  V30 1 1 1 2
M  V30 2 1 2 3
M  V30 3 2 3 4
M  V30 4 1 4 5
M  V30 5 1 5 6
M  V30 6 2 5 7
M  V30 7 1 7 8
M  V30 8 1 8 9
M  V30 9 2 9 10
M  V30 10 1 10 11
M  V30 11 2 11 12
M  V30 12 1 11 13
M  V30 13 1 13 14
M  V30 14 1 14 15
M  V30 15 1 15 16
M  V30 16 1 16 17
M  V30 17 1 17 18
M  V30 18 1 18 19
M  V30 19 1 19 20
M  V30 20 2 20 21
M  V30 21 1 21 22
M  V30 22 2 22 23
M  V30 23 1 23 24
M  V30 24 1 23 25
M  V30 25 1 25 26
M  V30 26 1 26 27
M  V30 27 1 26 28
M  V30 28 1 26 29
M  V30 29 2 25 30
M  V30 30 1 10 31
M  V30 31 1 31 32
M  V30 32 1 32 33
M  V30 33 1 7 2
M  V30 34 2 32 8
M  V30 35 1 19 14
M  V30 36 1 30 20
M  V30 37 1 1 34
M  V30 38 1 1 35
M  V30 39 1 1 36
M  V30 40 1 4 37
M  V30 41 1 9 38
M  V30 42 1 13 39
M  V30 43 1 14 40 CFG=3
M  V30 44 1 15 41
M  V30 45 1 15 42
M  V30 46 1 16 43
M  V30 47 1 17 44
M  V30 48 1 17 45
M  V30 49 1 18 46
M  V30 50 1 18 47
M  V30 51 1 19 48 CFG=1
M  V30 52 1 21 49
M  V30 53 1 22 50
M  V30 54 1 30 51
M  V30 END BOND
M  V30 END CTAB
M  END
>  <Dataset>  (239) 
ChEMBL_Kinases

>  <Ligand_Instance>  (239) 
nan

>  <PDB_ID>  (239) 
nan

>  <Standardized_SMILES>  (239) 
Cn1ncc(Cl)c1-c1cc(C(=O)N[C@@H]2CNCC[C@H]2c2ccc(Cl)c(C(F)(F)F)c2)sc1Cl

>  <Name>  (239) 
nan

>  <Pocket>  (239) 
nan

>  <ATP_Site>  (239) 
nan

>  <Peripheral>  (239) 
nan

>  <Num_H_Atoms_ProtBoundConf>  (239) 
nan

>  <Num_Resolved_Atoms>  (239) 
nan

>  <Num_Not_Resolved_Atoms>  (239) 
nan

$$$$
CHEMBL4453650
     RDKit          3D

  0  0  0  0  0  0  0  0  0  0999 V3000
M  V30 BEGIN CTAB
M  V30 COUNTS 29 31 0 0 0
M  V30 BEGIN ATOM
M  V30 1 C 0.180829 -0.411732 3.400095 0
M  V30 2 C 1.523039 -0.826446 2.857173 0
M  V30 3 N 2.648384 -1.053291 3.568899 0
M  V30 4 N 3.648306 -1.401612 2.785817 0
M  V30 5 C 3.157924 -1.401746 1.520932 0
M  V30 6 C 3.822150 -1.700998 0.346324 0
M  V30 7 C 3.044889 -1.610856 -0.786926 0
M  V30 8 N 1.749565 -1.260982 -0.750173 0
M  V30 9 C 1.107754 -0.971241 0.390413 0
M  V30 10 N -0.267401 -0.608803 0.339319 0
M  V30 11 C -0.930033 -0.565400 -0.947824 0
M  V30 12 C -2.362429 -0.184775 -0.923618 0
M  V30 13 C -2.805117 1.143854 -0.380006 0
M  V30 14 C -3.242966 -0.205679 0.239490 0
M  V30 15 C 1.825049 -1.043160 1.545026 0
M  V30 16 H 0.303421 -0.363178 4.525977 0
M  V30 17 H -0.564844 -1.219113 3.255213 0
M  V30 18 H -0.121975 0.586892 3.098559 0
M  V30 19 H 4.597878 -1.615579 3.168836 0
M  V30 20 H 4.865413 -1.980639 0.337352 0
M  V30 21 H 3.503578 -1.834083 -1.757932 0
M  V30 22 H -0.924050 -0.353804 1.096145 0
M  V30 23 H -0.372455 0.081934 -1.663954 0
M  V30 24 H -0.864892 -1.616244 -1.337481 0
M  V30 25 H -2.869163 -0.410472 -1.908363 0
M  V30 26 H -3.596293 1.736304 -0.886432 0
M  V30 27 H -2.054157 1.745329 0.148984 0
M  V30 28 H -2.939521 -0.277978 1.286967 0
M  V30 29 H -4.339985 -0.428902 0.079883 0
M  V30 END ATOM
M  V30 BEGIN BOND
M  V30 1 1 1 2
M  V30 2 2 2 3
M  V30 3 1 3 4
M  V30 4 1 4 5
M  V30 5 2 5 6
M  V30 6 1 6 7
M  V30 7 2 7 8
M  V30 8 1 8 9
M  V30 9 1 9 10
M  V30 10 1 10 11
M  V30 11 1 11 12
M  V30 12 1 12 13
M  V30 13 1 13 14
M  V30 14 2 9 15
M  V30 15 1 15 2
M  V30 16 1 15 5
M  V30 17 1 14 12
M  V30 18 1 1 16
M  V30 19 1 1 17
M  V30 20 1 1 18
M  V30 21 1 4 19
M  V30 22 1 6 20
M  V30 23 1 7 21
M  V30 24 1 10 22
M  V30 25 1 11 23
M  V30 26 1 11 24
M  V30 27 1 12 25
M  V30 28 1 13 26
M  V30 29 1 13 27
M  V30 30 1 14 28
M  V30 31 1 14 29
M  V30 END BOND
M  V30 END CTAB
M  END
>  <Dataset>  (240) 
ChEMBL_Kinases

>  <Ligand_Instance>  (240) 
nan

>  <PDB_ID>  (240) 
nan

>  <Standardized_SMILES>  (240) 
Cc1n[nH]c2ccnc(NCC3CC3)c12

>  <Name>  (240) 
nan

>  <Pocket>  (240) 
nan

>  <ATP_Site>  (240) 
nan

>  <Peripheral>  (240) 
nan

>  <Num_H_Atoms_ProtBoundConf>  (240) 
nan

>  <Num_Resolved_Atoms>  (240) 
nan

>  <Num_Not_Resolved_Atoms>  (240) 
nan

$$$$
CHEMBL4453593
     RDKit          3D

  0  0  0  0  0  0  0  0  0  0999 V3000
M  V30 BEGIN CTAB
M  V30 COUNTS 36 38 0 0 0
M  V30 BEGIN ATOM
M  V30 1 C 1.222008 -4.017382 2.484147 0
M  V30 2 C 1.874501 -2.996139 1.543379 0
M  V30 3 C 2.399050 -3.838122 0.373609 0
M  V30 4 C 3.091486 -2.571150 2.296309 0
M  V30 5 N 4.037211 -2.224276 2.869766 0
M  V30 6 N 1.015654 -1.936671 1.193932 0
M  V30 7 C 0.178532 -0.839366 0.810486 0
M  V30 8 N 0.510472 0.178165 -0.000291 0
M  V30 9 C -0.264282 1.196416 -0.357021 0
M  V30 10 C 0.216659 2.245569 -1.249885 0
M  V30 11 C 1.508064 2.166605 -1.727696 0
M  V30 12 C 1.844920 3.220292 -2.564334 0
M  V30 13 N 1.005110 4.211394 -2.876447 0
M  V30 14 C -0.255368 4.246808 -2.382462 0
M  V30 15 C -0.700057 3.236421 -1.530255 0
M  V30 16 N -1.480847 1.140969 0.179383 0
M  V30 17 C -1.947126 0.194615 0.998164 0
M  V30 18 C -3.249994 0.372289 1.415547 0
M  V30 19 N -3.746968 -0.584331 2.253787 0
M  V30 20 C -2.977644 -1.631860 2.632166 0
M  V30 21 C -1.684685 -1.744495 2.175741 0
M  V30 22 C -1.095352 -0.833874 1.330045 0
M  V30 23 H 0.328954 -4.478450 2.041930 0
M  V30 24 H 2.025747 -4.720882 2.748804 0
M  V30 25 H 0.957213 -3.457337 3.412762 0
M  V30 26 H 1.634671 -4.599515 0.164804 0
M  V30 27 H 2.494883 -3.150203 -0.468025 0
M  V30 28 H 3.324766 -4.349026 0.671052 0
M  V30 29 H 1.878545 -1.648035 0.647285 0
M  V30 30 H 2.163453 1.349815 -1.455417 0
M  V30 31 H 2.860952 3.222648 -2.982940 0
M  V30 32 H -0.968394 5.040878 -2.616040 0
M  V30 33 H -1.699429 3.217955 -1.107763 0
M  V30 34 H -3.845447 1.217230 1.100027 0
M  V30 35 H -3.368266 -2.389678 3.294976 0
M  V30 36 H -1.075326 -2.574146 2.475461 0
M  V30 END ATOM
M  V30 BEGIN BOND
M  V30 1 1 1 2
M  V30 2 1 2 3
M  V30 3 1 2 4
M  V30 4 3 4 5
M  V30 5 1 2 6
M  V30 6 1 6 7
M  V30 7 2 7 8
M  V30 8 1 8 9
M  V30 9 1 9 10
M  V30 10 2 10 11
M  V30 11 1 11 12
M  V30 12 2 12 13
M  V30 13 1 13 14
M  V30 14 2 14 15
M  V30 15 2 9 16
M  V30 16 1 16 17
M  V30 17 2 17 18
M  V30 18 1 18 19
M  V30 19 2 19 20
M  V30 20 1 20 21
M  V30 21 2 21 22
M  V30 22 1 22 7
M  V30 23 1 15 10
M  V30 24 1 22 17
M  V30 25 1 1 23
M  V30 26 1 1 24
M  V30 27 1 1 25
M  V30 28 1 3 26
M  V30 29 1 3 27
M  V30 30 1 3 28
M  V30 31 1 6 29
M  V30 32 1 11 30
M  V30 33 1 12 31
M  V30 34 1 14 32
M  V30 35 1 15 33
M  V30 36 1 18 34
M  V30 37 1 20 35
M  V30 38 1 21 36
M  V30 END BOND
M  V30 END CTAB
M  END
>  <Dataset>  (241) 
ChEMBL_Kinases

>  <Ligand_Instance>  (241) 
nan

>  <PDB_ID>  (241) 
nan

>  <Standardized_SMILES>  (241) 
CC(C)(C#N)Nc1nc(-c2ccncc2)nc2cnccc12

>  <Name>  (241) 
nan

>  <Pocket>  (241) 
nan

>  <ATP_Site>  (241) 
nan

>  <Peripheral>  (241) 
nan

>  <Num_H_Atoms_ProtBoundConf>  (241) 
nan

>  <Num_Resolved_Atoms>  (241) 
nan

>  <Num_Not_Resolved_Atoms>  (241) 
nan

$$$$
CHEMBL4747182
     RDKit          3D

  0  0  0  0  0  0  0  0  0  0999 V3000
M  V30 BEGIN CTAB
M  V30 COUNTS 46 49 0 0 0
M  V30 BEGIN ATOM
M  V30 1 O 0.794893 -1.216426 -0.139433 0
M  V30 2 C 2.021113 -1.369362 -0.315052 0
M  V30 3 C 2.260133 -0.904732 -1.671066 0
M  V30 4 C 1.001461 -0.440378 -2.312475 0
M  V30 5 C 0.176899 -1.279688 -3.040377 0
M  V30 6 C -0.977278 -0.773822 -3.606466 0
M  V30 7 C -1.353764 0.566628 -3.474468 0
M  V30 8 N -0.538833 1.387048 -2.757593 0
M  V30 9 C 0.589277 0.887314 -2.205723 0
M  V30 10 N 2.634831 -1.897452 0.805653 0
M  V30 11 C 3.117370 -2.432823 2.011328 0
M  V30 12 C 2.975757 -1.622275 3.258383 0
M  V30 13 C 1.673216 -1.354395 3.852636 0
M  V30 14 N 0.619571 -0.720189 3.168458 0
M  V30 15 C 0.412782 0.585195 3.010714 0
M  V30 16 O 1.295923 1.360429 3.470443 0
M  V30 17 C -0.679868 1.151910 2.390602 0
M  V30 18 C -0.785188 2.522440 2.286435 0
M  V30 19 C -1.918746 2.980454 1.647448 0
M  V30 20 F -2.050905 4.333472 1.529024 0
M  V30 21 C -2.918456 2.168191 1.124782 0
M  V30 22 C -2.759155 0.801570 1.258470 0
M  V30 23 C -1.644317 0.308414 1.888522 0
M  V30 24 N -1.449705 -1.006031 2.039690 0
M  V30 25 C -2.212415 -2.037870 1.654475 0
M  V30 26 S -3.635088 -2.162774 0.875871 0
M  V30 27 N -1.618444 -3.187774 2.019508 0
M  V30 28 N -0.489410 -2.860015 2.629728 0
M  V30 29 C -0.379594 -1.497556 2.644769 0
M  V30 30 H 2.961416 -0.031418 -1.688723 0
M  V30 31 H 2.661766 -1.721176 -2.282565 0
M  V30 32 H 0.452481 -2.329443 -3.155600 0
M  V30 33 H -1.587635 -1.457818 -4.162365 0
M  V30 34 H -2.270083 0.908711 -3.940040 0
M  V30 35 H 1.207819 1.599929 -1.637294 0
M  V30 36 H 3.567551 -1.847497 0.267577 0
M  V30 37 H 4.175375 -2.801517 1.911499 0
M  V30 38 H 2.537024 -3.420973 2.234921 0
M  V30 39 H 3.595044 -2.166910 4.051943 0
M  V30 40 H 3.588817 -0.684114 3.077469 0
M  V30 41 H 1.284629 -2.379868 4.216346 0
M  V30 42 H 1.806460 -0.854124 4.891763 0
M  V30 43 H -0.051635 3.195190 2.667474 0
M  V30 44 H -3.784056 2.630838 0.632957 0
M  V30 45 H -3.551181 0.234718 0.841747 0
M  V30 46 H -1.867552 -4.210499 1.916505 0
M  V30 END ATOM
M  V30 BEGIN BOND
M  V30 1 2 1 2
M  V30 2 1 2 3
M  V30 3 1 3 4
M  V30 4 2 4 5
M  V30 5 1 5 6
M  V30 6 2 6 7
M  V30 7 1 7 8
M  V30 8 2 8 9
M  V30 9 1 2 10
M  V30 10 1 10 11
M  V30 11 1 11 12
M  V30 12 1 12 13
M  V30 13 1 13 14
M  V30 14 1 14 15
M  V30 15 2 15 16
M  V30 16 1 15 17
M  V30 17 2 17 18
M  V30 18 1 18 19
M  V30 19 1 19 20
M  V30 20 2 19 21
M  V30 21 1 21 22
M  V30 22 2 22 23
M  V30 23 1 23 24
M  V30 24 1 24 25
M  V30 25 2 25 26
M  V30 26 1 25 27
M  V30 27 1 27 28
M  V30 28 2 28 29
M  V30 29 1 9 4
M  V30 30 1 29 14
M  V30 31 1 23 17
M  V30 32 1 29 24
M  V30 33 1 3 30
M  V30 34 1 3 31
M  V30 35 1 5 32
M  V30 36 1 6 33
M  V30 37 1 7 34
M  V30 38 1 9 35
M  V30 39 1 10 36
M  V30 40 1 11 37
M  V30 41 1 11 38
M  V30 42 1 12 39
M  V30 43 1 12 40
M  V30 44 1 13 41
M  V30 45 1 13 42
M  V30 46 1 18 43
M  V30 47 1 21 44
M  V30 48 1 22 45
M  V30 49 1 27 46
M  V30 END BOND
M  V30 END CTAB
M  END
>  <Dataset>  (242) 
ChEMBL_Kinases

>  <Ligand_Instance>  (242) 
nan

>  <PDB_ID>  (242) 
nan

>  <Standardized_SMILES>  (242) 
O=C(Cc1cccnc1)NCCCn1c(=O)c2cc(F)ccc2n2c(=S)[nH]nc12

>  <Name>  (242) 
nan

>  <Pocket>  (242) 
nan

>  <ATP_Site>  (242) 
nan

>  <Peripheral>  (242) 
nan

>  <Num_H_Atoms_ProtBoundConf>  (242) 
nan

>  <Num_Resolved_Atoms>  (242) 
nan

>  <Num_Not_Resolved_Atoms>  (242) 
nan

$$$$
CHEMBL4453553
     RDKit          3D

  0  0  0  0  0  0  0  0  0  0999 V3000
M  V30 BEGIN CTAB
M  V30 COUNTS 68 73 0 0 0
M  V30 BEGIN ATOM
M  V30 1 C 4.327551 0.490425 2.918889 0
M  V30 2 C 2.877072 0.215488 2.753351 0
M  V30 3 C 2.440447 -0.025359 1.461071 0
M  V30 4 C 1.095547 -0.283635 1.290375 0
M  V30 5 C 0.472458 -0.555862 0.000520 0
M  V30 6 C 0.734203 0.190870 -1.126852 0
M  V30 7 N 0.013650 -0.302962 -2.144712 0
M  V30 8 N -0.690148 -1.316148 -1.737812 0
M  V30 9 C -1.544343 -2.125100 -2.388901 0
M  V30 10 N -1.903038 -2.025243 -3.750876 0
M  V30 11 C -1.584405 -0.982568 -4.693382 0
M  V30 12 C -2.339367 0.305521 -4.459010 0
M  V30 13 C -1.962712 1.362601 -5.463096 0
M  V30 14 C -2.535266 1.054080 -6.819946 0
M  V30 15 O -3.946470 1.007291 -6.753560 0
M  V30 16 C -4.231988 -0.148403 -6.031603 0
M  V30 17 C -3.840872 0.085035 -4.592846 0
M  V30 18 C -2.110080 -3.120971 -1.620434 0
M  V30 19 C -1.872502 -3.338818 -0.283465 0
M  V30 20 O -2.488131 -4.369731 0.411556 0
M  V30 21 C -2.207496 -4.547823 1.752256 0
M  V30 22 C -1.108988 -5.411523 1.875994 0
M  V30 23 C -0.607779 -5.766452 3.124402 0
M  V30 24 C -1.183473 -5.273301 4.293554 0
M  V30 25 C -2.260578 -4.427122 4.152683 0
M  V30 26 C -2.760191 -4.072687 2.921318 0
M  V30 27 N -0.995676 -2.482350 0.318585 0
M  V30 28 C -0.432818 -1.506438 -0.408703 0
M  V30 29 C 0.193262 -0.309842 2.334071 0
M  V30 30 C 0.653869 -0.064757 3.626479 0
M  V30 31 C 1.998225 0.196599 3.821419 0
M  V30 32 C 2.608022 0.471355 5.132744 0
M  V30 33 O 2.709730 -0.292386 6.152139 0
M  V30 34 N 3.179449 1.764687 5.337121 0
M  V30 35 C 3.817655 2.209876 6.555143 0
M  V30 36 C 4.954669 3.201018 6.342410 0
M  V30 37 C 3.678576 3.702723 6.906605 0
M  V30 38 H 4.660834 0.444700 3.972901 0
M  V30 39 H 4.883048 -0.246987 2.303861 0
M  V30 40 H 4.499882 1.492309 2.468124 0
M  V30 41 H 3.045315 -0.032583 0.564944 0
M  V30 42 H 1.404957 1.054127 -1.244397 0
M  V30 43 H -2.485688 -2.813894 -4.155395 0
M  V30 44 H -0.475194 -0.804687 -4.667254 0
M  V30 45 H -1.778302 -1.314607 -5.730459 0
M  V30 46 H -2.145221 0.699560 -3.463143 0
M  V30 47 H -2.355249 2.346847 -5.149957 0
M  V30 48 H -0.846605 1.413383 -5.609486 0
M  V30 49 H -2.242140 1.870770 -7.517048 0
M  V30 50 H -2.138224 0.087193 -7.207905 0
M  V30 51 H -3.635322 -0.964157 -6.470837 0
M  V30 52 H -5.300568 -0.441637 -6.077851 0
M  V30 53 H -4.336618 0.990165 -4.208276 0
M  V30 54 H -4.161534 -0.822009 -4.024392 0
M  V30 55 H -2.821745 -3.830347 -2.071823 0
M  V30 56 H -0.536692 -5.888762 1.080351 0
M  V30 57 H 0.228387 -6.422013 3.286826 0
M  V30 58 H -0.887186 -5.474446 5.302772 0
M  V30 59 H -2.770058 -3.998186 4.980743 0
M  V30 60 H -3.598389 -3.419653 2.682900 0
M  V30 61 H -0.862363 -0.504477 2.261400 0
M  V30 62 H 0.084525 -0.050895 4.529673 0
M  V30 63 H 3.135061 2.459048 4.537482 0
M  V30 64 H 3.891281 1.546895 7.416209 0
M  V30 65 H 5.829639 3.139807 7.022439 0
M  V30 66 H 5.185693 3.542099 5.318048 0
M  V30 67 H 2.984872 4.268432 6.227738 0
M  V30 68 H 3.578319 3.985052 7.969094 0
M  V30 END ATOM
M  V30 BEGIN BOND
M  V30 1 1 1 2
M  V30 2 2 2 3
M  V30 3 1 3 4
M  V30 4 1 4 5
M  V30 5 1 5 6
M  V30 6 2 6 7
M  V30 7 1 7 8
M  V30 8 1 8 9
M  V30 9 1 9 10
M  V30 10 1 10 11
M  V30 11 1 11 12
M  V30 12 1 12 13
M  V30 13 1 13 14
M  V30 14 1 14 15
M  V30 15 1 15 16
M  V30 16 1 16 17
M  V30 17 2 9 18
M  V30 18 1 18 19
M  V30 19 1 19 20
M  V30 20 1 20 21
M  V30 21 2 21 22
M  V30 22 1 22 23
M  V30 23 2 23 24
M  V30 24 1 24 25
M  V30 25 2 25 26
M  V30 26 2 19 27
M  V30 27 1 27 28
M  V30 28 2 4 29
M  V30 29 1 29 30
M  V30 30 2 30 31
M  V30 31 1 31 32
M  V30 32 2 32 33
M  V30 33 1 32 34
M  V30 34 1 34 35
M  V30 35 1 35 36
M  V30 36 1 36 37
M  V30 37 1 31 2
M  V30 38 1 37 35
M  V30 39 2 28 5
M  V30 40 1 28 8
M  V30 41 1 17 12
M  V30 42 1 26 21
M  V30 43 1 1 38
M  V30 44 1 1 39
M  V30 45 1 1 40
M  V30 46 1 3 41
M  V30 47 1 6 42
M  V30 48 1 10 43
M  V30 49 1 11 44
M  V30 50 1 11 45
M  V30 51 1 12 46
M  V30 52 1 13 47
M  V30 53 1 13 48
M  V30 54 1 14 49
M  V30 55 1 14 50
M  V30 56 1 16 51
M  V30 57 1 16 52
M  V30 58 1 17 53
M  V30 59 1 17 54
M  V30 60 1 18 55
M  V30 61 1 22 56
M  V30 62 1 23 57
M  V30 63 1 24 58
M  V30 64 1 25 59
M  V30 65 1 26 60
M  V30 66 1 29 61
M  V30 67 1 30 62
M  V30 68 1 34 63
M  V30 69 1 35 64
M  V30 70 1 36 65
M  V30 71 1 36 66
M  V30 72 1 37 67
M  V30 73 1 37 68
M  V30 END BOND
M  V30 END CTAB
M  END
>  <Dataset>  (243) 
ChEMBL_Kinases

>  <Ligand_Instance>  (243) 
nan

>  <PDB_ID>  (243) 
nan

>  <Standardized_SMILES>  (243) 
Cc1cc(-c2cnn3c(NCC4CCOCC4)cc(Oc4ccccc4)nc23)ccc1C(=O)NC1CC1

>  <Name>  (243) 
nan

>  <Pocket>  (243) 
nan

>  <ATP_Site>  (243) 
nan

>  <Peripheral>  (243) 
nan

>  <Num_H_Atoms_ProtBoundConf>  (243) 
nan

>  <Num_Resolved_Atoms>  (243) 
nan

>  <Num_Not_Resolved_Atoms>  (243) 
nan

$$$$
CHEMBL4747186
     RDKit          3D

  0  0  0  0  0  0  0  0  0  0999 V3000
M  V30 BEGIN CTAB
M  V30 COUNTS 56 59 0 0 0
M  V30 BEGIN ATOM
M  V30 1 C 3.043416 -5.952581 3.627765 0
M  V30 2 C 4.414557 -5.325493 3.548817 0
M  V30 3 O 4.797841 -5.083953 2.211499 0
M  V30 4 C 4.127611 -4.279986 1.336404 0
M  V30 5 N 3.013359 -3.621983 1.663944 0
M  V30 6 C 2.343842 -2.826143 0.807764 0
M  V30 7 N 1.167749 -2.172488 1.260684 0
M  V30 8 C 0.296830 -1.294749 0.562833 0
M  V30 9 C 0.524247 -0.949473 -0.752995 0
M  V30 10 C -0.310325 -0.094687 -1.464679 0
M  V30 11 C -1.414429 0.448288 -0.871272 0
M  V30 12 C -2.298575 1.342551 -1.598070 0
M  V30 13 O -2.699971 0.711126 -2.608673 0
M  V30 14 N -2.689869 2.676515 -1.304090 0
M  V30 15 C -2.403049 3.646279 -0.239502 0
M  V30 16 C -3.633419 4.260562 0.338093 0
M  V30 17 N -4.874769 3.710670 -0.131943 0
M  V30 18 C -5.079915 2.427255 0.491098 0
M  V30 19 C -4.944207 3.551372 -1.548505 0
M  V30 20 C -3.587058 3.330248 -2.204690 0
M  V30 21 C -1.649161 0.108346 0.443938 0
M  V30 22 C -0.831820 -0.736441 1.160697 0
M  V30 23 O -1.072666 -1.066990 2.462903 0
M  V30 24 C -2.111924 -0.663502 3.289773 0
M  V30 25 F -2.760660 -1.831162 3.716966 0
M  V30 26 F -1.684841 -0.054769 4.454511 0
M  V30 27 N 2.881338 -2.740065 -0.410212 0
M  V30 28 C 3.975617 -3.336162 -0.863065 0
M  V30 29 N 4.630318 -3.348839 -2.038675 0
M  V30 30 C 5.705779 -4.174939 -1.853681 0
M  V30 31 C 5.725027 -4.672567 -0.581274 0
M  V30 32 C 4.609422 -4.131487 0.057229 0
M  V30 33 H 2.288549 -5.140167 3.760285 0
M  V30 34 H 3.031667 -6.714622 4.410435 0
M  V30 35 H 2.862646 -6.518557 2.667897 0
M  V30 36 H 4.435035 -4.401023 4.163246 0
M  V30 37 H 5.137998 -6.054141 3.971062 0
M  V30 38 H 0.882338 -2.348384 2.252717 0
M  V30 39 H 1.342929 -1.294918 -1.341366 0
M  V30 40 H -0.137960 0.183899 -2.506564 0
M  V30 41 H -1.851827 3.122302 0.553227 0
M  V30 42 H -1.706577 4.392723 -0.697195 0
M  V30 43 H -3.555690 4.305439 1.424366 0
M  V30 44 H -3.637251 5.335292 -0.012168 0
M  V30 45 H -4.530714 2.290196 1.442949 0
M  V30 46 H -6.178601 2.351646 0.701488 0
M  V30 47 H -4.849202 1.575133 -0.207184 0
M  V30 48 H -5.352133 4.486237 -1.983050 0
M  V30 49 H -5.654414 2.744106 -1.861144 0
M  V30 50 H -3.776618 2.712195 -3.101600 0
M  V30 51 H -3.190408 4.324045 -2.561466 0
M  V30 52 H -2.522140 0.538232 0.910662 0
M  V30 53 H -2.857361 0.013695 2.845202 0
M  V30 54 H 4.330366 -2.813151 -2.892687 0
M  V30 55 H 6.444702 -4.400352 -2.626994 0
M  V30 56 H 6.457877 -5.350441 -0.152867 0
M  V30 END ATOM
M  V30 BEGIN BOND
M  V30 1 1 1 2
M  V30 2 1 2 3
M  V30 3 1 3 4
M  V30 4 2 4 5
M  V30 5 1 5 6
M  V30 6 1 6 7
M  V30 7 1 7 8
M  V30 8 2 8 9
M  V30 9 1 9 10
M  V30 10 2 10 11
M  V30 11 1 11 12
M  V30 12 2 12 13
M  V30 13 1 12 14
M  V30 14 1 14 15
M  V30 15 1 15 16
M  V30 16 1 16 17
M  V30 17 1 17 18
M  V30 18 1 17 19
M  V30 19 1 19 20
M  V30 20 1 11 21
M  V30 21 2 21 22
M  V30 22 1 22 23
M  V30 23 1 23 24
M  V30 24 1 24 25
M  V30 25 1 24 26
M  V30 26 2 6 27
M  V30 27 1 27 28
M  V30 28 1 28 29
M  V30 29 1 29 30
M  V30 30 2 30 31
M  V30 31 1 31 32
M  V30 32 1 32 4
M  V30 33 1 22 8
M  V30 34 2 32 28
M  V30 35 1 20 14
M  V30 36 1 1 33
M  V30 37 1 1 34
M  V30 38 1 1 35
M  V30 39 1 2 36
M  V30 40 1 2 37
M  V30 41 1 7 38
M  V30 42 1 9 39
M  V30 43 1 10 40
M  V30 44 1 15 41
M  V30 45 1 15 42
M  V30 46 1 16 43
M  V30 47 1 16 44
M  V30 48 1 18 45
M  V30 49 1 18 46
M  V30 50 1 18 47
M  V30 51 1 19 48
M  V30 52 1 19 49
M  V30 53 1 20 50
M  V30 54 1 20 51
M  V30 55 1 21 52
M  V30 56 1 24 53
M  V30 57 1 29 54
M  V30 58 1 30 55
M  V30 59 1 31 56
M  V30 END BOND
M  V30 END CTAB
M  END
>  <Dataset>  (244) 
ChEMBL_Kinases

>  <Ligand_Instance>  (244) 
nan

>  <PDB_ID>  (244) 
nan

>  <Standardized_SMILES>  (244) 
CCOc1nc(Nc2ccc(C(=O)N3CCN(C)CC3)cc2OC(F)F)nc2[nH]ccc12

>  <Name>  (244) 
nan

>  <Pocket>  (244) 
nan

>  <ATP_Site>  (244) 
nan

>  <Peripheral>  (244) 
nan

>  <Num_H_Atoms_ProtBoundConf>  (244) 
nan

>  <Num_Resolved_Atoms>  (244) 
nan

>  <Num_Not_Resolved_Atoms>  (244) 
nan

$$$$
CHEMBL4747190
     RDKit          3D

  0  0  0  0  0  0  0  0  0  0999 V3000
M  V30 BEGIN CTAB
M  V30 COUNTS 51 54 0 0 0
M  V30 BEGIN ATOM
M  V30 1 O 0.506971 0.657361 1.271389 0
M  V30 2 C 1.055380 0.792291 0.121954 0
M  V30 3 C 2.035262 0.887339 -0.979804 0
M  V30 4 C 3.446323 0.740291 -0.606746 0
M  V30 5 N 3.982394 -0.399887 -0.044125 0
M  V30 6 C 3.714769 -0.868813 1.236041 0
M  V30 7 C 4.747731 -0.517514 2.285424 0
M  V30 8 O 6.037819 -0.498581 1.778115 0
M  V30 9 C 6.149398 0.266479 0.620417 0
M  V30 10 C 5.376950 -0.526582 -0.444376 0
M  V30 11 N -0.257813 0.987413 -0.494889 0
M  V30 12 C -1.429169 0.946445 0.358168 0
M  V30 13 C -1.740891 2.223079 0.852862 0
M  V30 14 C -2.830837 2.351370 1.686631 0
M  V30 15 C -3.640827 1.304298 2.068663 0
M  V30 16 C -3.274961 0.091960 1.544776 0
M  V30 17 C -2.221687 -0.115173 0.724081 0
M  V30 18 C -4.214674 -0.878668 2.062957 0
M  V30 19 C -4.268885 -2.145097 1.750064 0
M  V30 20 C -3.489908 -2.958280 0.847788 0
M  V30 21 C -2.767844 -4.069142 1.311211 0
M  V30 22 C -2.081191 -4.912181 0.464345 0
M  V30 23 C -2.073162 -4.698886 -0.896388 0
M  V30 24 F -1.422005 -5.482299 -1.793652 0
M  V30 25 C -2.754319 -3.634519 -1.438624 0
M  V30 26 Cl -2.860927 -3.201047 -3.143005 0
M  V30 27 C -3.420972 -2.826875 -0.548040 0
M  V30 28 C -5.167049 -0.204103 2.929409 0
M  V30 29 O -6.118137 -0.698628 3.557359 0
M  V30 30 N -4.776385 1.161998 2.907815 0
M  V30 31 H 1.928690 1.938115 -1.394821 0
M  V30 32 H 1.725518 0.262955 -1.853623 0
M  V30 33 H 4.049934 0.991299 -1.541274 0
M  V30 34 H 3.698292 1.619289 0.061302 0
M  V30 35 H 3.749642 -2.003047 1.188112 0
M  V30 36 H 2.748437 -0.657588 1.694801 0
M  V30 37 H 4.731156 -1.242233 3.123679 0
M  V30 38 H 4.543901 0.482923 2.718961 0
M  V30 39 H 5.614147 1.238686 0.716510 0
M  V30 40 H 7.211592 0.360891 0.364366 0
M  V30 41 H 5.499273 -0.114690 -1.443977 0
M  V30 42 H 5.732932 -1.570633 -0.335078 0
M  V30 43 H -0.663203 1.169422 -1.478980 0
M  V30 44 H -1.204058 3.114963 0.639386 0
M  V30 45 H -3.102931 3.328869 2.090220 0
M  V30 46 H -1.797287 -0.959622 0.267774 0
M  V30 47 H -5.003908 -2.816038 2.193312 0
M  V30 48 H -2.736475 -4.290562 2.383932 0
M  V30 49 H -1.517919 -5.780330 0.841012 0
M  V30 50 H -3.988030 -1.956199 -0.908666 0
M  V30 51 H -5.213352 1.982774 3.407894 0
M  V30 END ATOM
M  V30 BEGIN BOND
M  V30 1 2 1 2
M  V30 2 1 2 3
M  V30 3 1 3 4
M  V30 4 1 4 5
M  V30 5 1 5 6
M  V30 6 1 6 7
M  V30 7 1 7 8
M  V30 8 1 8 9
M  V30 9 1 9 10
M  V30 10 1 2 11
M  V30 11 1 11 12
M  V30 12 2 12 13
M  V30 13 1 13 14
M  V30 14 2 14 15
M  V30 15 1 15 16
M  V30 16 2 16 17
M  V30 17 1 16 18
M  V30 18 2 18 19
M  V30 19 1 19 20
M  V30 20 2 20 21
M  V30 21 1 21 22
M  V30 22 2 22 23
M  V30 23 1 23 24
M  V30 24 1 23 25
M  V30 25 1 25 26
M  V30 26 2 25 27
M  V30 27 1 18 28
M  V30 28 2 28 29
M  V30 29 1 28 30
M  V30 30 1 10 5
M  V30 31 1 17 12
M  V30 32 1 27 20
M  V30 33 1 30 15
M  V30 34 1 3 31
M  V30 35 1 3 32
M  V30 36 1 4 33
M  V30 37 1 4 34
M  V30 38 1 6 35
M  V30 39 1 6 36
M  V30 40 1 7 37
M  V30 41 1 7 38
M  V30 42 1 9 39
M  V30 43 1 9 40
M  V30 44 1 10 41
M  V30 45 1 10 42
M  V30 46 1 11 43
M  V30 47 1 13 44
M  V30 48 1 14 45
M  V30 49 1 17 46
M  V30 50 1 19 47
M  V30 51 1 21 48
M  V30 52 1 22 49
M  V30 53 1 27 50
M  V30 54 1 30 51
M  V30 END BOND
M  V30 END CTAB
M  END
>  <Dataset>  (245) 
ChEMBL_Kinases

>  <Ligand_Instance>  (245) 
nan

>  <PDB_ID>  (245) 
nan

>  <Standardized_SMILES>  (245) 
O=C(CCN1CCOCC1)Nc1ccc2c(c1)/C(=C\c1ccc(F)c(Cl)c1)C(=O)N2

>  <Name>  (245) 
nan

>  <Pocket>  (245) 
nan

>  <ATP_Site>  (245) 
nan

>  <Peripheral>  (245) 
nan

>  <Num_H_Atoms_ProtBoundConf>  (245) 
nan

>  <Num_Resolved_Atoms>  (245) 
nan

>  <Num_Not_Resolved_Atoms>  (245) 
nan

$$$$
CHEMBL4453419
     RDKit          3D

  0  0  0  0  0  0  0  0  0  0999 V3000
M  V30 BEGIN CTAB
M  V30 COUNTS 37 40 0 0 0
M  V30 BEGIN ATOM
M  V30 1 C 0.038497 -3.654070 2.347396 0
M  V30 2 N 1.179720 -3.756874 1.462720 0
M  V30 3 C 0.854390 -3.352495 0.110527 0
M  V30 4 C 0.455630 -1.897703 0.042754 0
M  V30 5 C 1.602361 -1.052562 0.507806 0
M  V30 6 C 2.388670 -1.723184 1.390642 0
M  V30 7 S 3.675096 -0.595875 1.828777 0
M  V30 8 C 3.049311 0.773463 0.748997 0
M  V30 9 N 3.502767 2.032697 0.520802 0
M  V30 10 C 2.860918 2.858129 -0.317898 0
M  V30 11 N 1.785225 2.332151 -0.872458 0
M  V30 12 C 1.295015 1.121023 -0.693100 0
M  V30 13 N 0.102203 0.732870 -1.373235 0
M  V30 14 C -1.062547 0.874570 -0.546487 0
M  V30 15 C -2.337338 0.540212 -1.019104 0
M  V30 16 C -3.459601 0.660072 -0.232606 0
M  V30 17 C -3.342728 1.127716 1.079450 0
M  V30 18 Cl -4.726967 1.312684 2.166372 0
M  V30 19 C -2.115656 1.471866 1.597804 0
M  V30 20 C -1.050865 1.329062 0.766966 0
M  V30 21 C 1.913566 0.234262 0.155577 0
M  V30 22 C 2.341577 -3.055576 1.957676 0
M  V30 23 H -0.905094 -3.406412 1.801762 0
M  V30 24 H 0.292735 -2.896531 3.118077 0
M  V30 25 H -0.093663 -4.644143 2.830133 0
M  V30 26 H 1.697936 -3.575178 -0.553284 0
M  V30 27 H -0.038303 -3.932078 -0.198437 0
M  V30 28 H 0.169835 -1.697512 -1.011287 0
M  V30 29 H -0.404674 -1.687075 0.689103 0
M  V30 30 H 3.337211 3.816164 -0.394919 0
M  V30 31 H -0.044291 0.381914 -2.324701 0
M  V30 32 H -2.441863 0.177739 -2.035386 0
M  V30 33 H -4.444685 0.409963 -0.577227 0
M  V30 34 H -1.975182 1.839276 2.614887 0
M  V30 35 H -0.070396 1.602517 1.179387 0
M  V30 36 H 2.339372 -3.013350 3.044596 0
M  V30 37 H 3.229463 -3.644159 1.630890 0
M  V30 END ATOM
M  V30 BEGIN BOND
M  V30 1 1 1 2
M  V30 2 1 2 3
M  V30 3 1 3 4
M  V30 4 1 4 5
M  V30 5 2 5 6
M  V30 6 1 6 7
M  V30 7 1 7 8
M  V30 8 2 8 9
M  V30 9 1 9 10
M  V30 10 2 10 11
M  V30 11 1 11 12
M  V30 12 1 12 13
M  V30 13 1 13 14
M  V30 14 2 14 15
M  V30 15 1 15 16
M  V30 16 2 16 17
M  V30 17 1 17 18
M  V30 18 1 17 19
M  V30 19 2 19 20
M  V30 20 2 12 21
M  V30 21 1 6 22
M  V30 22 1 22 2
M  V30 23 1 21 5
M  V30 24 1 21 8
M  V30 25 1 20 14
M  V30 26 1 1 23
M  V30 27 1 1 24
M  V30 28 1 1 25
M  V30 29 1 3 26
M  V30 30 1 3 27
M  V30 31 1 4 28
M  V30 32 1 4 29
M  V30 33 1 10 30
M  V30 34 1 13 31
M  V30 35 1 15 32
M  V30 36 1 16 33
M  V30 37 1 19 34
M  V30 38 1 20 35
M  V30 39 1 22 36
M  V30 40 1 22 37
M  V30 END BOND
M  V30 END CTAB
M  END
>  <Dataset>  (246) 
ChEMBL_Kinases

>  <Ligand_Instance>  (246) 
nan

>  <PDB_ID>  (246) 
nan

>  <Standardized_SMILES>  (246) 
CN1CCc2c(sc3ncnc(Nc4ccc(Cl)cc4)c23)C1

>  <Name>  (246) 
nan

>  <Pocket>  (246) 
nan

>  <ATP_Site>  (246) 
nan

>  <Peripheral>  (246) 
nan

>  <Num_H_Atoms_ProtBoundConf>  (246) 
nan

>  <Num_Resolved_Atoms>  (246) 
nan

>  <Num_Not_Resolved_Atoms>  (246) 
nan

$$$$
CHEMBL445340
     RDKit          3D

  0  0  0  0  0  0  0  0  0  0999 V3000
M  V30 BEGIN CTAB
M  V30 COUNTS 37 39 0 0 0
M  V30 BEGIN ATOM
M  V30 1 C -0.440581 -2.985353 2.892653 0
M  V30 2 C -0.611620 -3.452060 1.483346 0
M  V30 3 C -1.962342 -3.128536 0.899395 0
M  V30 4 C 0.518446 -3.072730 0.578122 0
M  V30 5 C 1.829572 -3.654648 1.051417 0
M  V30 6 N 2.828466 -3.335399 0.050285 0
M  V30 7 C 3.074653 -1.945952 -0.220323 0
M  V30 8 O 4.225101 -1.526181 -0.574888 0
M  V30 9 C 1.886740 -1.080901 -0.049385 0
M  V30 10 C 1.766757 0.282544 -0.214486 0
M  V30 11 C 0.428305 0.563403 0.086693 0
M  V30 12 C -0.117022 1.914717 0.032086 0
M  V30 13 C -1.440589 2.154019 0.335742 0
M  V30 14 C -1.958910 3.452492 0.281964 0
M  V30 15 N -1.137980 4.472491 -0.073874 0
M  V30 16 C 0.151529 4.226028 -0.367792 0
M  V30 17 N 1.085134 5.232382 -0.750419 0
M  V30 18 N 0.624875 2.982737 -0.310447 0
M  V30 19 N -0.153542 -0.608437 0.403233 0
M  V30 20 C 0.689986 -1.649286 0.337204 0
M  V30 21 H -0.150426 -3.785227 3.603874 0
M  V30 22 H -1.438311 -2.606843 3.245671 0
M  V30 23 H 0.324522 -2.192891 3.008122 0
M  V30 24 H -0.561042 -4.581070 1.538744 0
M  V30 25 H -2.422114 -2.363504 1.593860 0
M  V30 26 H -1.885276 -2.718575 -0.128149 0
M  V30 27 H -2.611283 -4.000505 0.976569 0
M  V30 28 H 0.315623 -3.574692 -0.405348 0
M  V30 29 H 2.119398 -3.125938 1.990057 0
M  V30 30 H 1.759049 -4.749790 1.226993 0
M  V30 31 H 3.395315 -4.043044 -0.499663 0
M  V30 32 H 2.560678 0.952959 -0.513294 0
M  V30 33 H -2.098700 1.335549 0.621123 0
M  V30 34 H -2.986528 3.694075 0.509729 0
M  V30 35 H 1.664784 5.455368 -1.591219 0
M  V30 36 H 1.470291 6.081981 -0.256229 0
M  V30 37 H -1.145312 -0.575609 0.651605 0
M  V30 END ATOM
M  V30 BEGIN BOND
M  V30 1 1 1 2
M  V30 2 1 2 3
M  V30 3 1 2 4
M  V30 4 1 4 5
M  V30 5 1 5 6
M  V30 6 1 6 7
M  V30 7 2 7 8
M  V30 8 1 7 9
M  V30 9 1 9 10
M  V30 10 2 10 11
M  V30 11 1 11 12
M  V30 12 2 12 13
M  V30 13 1 13 14
M  V30 14 2 14 15
M  V30 15 1 15 16
M  V30 16 1 16 17
M  V30 17 2 16 18
M  V30 18 1 11 19
M  V30 19 1 19 20
M  V30 20 1 20 4
M  V30 21 2 20 9
M  V30 22 1 18 12
M  V30 23 1 1 21
M  V30 24 1 1 22
M  V30 25 1 1 23
M  V30 26 1 2 24
M  V30 27 1 3 25
M  V30 28 1 3 26
M  V30 29 1 3 27
M  V30 30 1 4 28
M  V30 31 1 5 29
M  V30 32 1 5 30
M  V30 33 1 6 31
M  V30 34 1 10 32
M  V30 35 1 13 33
M  V30 36 1 14 34
M  V30 37 1 17 35
M  V30 38 1 17 36
M  V30 39 1 19 37
M  V30 END BOND
M  V30 END CTAB
M  END
>  <Dataset>  (247) 
ChEMBL_Kinases

>  <Ligand_Instance>  (247) 
nan

>  <PDB_ID>  (247) 
nan

>  <Standardized_SMILES>  (247) 
CC(C)C1CNC(=O)c2cc(-c3ccnc(N)n3)[nH]c21

>  <Name>  (247) 
nan

>  <Pocket>  (247) 
nan

>  <ATP_Site>  (247) 
nan

>  <Peripheral>  (247) 
nan

>  <Num_H_Atoms_ProtBoundConf>  (247) 
nan

>  <Num_Resolved_Atoms>  (247) 
nan

>  <Num_Not_Resolved_Atoms>  (247) 
nan

$$$$
CHEMBL4453861
     RDKit          3D

  0  0  0  0  0  0  0  0  0  0999 V3000
M  V30 BEGIN CTAB
M  V30 COUNTS 52 56 0 0 0
M  V30 BEGIN ATOM
M  V30 1 O 0.963707 -1.358997 -1.065623 0
M  V30 2 C 1.235513 -1.892895 0.068481 0
M  V30 3 N 1.700764 -1.083657 1.136377 0
M  V30 4 C 1.772287 0.266228 0.673283 0
M  V30 5 C 3.020533 0.562439 0.109092 0
M  V30 6 C 3.208303 1.823598 -0.374493 0
M  V30 7 C 4.393253 2.234824 -0.947914 0
M  V30 8 C 4.584327 3.510386 -1.432844 0
M  V30 9 C 3.514843 4.370797 -1.314734 0
M  V30 10 N 2.305535 4.048401 -0.760811 0
M  V30 11 C 2.207320 2.779173 -0.313056 0
M  V30 12 C 0.996497 2.449246 0.247472 0
M  V30 13 C 0.756393 1.188471 0.751034 0
M  V30 14 N -0.461188 0.838793 1.342895 0
M  V30 15 C -0.372135 0.564818 2.761682 0
M  V30 16 C -1.513227 -0.289744 3.173162 0
M  V30 17 C -2.858346 0.099355 2.672587 0
M  V30 18 C -3.733802 -1.140604 2.564562 0
M  V30 19 O -5.002514 -0.873283 2.106360 0
M  V30 20 C -2.897691 0.934008 1.444614 0
M  V30 21 C -1.689059 0.769214 0.556544 0
M  V30 22 C 0.971712 -3.301355 -0.065108 0
M  V30 23 C 1.991351 -4.209254 0.224910 0
M  V30 24 N 1.514622 -5.455807 0.026427 0
M  V30 25 N 0.234659 -5.365380 -0.376806 0
M  V30 26 C -0.628435 -6.349216 -0.688247 0
M  V30 27 C -1.903013 -5.918705 -1.077834 0
M  V30 28 C -2.248486 -4.582465 -1.137281 0
M  V30 29 N -1.336099 -3.620679 -0.810770 0
M  V30 30 C -0.103258 -4.070693 -0.435266 0
M  V30 31 H 1.871200 -1.680036 1.975314 0
M  V30 32 H 3.843729 -0.117200 0.022922 0
M  V30 33 H 5.210279 1.512475 -1.017438 0
M  V30 34 H 5.516014 3.790377 -1.869110 0
M  V30 35 H 3.692027 5.373879 -1.704040 0
M  V30 36 H 0.180411 3.142736 0.323685 0
M  V30 37 H -0.351023 1.551253 3.297825 0
M  V30 38 H 0.569300 0.018567 3.000565 0
M  V30 39 H -1.487392 -0.397502 4.289068 0
M  V30 40 H -1.285720 -1.332755 2.808961 0
M  V30 41 H -3.337589 0.698030 3.504366 0
M  V30 42 H -3.263818 -1.935448 1.956859 0
M  V30 43 H -3.865013 -1.611042 3.582918 0
M  V30 44 H -5.099807 -1.292805 1.208717 0
M  V30 45 H -3.028303 2.024720 1.711598 0
M  V30 46 H -3.794431 0.655999 0.847358 0
M  V30 47 H -1.743744 -0.180594 -0.007941 0
M  V30 48 H -1.666257 1.640386 -0.129042 0
M  V30 49 H 3.021321 -4.184401 0.553647 0
M  V30 50 H -0.380937 -7.400590 -0.649205 0
M  V30 51 H -2.587596 -6.742859 -1.326907 0
M  V30 52 H -3.272673 -4.356752 -1.455129 0
M  V30 END ATOM
M  V30 BEGIN BOND
M  V30 1 2 1 2
M  V30 2 1 2 3
M  V30 3 1 3 4
M  V30 4 2 4 5
M  V30 5 1 5 6
M  V30 6 2 6 7
M  V30 7 1 7 8
M  V30 8 2 8 9
M  V30 9 1 9 10
M  V30 10 2 10 11
M  V30 11 1 11 12
M  V30 12 2 12 13
M  V30 13 1 13 14
M  V30 14 1 14 15
M  V30 15 1 15 16
M  V30 16 1 16 17
M  V30 17 1 17 18
M  V30 18 1 18 19
M  V30 19 1 17 20
M  V30 20 1 20 21
M  V30 21 1 2 22
M  V30 22 1 22 23
M  V30 23 2 23 24
M  V30 24 1 24 25
M  V30 25 1 25 26
M  V30 26 2 26 27
M  V30 27 1 27 28
M  V30 28 2 28 29
M  V30 29 1 29 30
M  V30 30 1 13 4
M  V30 31 1 21 14
M  V30 32 2 30 22
M  V30 33 1 11 6
M  V30 34 1 30 25
M  V30 35 1 3 31
M  V30 36 1 5 32
M  V30 37 1 7 33
M  V30 38 1 8 34
M  V30 39 1 9 35
M  V30 40 1 12 36
M  V30 41 1 15 37
M  V30 42 1 15 38
M  V30 43 1 16 39
M  V30 44 1 16 40
M  V30 45 1 17 41
M  V30 46 1 18 42
M  V30 47 1 18 43
M  V30 48 1 19 44
M  V30 49 1 20 45
M  V30 50 1 20 46
M  V30 51 1 21 47
M  V30 52 1 21 48
M  V30 53 1 23 49
M  V30 54 1 26 50
M  V30 55 1 27 51
M  V30 56 1 28 52
M  V30 END BOND
M  V30 END CTAB
M  END
>  <Dataset>  (248) 
ChEMBL_Kinases

>  <Ligand_Instance>  (248) 
nan

>  <PDB_ID>  (248) 
nan

>  <Standardized_SMILES>  (248) 
O=C(Nc1cc2cccnc2cc1N1CCC(CO)CC1)c1cnn2cccnc12

>  <Name>  (248) 
nan

>  <Pocket>  (248) 
nan

>  <ATP_Site>  (248) 
nan

>  <Peripheral>  (248) 
nan

>  <Num_H_Atoms_ProtBoundConf>  (248) 
nan

>  <Num_Resolved_Atoms>  (248) 
nan

>  <Num_Not_Resolved_Atoms>  (248) 
nan

$$$$
CHEMBL4455001
     RDKit          3D

  0  0  0  0  0  0  0  0  0  0999 V3000
M  V30 BEGIN CTAB
M  V30 COUNTS 48 51 0 0 0
M  V30 BEGIN ATOM
M  V30 1 C 3.538357 -8.460302 -2.054189 0
M  V30 2 C 3.226141 -7.963083 -3.432196 0
M  V30 3 O 2.227060 -7.007944 -3.509520 0
M  V30 4 C 2.240824 -5.773407 -2.895897 0
M  V30 5 C 3.209807 -5.211399 -2.088962 0
M  V30 6 C 3.139650 -3.976166 -1.521290 0
M  V30 7 C 2.032325 -3.171408 -1.733051 0
M  V30 8 N 1.801723 -1.970462 -1.269007 0
M  V30 9 C 0.808507 -1.298936 -1.482810 0
M  V30 10 N 0.544117 0.062444 -0.962655 0
M  V30 11 C -0.111476 -0.114678 0.255007 0
M  V30 12 O -0.322894 -1.322915 0.625171 0
M  V30 13 C -0.581953 0.933033 1.153569 0
M  V30 14 C -0.437359 2.284543 0.804169 0
M  V30 15 C -0.870654 3.295628 1.635926 0
M  V30 16 C -1.466309 3.027705 2.849999 0
M  V30 17 N -1.945882 4.010173 3.761128 0
M  V30 18 C -2.483111 3.774289 5.086388 0
M  V30 19 C -3.946821 4.160327 5.167694 0
M  V30 20 O -4.247757 5.090412 4.172164 0
M  V30 21 C -3.232245 6.049402 4.033692 0
M  V30 22 C -1.958080 5.435967 3.442506 0
M  V30 23 C -1.604213 1.699456 3.185550 0
M  V30 24 C -1.177202 0.670454 2.367204 0
M  V30 25 S -0.171178 -2.386083 -2.553132 0
M  V30 26 C 1.085812 -3.744527 -2.533079 0
M  V30 27 C 1.114272 -5.018418 -3.142678 0
M  V30 28 H 4.597961 -8.209435 -1.797793 0
M  V30 29 H 3.486467 -9.571655 -1.954395 0
M  V30 30 H 2.876612 -8.054172 -1.260451 0
M  V30 31 H 2.870815 -8.847488 -4.009000 0
M  V30 32 H 4.151819 -7.580034 -3.944597 0
M  V30 33 H 4.083195 -5.870638 -1.933115 0
M  V30 34 H 4.005133 -3.698516 -0.911736 0
M  V30 35 H 0.722796 1.012602 -1.270840 0
M  V30 36 H 0.021226 2.583708 -0.133187 0
M  V30 37 H -0.741955 4.316908 1.335633 0
M  V30 38 H -2.299804 2.766287 5.478502 0
M  V30 39 H -1.941494 4.474533 5.782332 0
M  V30 40 H -4.628758 3.301587 5.023001 0
M  V30 41 H -4.193065 4.617679 6.149117 0
M  V30 42 H -3.002637 6.519596 5.005652 0
M  V30 43 H -3.641171 6.783541 3.279347 0
M  V30 44 H -1.070710 5.874613 3.952916 0
M  V30 45 H -1.892655 5.620616 2.367888 0
M  V30 46 H -2.043356 1.316732 4.090763 0
M  V30 47 H -1.268390 -0.386084 2.598136 0
M  V30 48 H 0.240536 -5.211697 -3.715148 0
M  V30 END ATOM
M  V30 BEGIN BOND
M  V30 1 1 1 2
M  V30 2 1 2 3
M  V30 3 1 3 4
M  V30 4 2 4 5
M  V30 5 1 5 6
M  V30 6 2 6 7
M  V30 7 1 7 8
M  V30 8 2 8 9
M  V30 9 1 9 10
M  V30 10 1 10 11
M  V30 11 2 11 12
M  V30 12 1 11 13
M  V30 13 2 13 14
M  V30 14 1 14 15
M  V30 15 2 15 16
M  V30 16 1 16 17
M  V30 17 1 17 18
M  V30 18 1 18 19
M  V30 19 1 19 20
M  V30 20 1 20 21
M  V30 21 1 21 22
M  V30 22 1 16 23
M  V30 23 2 23 24
M  V30 24 1 9 25
M  V30 25 1 25 26
M  V30 26 2 26 27
M  V30 27 1 27 4
M  V30 28 1 26 7
M  V30 29 1 24 13
M  V30 30 1 22 17
M  V30 31 1 1 28
M  V30 32 1 1 29
M  V30 33 1 1 30
M  V30 34 1 2 31
M  V30 35 1 2 32
M  V30 36 1 5 33
M  V30 37 1 6 34
M  V30 38 1 10 35
M  V30 39 1 14 36
M  V30 40 1 15 37
M  V30 41 1 18 38
M  V30 42 1 18 39
M  V30 43 1 19 40
M  V30 44 1 19 41
M  V30 45 1 21 42
M  V30 46 1 21 43
M  V30 47 1 22 44
M  V30 48 1 22 45
M  V30 49 1 23 46
M  V30 50 1 24 47
M  V30 51 1 27 48
M  V30 END BOND
M  V30 END CTAB
M  END
>  <Dataset>  (249) 
ChEMBL_Kinases

>  <Ligand_Instance>  (249) 
nan

>  <PDB_ID>  (249) 
nan

>  <Standardized_SMILES>  (249) 
CCOc1ccc2nc(NC(=O)c3ccc(N4CCOCC4)cc3)sc2c1

>  <Name>  (249) 
nan

>  <Pocket>  (249) 
nan

>  <ATP_Site>  (249) 
nan

>  <Peripheral>  (249) 
nan

>  <Num_H_Atoms_ProtBoundConf>  (249) 
nan

>  <Num_Resolved_Atoms>  (249) 
nan

>  <Num_Not_Resolved_Atoms>  (249) 
nan

$$$$
CHEMBL4454934
     RDKit          3D

  0  0  0  0  0  0  0  0  0  0999 V3000
M  V30 BEGIN CTAB
M  V30 COUNTS 36 39 0 0 0
M  V30 BEGIN ATOM
M  V30 1 F -0.197835 -3.675089 1.938674 0
M  V30 2 C 0.964190 -3.862111 1.279234 0
M  V30 3 C 1.421528 -5.037415 0.727082 0
M  V30 4 C 2.637659 -5.121002 0.063943 0
M  V30 5 C 3.418174 -3.962481 -0.040681 0
M  V30 6 C 2.935763 -2.794714 0.522366 0
M  V30 7 C 1.721743 -2.714950 1.183745 0
M  V30 8 N 1.496378 -1.386519 1.645802 0
M  V30 9 C 0.474857 -0.447074 1.393071 0
M  V30 10 N 0.538623 0.270229 0.247087 0
M  V30 11 C -0.405907 1.189824 -0.057570 0
M  V30 12 C -0.427972 2.010370 -1.262928 0
M  V30 13 C 0.560310 1.908529 -2.219413 0
M  V30 14 C 0.616637 2.655292 -3.401537 0
M  V30 15 N -0.369809 3.537397 -3.615679 0
M  V30 16 C -1.351389 3.671914 -2.715249 0
M  V30 17 C -1.423549 2.944591 -1.544693 0
M  V30 18 N -1.438725 1.402642 0.796375 0
M  V30 19 C -1.581942 0.743505 1.946208 0
M  V30 20 C -2.613098 0.934537 2.840131 0
M  V30 21 N -2.700376 0.240221 3.988667 0
M  V30 22 C -1.743585 -0.685593 4.289166 0
M  V30 23 C -0.696753 -0.890842 3.398959 0
M  V30 24 C -0.599947 -0.183680 2.219856 0
M  V30 25 H 0.745204 -5.873516 0.862575 0
M  V30 26 H 2.878061 -6.103443 -0.323583 0
M  V30 27 H 4.354314 -4.083069 -0.565339 0
M  V30 28 H 3.647649 -1.991302 0.360273 0
M  V30 29 H 2.148158 -0.888085 2.313275 0
M  V30 30 H 1.388222 1.217581 -2.113875 0
M  V30 31 H 1.385222 2.564920 -4.127990 0
M  V30 32 H -2.195476 4.368733 -2.812845 0
M  V30 33 H -2.227773 3.052696 -0.805380 0
M  V30 34 H -3.313852 1.699709 2.487584 0
M  V30 35 H -1.877849 -1.209692 5.233851 0
M  V30 36 H 0.046810 -1.628985 3.663823 0
M  V30 END ATOM
M  V30 BEGIN BOND
M  V30 1 1 1 2
M  V30 2 2 2 3
M  V30 3 1 3 4
M  V30 4 2 4 5
M  V30 5 1 5 6
M  V30 6 2 6 7
M  V30 7 1 7 8
M  V30 8 1 8 9
M  V30 9 2 9 10
M  V30 10 1 10 11
M  V30 11 1 11 12
M  V30 12 2 12 13
M  V30 13 1 13 14
M  V30 14 2 14 15
M  V30 15 1 15 16
M  V30 16 2 16 17
M  V30 17 2 11 18
M  V30 18 1 18 19
M  V30 19 2 19 20
M  V30 20 1 20 21
M  V30 21 2 21 22
M  V30 22 1 22 23
M  V30 23 2 23 24
M  V30 24 1 7 2
M  V30 25 1 24 9
M  V30 26 1 17 12
M  V30 27 1 24 19
M  V30 28 1 3 25
M  V30 29 1 4 26
M  V30 30 1 5 27
M  V30 31 1 6 28
M  V30 32 1 8 29
M  V30 33 1 13 30
M  V30 34 1 14 31
M  V30 35 1 16 32
M  V30 36 1 17 33
M  V30 37 1 20 34
M  V30 38 1 22 35
M  V30 39 1 23 36
M  V30 END BOND
M  V30 END CTAB
M  END
>  <Dataset>  (250) 
ChEMBL_Kinases

>  <Ligand_Instance>  (250) 
nan

>  <PDB_ID>  (250) 
nan

>  <Standardized_SMILES>  (250) 
Fc1ccccc1Nc1nc(-c2ccncc2)nc2cnccc12

>  <Name>  (250) 
nan

>  <Pocket>  (250) 
nan

>  <ATP_Site>  (250) 
nan

>  <Peripheral>  (250) 
nan

>  <Num_H_Atoms_ProtBoundConf>  (250) 
nan

>  <Num_Resolved_Atoms>  (250) 
nan

>  <Num_Not_Resolved_Atoms>  (250) 
nan

$$$$
CHEMBL4454916
     RDKit          3D

  0  0  0  0  0  0  0  0  0  0999 V3000
M  V30 BEGIN CTAB
M  V30 COUNTS 43 46 0 0 0
M  V30 BEGIN ATOM
M  V30 1 O -5.333731 0.285620 -1.467813 0
M  V30 2 C -4.360478 -0.340286 -0.988076 0
M  V30 3 N -4.335570 -1.498552 -0.168033 0
M  V30 4 C -2.988267 -1.844349 0.123445 0
M  V30 5 C -2.560746 -2.909470 0.889431 0
M  V30 6 C -1.181271 -3.079130 1.055726 0
M  V30 7 C -0.278019 -2.190472 0.459457 0
M  V30 8 N 1.122141 -2.343740 0.610154 0
M  V30 9 C 2.152452 -1.954449 1.473808 0
M  V30 10 O 1.860665 -1.239709 2.464922 0
M  V30 11 C 3.526555 -2.367069 1.230998 0
M  V30 12 C 4.439515 -1.943744 2.172770 0
M  V30 13 C 5.768629 -2.284436 2.030226 0
M  V30 14 C 6.217746 -3.040729 0.968354 0
M  V30 15 C 5.279971 -3.462892 0.020797 0
M  V30 16 C 3.933360 -3.123484 0.156173 0
M  V30 17 C -0.758277 -1.126409 -0.307633 0
M  V30 18 C -2.117830 -0.955286 -0.474883 0
M  V30 19 C -2.958456 0.005782 -1.183185 0
M  V30 20 C -2.558904 1.037955 -1.884711 0
M  V30 21 C -3.286086 2.050362 -2.602637 0
M  V30 22 C -2.880623 2.250243 -3.932976 0
M  V30 23 C -3.427543 3.194899 -4.796060 0
M  V30 24 C -4.434074 3.977798 -4.292734 0
M  V30 25 O -5.023351 4.940074 -5.102235 0
M  V30 26 C -4.885606 3.840445 -2.995493 0
M  V30 27 C -4.281821 2.876572 -2.215076 0
M  V30 28 H -5.233874 -1.957424 0.124873 0
M  V30 29 H -3.235493 -3.602639 1.357083 0
M  V30 30 H -0.805940 -3.903405 1.649558 0
M  V30 31 H 1.272889 -2.944898 -0.249010 0
M  V30 32 H 4.183582 -1.357156 3.024794 0
M  V30 33 H 6.516322 -1.965058 2.756789 0
M  V30 34 H 7.272856 -3.316159 0.849844 0
M  V30 35 H 5.567644 -4.064755 -0.846754 0
M  V30 36 H 3.217691 -3.442248 -0.562641 0
M  V30 37 H -0.108104 -0.407189 -0.792707 0
M  V30 38 H -1.462776 1.167845 -1.942077 0
M  V30 39 H -2.078576 1.641823 -4.366858 0
M  V30 40 H -3.058078 3.283608 -5.806645 0
M  V30 41 H -4.479905 5.708242 -5.476079 0
M  V30 42 H -5.675902 4.452700 -2.596754 0
M  V30 43 H -4.630203 2.802554 -1.209548 0
M  V30 END ATOM
M  V30 BEGIN BOND
M  V30 1 2 1 2
M  V30 2 1 2 3
M  V30 3 1 3 4
M  V30 4 2 4 5
M  V30 5 1 5 6
M  V30 6 2 6 7
M  V30 7 1 7 8
M  V30 8 1 8 9
M  V30 9 2 9 10
M  V30 10 1 9 11
M  V30 11 2 11 12
M  V30 12 1 12 13
M  V30 13 2 13 14
M  V30 14 1 14 15
M  V30 15 2 15 16
M  V30 16 1 7 17
M  V30 17 2 17 18
M  V30 18 1 18 19
M  V30 19 2 19 20
M  V30 20 1 20 21
M  V30 21 2 21 22
M  V30 22 1 22 23
M  V30 23 2 23 24
M  V30 24 1 24 25
M  V30 25 1 24 26
M  V30 26 2 26 27
M  V30 27 1 19 2
M  V30 28 1 27 21
M  V30 29 1 18 4
M  V30 30 1 16 11
M  V30 31 1 3 28
M  V30 32 1 5 29
M  V30 33 1 6 30
M  V30 34 1 8 31
M  V30 35 1 12 32
M  V30 36 1 13 33
M  V30 37 1 14 34
M  V30 38 1 15 35
M  V30 39 1 16 36
M  V30 40 1 17 37
M  V30 41 1 20 38
M  V30 42 1 22 39
M  V30 43 1 23 40
M  V30 44 1 25 41
M  V30 45 1 26 42
M  V30 46 1 27 43
M  V30 END BOND
M  V30 END CTAB
M  END
>  <Dataset>  (251) 
ChEMBL_Kinases

>  <Ligand_Instance>  (251) 
nan

>  <PDB_ID>  (251) 
nan

>  <Standardized_SMILES>  (251) 
O=C1Nc2ccc(NC(=O)c3ccccc3)cc2/C1=C/c1ccc(O)cc1

>  <Name>  (251) 
nan

>  <Pocket>  (251) 
nan

>  <ATP_Site>  (251) 
nan

>  <Peripheral>  (251) 
nan

>  <Num_H_Atoms_ProtBoundConf>  (251) 
nan

>  <Num_Resolved_Atoms>  (251) 
nan

>  <Num_Not_Resolved_Atoms>  (251) 
nan

$$$$
CHEMBL4454905
     RDKit          3D

  0  0  0  0  0  0  0  0  0  0999 V3000
M  V30 BEGIN CTAB
M  V30 COUNTS 43 46 0 0 0
M  V30 BEGIN ATOM
M  V30 1 C 3.814161 -3.574916 -0.654781 0
M  V30 2 C 2.991007 -4.041003 -1.801448 0
M  V30 3 C 3.174472 -5.254671 -2.438368 0
M  V30 4 C 2.427531 -5.702101 -3.495454 0
M  V30 5 C 1.429990 -4.813434 -3.900458 0
M  V30 6 C 1.191379 -3.582792 -3.307707 0
M  V30 7 C 1.987892 -3.202516 -2.246073 0
M  V30 8 N 1.675680 -1.927255 -1.697378 0
M  V30 9 N 1.973407 -0.735019 -2.163886 0
M  V30 10 N 1.502059 0.231743 -1.358088 0
M  V30 11 C 0.869522 -0.346975 -0.320908 0
M  V30 12 C 0.263554 0.479044 0.704973 0
M  V30 13 O 0.358386 1.744371 0.570995 0
M  V30 14 N -0.438672 0.104865 1.868552 0
M  V30 15 C -0.964548 1.078010 2.763537 0
M  V30 16 C -1.642856 0.649345 3.886632 0
M  V30 17 C -2.159577 1.608019 4.766040 0
M  V30 18 C -2.005109 2.969802 4.533746 0
M  V30 19 C -2.522205 3.912281 5.413483 0
M  V30 20 C -2.310615 5.234047 5.085193 0
M  V30 21 C -1.634987 5.674087 3.966769 0
M  V30 22 C -1.145129 4.695633 3.131789 0
M  V30 23 C -1.309508 3.343611 3.380793 0
M  V30 24 N -0.815452 2.395600 2.539375 0
M  V30 25 C 0.995743 -1.692900 -0.562335 0
M  V30 26 C 0.439291 -2.714899 0.337085 0
M  V30 27 H 4.350878 -2.615914 -0.876960 0
M  V30 28 H 3.225993 -3.538167 0.280844 0
M  V30 29 H 4.605546 -4.331557 -0.479605 0
M  V30 30 H 3.968613 -5.902939 -2.075840 0
M  V30 31 H 2.577009 -6.643436 -3.982206 0
M  V30 32 H 0.806889 -5.137396 -4.748897 0
M  V30 33 H 0.378126 -2.999323 -3.733425 0
M  V30 34 H -0.552037 -0.897752 2.039029 0
M  V30 35 H -1.766881 -0.409913 4.073780 0
M  V30 36 H -2.701701 1.290525 5.664110 0
M  V30 37 H -3.058308 3.605783 6.301741 0
M  V30 38 H -2.712764 5.976786 5.769559 0
M  V30 39 H -1.487505 6.718866 3.740233 0
M  V30 40 H -0.600080 5.001319 2.228600 0
M  V30 41 H -0.662485 -2.634783 0.440969 0
M  V30 42 H 0.870541 -2.657717 1.351750 0
M  V30 43 H 0.587717 -3.735740 -0.106970 0
M  V30 END ATOM
M  V30 BEGIN BOND
M  V30 1 1 1 2
M  V30 2 2 2 3
M  V30 3 1 3 4
M  V30 4 2 4 5
M  V30 5 1 5 6
M  V30 6 2 6 7
M  V30 7 1 7 8
M  V30 8 1 8 9
M  V30 9 2 9 10
M  V30 10 1 10 11
M  V30 11 1 11 12
M  V30 12 2 12 13
M  V30 13 1 12 14
M  V30 14 1 14 15
M  V30 15 2 15 16
M  V30 16 1 16 17
M  V30 17 2 17 18
M  V30 18 1 18 19
M  V30 19 2 19 20
M  V30 20 1 20 21
M  V30 21 2 21 22
M  V30 22 1 22 23
M  V30 23 2 23 24
M  V30 24 2 11 25
M  V30 25 1 25 26
M  V30 26 1 7 2
M  V30 27 1 25 8
M  V30 28 1 24 15
M  V30 29 1 23 18
M  V30 30 1 1 27
M  V30 31 1 1 28
M  V30 32 1 1 29
M  V30 33 1 3 30
M  V30 34 1 4 31
M  V30 35 1 5 32
M  V30 36 1 6 33
M  V30 37 1 14 34
M  V30 38 1 16 35
M  V30 39 1 17 36
M  V30 40 1 19 37
M  V30 41 1 20 38
M  V30 42 1 21 39
M  V30 43 1 22 40
M  V30 44 1 26 41
M  V30 45 1 26 42
M  V30 46 1 26 43
M  V30 END BOND
M  V30 END CTAB
M  END
>  <Dataset>  (252) 
ChEMBL_Kinases

>  <Ligand_Instance>  (252) 
nan

>  <PDB_ID>  (252) 
nan

>  <Standardized_SMILES>  (252) 
Cc1ccccc1-n1nnc(C(=O)Nc2ccc3ccccc3n2)c1C

>  <Name>  (252) 
nan

>  <Pocket>  (252) 
nan

>  <ATP_Site>  (252) 
nan

>  <Peripheral>  (252) 
nan

>  <Num_H_Atoms_ProtBoundConf>  (252) 
nan

>  <Num_Resolved_Atoms>  (252) 
nan

>  <Num_Not_Resolved_Atoms>  (252) 
nan

$$$$
CHEMBL4746239
     RDKit          3D

  0  0  0  0  0  0  0  0  0  0999 V3000
M  V30 BEGIN CTAB
M  V30 COUNTS 69 73 0 0 0
M  V30 BEGIN ATOM
M  V30 1 C 8.030322 -3.239304 2.937329 0
M  V30 2 O 6.768468 -3.579250 2.444407 0
M  V30 3 C 6.116076 -2.811359 1.510845 0
M  V30 4 C 6.584173 -1.644713 0.945279 0
M  V30 5 C 5.815091 -0.972811 0.013163 0
M  V30 6 C 4.588985 -1.434267 -0.371037 0
M  V30 7 S 3.497977 -0.729918 -1.514187 0
M  V30 8 O 2.753089 -1.746997 -2.305152 0
M  V30 9 O 4.310721 0.117155 -2.467746 0
M  V30 10 N 2.394631 0.380899 -0.729354 0
M  V30 11 C 3.167966 1.441206 -0.143152 0
M  V30 12 C 2.344345 2.479972 0.577666 0
M  V30 13 N 1.598972 1.950391 1.666843 0
M  V30 14 C 0.486582 1.120014 1.920516 0
M  V30 15 C -0.329719 0.648447 0.950465 0
M  V30 16 C -1.404507 -0.178099 1.187527 0
M  V30 17 C -2.363124 -0.774564 0.265628 0
M  V30 18 N -2.028945 -1.652293 -0.714182 0
M  V30 19 C -3.181993 -1.969911 -1.324553 0
M  V30 20 C -3.322327 -2.894991 -2.444657 0
M  V30 21 C -2.199604 -3.518039 -2.948163 0
M  V30 22 C -2.299569 -4.401528 -4.003420 0
M  V30 23 C -3.554430 -4.658255 -4.557374 0
M  V30 24 C -4.677035 -4.032555 -4.050896 0
M  V30 25 C -4.578084 -3.142911 -2.988738 0
M  V30 26 N -4.208397 -1.298766 -0.731230 0
M  V30 27 C -3.699678 -0.535764 0.281303 0
M  V30 28 C -4.535347 0.306376 1.125721 0
M  V30 29 C -5.480731 -0.456939 1.820506 0
M  V30 30 C -6.369026 0.188226 2.679689 0
M  V30 31 C -6.336592 1.567017 2.860565 0
M  V30 32 C -5.372151 2.284316 2.142339 0
M  V30 33 O -5.340571 3.657418 2.323231 0
M  V30 34 C -4.375606 4.402439 1.607672 0
M  V30 35 C -4.489837 1.654230 1.290623 0
M  V30 36 C -1.654190 -0.538653 2.493580 0
M  V30 37 C -0.833906 -0.066813 3.488585 0
M  V30 38 N 0.184059 0.729971 3.156222 0
M  V30 39 C 4.101294 -2.616842 0.194887 0
M  V30 40 C 4.866081 -3.309498 1.139439 0
M  V30 41 H 8.851509 -3.365617 2.206414 0
M  V30 42 H 8.315318 -3.881330 3.821192 0
M  V30 43 H 8.043740 -2.184600 3.334048 0
M  V30 44 H 7.537449 -1.291732 1.247752 0
M  V30 45 H 6.136353 -0.060519 -0.455596 0
M  V30 46 H 1.708076 0.742610 -1.441860 0
M  V30 47 H 3.723154 1.912117 -1.006628 0
M  V30 48 H 3.902310 1.064053 0.603412 0
M  V30 49 H 1.694417 2.942736 -0.210103 0
M  V30 50 H 3.060386 3.266872 0.946461 0
M  V30 51 H 2.034982 2.303334 2.582632 0
M  V30 52 H -0.222263 0.887431 -0.093969 0
M  V30 53 H -1.072309 -1.975095 -0.906156 0
M  V30 54 H -1.188958 -3.356571 -2.554063 0
M  V30 55 H -1.436702 -4.920115 -4.436994 0
M  V30 56 H -3.724846 -5.341325 -5.391946 0
M  V30 57 H -5.666804 -4.218161 -4.467482 0
M  V30 58 H -5.467911 -2.650906 -2.591274 0
M  V30 59 H -5.624819 -1.531138 1.781334 0
M  V30 60 H -7.134878 -0.317684 3.260532 0
M  V30 61 H -7.041297 2.070538 3.541265 0
M  V30 62 H -4.584104 4.444901 0.517189 0
M  V30 63 H -4.358065 5.470597 1.923253 0
M  V30 64 H -3.341383 4.025295 1.723063 0
M  V30 65 H -3.739006 2.173290 0.725256 0
M  V30 66 H -2.451557 -1.174940 2.840821 0
M  V30 67 H -0.901937 -0.260992 4.557851 0
M  V30 68 H 3.128422 -3.067227 -0.048240 0
M  V30 69 H 4.456097 -4.234635 1.565973 0
M  V30 END ATOM
M  V30 BEGIN BOND
M  V30 1 1 1 2
M  V30 2 1 2 3
M  V30 3 2 3 4
M  V30 4 1 4 5
M  V30 5 2 5 6
M  V30 6 1 6 7
M  V30 7 2 7 8
M  V30 8 2 7 9
M  V30 9 1 7 10
M  V30 10 1 10 11
M  V30 11 1 11 12
M  V30 12 1 12 13
M  V30 13 1 13 14
M  V30 14 2 14 15
M  V30 15 1 15 16
M  V30 16 1 16 17
M  V30 17 1 17 18
M  V30 18 1 18 19
M  V30 19 1 19 20
M  V30 20 2 20 21
M  V30 21 1 21 22
M  V30 22 2 22 23
M  V30 23 1 23 24
M  V30 24 2 24 25
M  V30 25 2 19 26
M  V30 26 1 26 27
M  V30 27 1 27 28
M  V30 28 2 28 29
M  V30 29 1 29 30
M  V30 30 2 30 31
M  V30 31 1 31 32
M  V30 32 1 32 33
M  V30 33 1 33 34
M  V30 34 2 32 35
M  V30 35 2 16 36
M  V30 36 1 36 37
M  V30 37 2 37 38
M  V30 38 1 6 39
M  V30 39 2 39 40
M  V30 40 1 40 3
M  V30 41 1 38 14
M  V30 42 2 27 17
M  V30 43 1 35 28
M  V30 44 1 25 20
M  V30 45 1 1 41
M  V30 46 1 1 42
M  V30 47 1 1 43
M  V30 48 1 4 44
M  V30 49 1 5 45
M  V30 50 1 10 46
M  V30 51 1 11 47
M  V30 52 1 11 48
M  V30 53 1 12 49
M  V30 54 1 12 50
M  V30 55 1 13 51
M  V30 56 1 15 52
M  V30 57 1 18 53
M  V30 58 1 21 54
M  V30 59 1 22 55
M  V30 60 1 23 56
M  V30 61 1 24 57
M  V30 62 1 25 58
M  V30 63 1 29 59
M  V30 64 1 30 60
M  V30 65 1 31 61
M  V30 66 1 34 62
M  V30 67 1 34 63
M  V30 68 1 34 64
M  V30 69 1 35 65
M  V30 70 1 36 66
M  V30 71 1 37 67
M  V30 72 1 39 68
M  V30 73 1 40 69
M  V30 END BOND
M  V30 END CTAB
M  END
>  <Dataset>  (253) 
ChEMBL_Kinases

>  <Ligand_Instance>  (253) 
nan

>  <PDB_ID>  (253) 
nan

>  <Standardized_SMILES>  (253) 
COc1ccc(S(=O)(=O)NCCNc2cc(-c3[nH]c(-c4ccccc4)nc3-c3cccc(OC)c3)ccn2)cc1

>  <Name>  (253) 
nan

>  <Pocket>  (253) 
nan

>  <ATP_Site>  (253) 
nan

>  <Peripheral>  (253) 
nan

>  <Num_H_Atoms_ProtBoundConf>  (253) 
nan

>  <Num_Resolved_Atoms>  (253) 
nan

>  <Num_Not_Resolved_Atoms>  (253) 
nan

$$$$
CHEMBL4454874
     RDKit          3D

  0  0  0  0  0  0  0  0  0  0999 V3000
M  V30 BEGIN CTAB
M  V30 COUNTS 50 53 0 0 0
M  V30 BEGIN ATOM
M  V30 1 C 4.770088 -7.292564 0.273428 0
M  V30 2 C 5.415193 -6.322089 -0.723883 0
M  V30 3 C 5.170278 -6.956942 -2.099676 0
M  V30 4 C 4.769320 -4.988259 -0.645046 0
M  V30 5 C 5.370145 -3.776881 -0.375248 0
M  V30 6 C 4.701343 -2.573769 -0.317233 0
M  V30 7 C 3.339003 -2.520453 -0.535882 0
M  V30 8 N 2.539186 -1.478768 -0.521936 0
M  V30 9 C 1.421832 -1.389291 -0.694505 0
M  V30 10 N 0.468322 -0.243981 -0.691070 0
M  V30 11 C -0.058246 -0.037463 0.594548 0
M  V30 12 O 0.336385 -0.809007 1.495896 0
M  V30 13 C -1.019267 1.008339 0.914955 0
M  V30 14 C -1.492222 1.116730 2.208158 0
M  V30 15 C -2.401833 2.096615 2.547396 0
M  V30 16 C -2.899067 3.019280 1.655364 0
M  V30 17 N -3.818910 4.003739 2.018577 0
M  V30 18 C -4.348192 4.195730 3.344180 0
M  V30 19 C -5.792622 3.695821 3.319768 0
M  V30 20 O -6.265712 3.770568 2.025840 0
M  V30 21 C -5.903042 4.939997 1.387026 0
M  V30 22 C -4.393229 4.988545 1.135344 0
M  V30 23 C -2.398130 2.868855 0.384597 0
M  V30 24 C -1.489447 1.911086 -0.013285 0
M  V30 25 S 1.033115 -3.247035 -1.020145 0
M  V30 26 C 2.754168 -3.711928 -0.800358 0
M  V30 27 C 3.406252 -4.952898 -0.866401 0
M  V30 28 H 4.857537 -8.305734 -0.118700 0
M  V30 29 H 3.718101 -6.921453 0.381805 0
M  V30 30 H 5.285752 -7.172776 1.264762 0
M  V30 31 H 6.496619 -6.289903 -0.538210 0
M  V30 32 H 5.773118 -6.459853 -2.894133 0
M  V30 33 H 5.519819 -8.008645 -2.049814 0
M  V30 34 H 4.094449 -6.978834 -2.333631 0
M  V30 35 H 6.453804 -3.858980 -0.206968 0
M  V30 36 H 5.355664 -1.731085 -0.090193 0
M  V30 37 H 0.194030 0.347087 -1.476669 0
M  V30 38 H -1.115437 0.394335 2.949104 0
M  V30 39 H -2.693823 2.075500 3.586161 0
M  V30 40 H -3.781967 3.673047 4.145219 0
M  V30 41 H -4.421885 5.270691 3.646494 0
M  V30 42 H -5.743038 2.610096 3.602138 0
M  V30 43 H -6.428776 4.192737 4.065492 0
M  V30 44 H -6.200403 5.855964 1.960168 0
M  V30 45 H -6.419047 4.975978 0.396795 0
M  V30 46 H -3.997296 6.010719 1.345300 0
M  V30 47 H -4.193364 4.789260 0.069979 0
M  V30 48 H -2.700692 3.524659 -0.418764 0
M  V30 49 H -1.122126 1.830352 -1.026979 0
M  V30 50 H 2.755771 -5.778576 -1.090504 0
M  V30 END ATOM
M  V30 BEGIN BOND
M  V30 1 1 1 2
M  V30 2 1 2 3
M  V30 3 1 2 4
M  V30 4 2 4 5
M  V30 5 1 5 6
M  V30 6 2 6 7
M  V30 7 1 7 8
M  V30 8 2 8 9
M  V30 9 1 9 10
M  V30 10 1 10 11
M  V30 11 2 11 12
M  V30 12 1 11 13
M  V30 13 2 13 14
M  V30 14 1 14 15
M  V30 15 2 15 16
M  V30 16 1 16 17
M  V30 17 1 17 18
M  V30 18 1 18 19
M  V30 19 1 19 20
M  V30 20 1 20 21
M  V30 21 1 21 22
M  V30 22 1 16 23
M  V30 23 2 23 24
M  V30 24 1 9 25
M  V30 25 1 25 26
M  V30 26 2 26 27
M  V30 27 1 27 4
M  V30 28 1 26 7
M  V30 29 1 24 13
M  V30 30 1 22 17
M  V30 31 1 1 28
M  V30 32 1 1 29
M  V30 33 1 1 30
M  V30 34 1 2 31
M  V30 35 1 3 32
M  V30 36 1 3 33
M  V30 37 1 3 34
M  V30 38 1 5 35
M  V30 39 1 6 36
M  V30 40 1 10 37
M  V30 41 1 14 38
M  V30 42 1 15 39
M  V30 43 1 18 40
M  V30 44 1 18 41
M  V30 45 1 19 42
M  V30 46 1 19 43
M  V30 47 1 21 44
M  V30 48 1 21 45
M  V30 49 1 22 46
M  V30 50 1 22 47
M  V30 51 1 23 48
M  V30 52 1 24 49
M  V30 53 1 27 50
M  V30 END BOND
M  V30 END CTAB
M  END
>  <Dataset>  (254) 
ChEMBL_Kinases

>  <Ligand_Instance>  (254) 
nan

>  <PDB_ID>  (254) 
nan

>  <Standardized_SMILES>  (254) 
CC(C)c1ccc2nc(NC(=O)c3ccc(N4CCOCC4)cc3)sc2c1

>  <Name>  (254) 
nan

>  <Pocket>  (254) 
nan

>  <ATP_Site>  (254) 
nan

>  <Peripheral>  (254) 
nan

>  <Num_H_Atoms_ProtBoundConf>  (254) 
nan

>  <Num_Resolved_Atoms>  (254) 
nan

>  <Num_Not_Resolved_Atoms>  (254) 
nan

$$$$
CHEMBL4454791
     RDKit          3D

  0  0  0  0  0  0  0  0  0  0999 V3000
M  V30 BEGIN CTAB
M  V30 COUNTS 48 51 0 0 0
M  V30 BEGIN ATOM
M  V30 1 C 3.250196 -5.793886 2.968860 0
M  V30 2 N 3.958003 -5.407022 1.765996 0
M  V30 3 N 4.926548 -6.096574 1.188685 0
M  V30 4 C 5.348614 -5.445246 0.102921 0
M  V30 5 C 4.597715 -4.294497 0.010488 0
M  V30 6 Cl 4.833995 -3.153583 -1.277701 0
M  V30 7 C 3.725189 -4.289777 1.070839 0
M  V30 8 C 2.732760 -3.223416 1.347155 0
M  V30 9 C 1.781145 -2.945648 2.263274 0
M  V30 10 C 1.087762 -1.799337 2.105169 0
M  V30 11 C 1.324124 -0.979949 1.100569 0
M  V30 12 C 0.782405 0.311403 0.630867 0
M  V30 13 O 1.258776 0.828650 -0.401778 0
M  V30 14 N -0.256106 0.835720 1.437161 0
M  V30 15 C -0.856618 2.086603 1.074454 0 CFG=2
M  V30 16 C -0.842786 3.129934 2.142776 0
M  V30 17 N -2.122165 3.291381 2.822050 0
M  V30 18 C -3.161113 3.746814 1.921186 0
M  V30 19 C -3.042075 3.114979 0.547887 0
M  V30 20 C -2.300540 1.804436 0.709994 0 CFG=1
M  V30 21 C -2.309448 1.020708 -0.543138 0
M  V30 22 C -2.841298 -0.262777 -0.594015 0
M  V30 23 C -2.865145 -1.021739 -1.748591 0
M  V30 24 C -2.330765 -0.461869 -2.896267 0
M  V30 25 Cl -2.399450 -1.488593 -4.317231 0
M  V30 26 C -1.796612 0.816761 -2.862274 0
M  V30 27 C -1.788765 1.548276 -1.690894 0
M  V30 28 S 2.650374 -1.799262 0.201813 0
M  V30 29 H 3.349872 -5.089240 3.803575 0
M  V30 30 H 3.696066 -6.761050 3.358344 0
M  V30 31 H 2.156282 -5.937225 2.783484 0
M  V30 32 H 6.130383 -5.793564 -0.545575 0
M  V30 33 H 1.619378 -3.644343 3.071317 0
M  V30 34 H 0.300838 -1.463513 2.769916 0
M  V30 35 H -0.612831 0.354778 2.292324 0
M  V30 36 H -0.360356 2.461061 0.142611 0
M  V30 37 H -0.109394 2.897245 2.965377 0
M  V30 38 H -0.613984 4.110953 1.661189 0
M  V30 39 H -2.392108 2.398805 3.249119 0
M  V30 40 H -3.193128 4.849932 1.870350 0
M  V30 41 H -4.123251 3.403786 2.346218 0
M  V30 42 H -2.385997 3.756781 -0.073144 0
M  V30 43 H -4.021582 2.896694 0.098253 0
M  V30 44 H -2.759449 1.224760 1.534234 0
M  V30 45 H -3.242084 -0.637944 0.340229 0
M  V30 46 H -3.293839 -2.007992 -1.710268 0
M  V30 47 H -1.396481 1.194770 -3.789329 0
M  V30 48 H -1.349030 2.545604 -1.753754 0
M  V30 END ATOM
M  V30 BEGIN BOND
M  V30 1 1 1 2
M  V30 2 1 2 3
M  V30 3 2 3 4
M  V30 4 1 4 5
M  V30 5 1 5 6
M  V30 6 2 5 7
M  V30 7 1 7 8
M  V30 8 2 8 9
M  V30 9 1 9 10
M  V30 10 2 10 11
M  V30 11 1 11 12
M  V30 12 2 12 13
M  V30 13 1 12 14
M  V30 14 1 14 15
M  V30 15 1 15 16
M  V30 16 1 16 17
M  V30 17 1 17 18
M  V30 18 1 18 19
M  V30 19 1 19 20
M  V30 20 1 20 21
M  V30 21 2 21 22
M  V30 22 1 22 23
M  V30 23 2 23 24
M  V30 24 1 24 25
M  V30 25 1 24 26
M  V30 26 2 26 27
M  V30 27 1 11 28
M  V30 28 1 7 2
M  V30 29 1 28 8
M  V30 30 1 20 15
M  V30 31 1 27 21
M  V30 32 1 1 29
M  V30 33 1 1 30
M  V30 34 1 1 31
M  V30 35 1 4 32
M  V30 36 1 9 33
M  V30 37 1 10 34
M  V30 38 1 14 35
M  V30 39 1 15 36 CFG=3
M  V30 40 1 16 37
M  V30 41 1 16 38
M  V30 42 1 17 39
M  V30 43 1 18 40
M  V30 44 1 18 41
M  V30 45 1 19 42
M  V30 46 1 19 43
M  V30 47 1 20 44 CFG=1
M  V30 48 1 22 45
M  V30 49 1 23 46
M  V30 50 1 26 47
M  V30 51 1 27 48
M  V30 END BOND
M  V30 END CTAB
M  END
>  <Dataset>  (255) 
ChEMBL_Kinases

>  <Ligand_Instance>  (255) 
nan

>  <PDB_ID>  (255) 
nan

>  <Standardized_SMILES>  (255) 
Cn1ncc(Cl)c1-c1ccc(C(=O)N[C@@H]2CNCC[C@H]2c2ccc(Cl)cc2)s1

>  <Name>  (255) 
nan

>  <Pocket>  (255) 
nan

>  <ATP_Site>  (255) 
nan

>  <Peripheral>  (255) 
nan

>  <Num_H_Atoms_ProtBoundConf>  (255) 
nan

>  <Num_Resolved_Atoms>  (255) 
nan

>  <Num_Not_Resolved_Atoms>  (255) 
nan

$$$$
CHEMBL4454763
     RDKit          3D

  0  0  0  0  0  0  0  0  0  0999 V3000
M  V30 BEGIN CTAB
M  V30 COUNTS 38 41 0 0 0
M  V30 BEGIN ATOM
M  V30 1 C -0.444993 -1.854890 4.632353 0
M  V30 2 C 0.621654 -2.006657 3.770226 0
M  V30 3 C 0.354436 -2.461155 2.475020 0
M  V30 4 C -0.925265 -2.770142 2.002155 0
M  V30 5 N -1.149098 -3.225058 0.671502 0
M  V30 6 C 0.053318 -3.156859 -0.120303 0
M  V30 7 N 0.996034 -4.126219 -0.095354 0
M  V30 8 C 2.121343 -4.039148 -0.837311 0
M  V30 9 C 2.337826 -2.947023 -1.646717 0
M  V30 10 C 1.393072 -1.951824 -1.687860 0
M  V30 11 N 1.311355 -0.713170 -2.391796 0
M  V30 12 C 1.461378 0.517589 -1.652920 0
M  V30 13 C 0.165921 0.835969 -1.190354 0
M  V30 14 C 0.278564 2.036523 -0.467043 0
M  V30 15 C -0.755008 2.856672 0.259298 0
M  V30 16 C -0.564730 4.341109 0.281777 0
M  V30 17 C -0.302263 3.544963 1.513505 0
M  V30 18 N 1.572488 2.378576 -0.518316 0
M  V30 19 N 2.264722 1.496705 -1.208061 0
M  V30 20 N 0.306309 -2.118237 -0.920733 0
M  V30 21 C -1.913911 -2.586760 2.931488 0
M  V30 22 C -1.746021 -2.145842 4.222935 0
M  V30 23 H -0.253176 -1.506161 5.636314 0
M  V30 24 H 1.647552 -1.790825 4.061108 0
M  V30 25 H 1.222133 -2.564536 1.833764 0
M  V30 26 H -2.117726 -3.535529 0.451976 0
M  V30 27 H 2.907003 -4.777659 -0.856312 0
M  V30 28 H 3.179941 -2.715698 -2.305239 0
M  V30 29 H 1.144765 -0.807798 -3.419757 0
M  V30 30 H -0.876297 0.464366 -1.209929 0
M  V30 31 H -1.792050 2.447825 0.233455 0
M  V30 32 H 0.288184 4.718873 -0.282303 0
M  V30 33 H -1.524177 4.937435 0.334063 0
M  V30 34 H -1.022188 3.589055 2.381740 0
M  V30 35 H 0.753829 3.453471 1.834042 0
M  V30 36 H 1.997962 3.220722 -0.081309 0
M  V30 37 H -2.921099 -2.825053 2.567579 0
M  V30 38 H -2.597069 -2.034742 4.879497 0
M  V30 END ATOM
M  V30 BEGIN BOND
M  V30 1 2 1 2
M  V30 2 1 2 3
M  V30 3 2 3 4
M  V30 4 1 4 5
M  V30 5 1 5 6
M  V30 6 2 6 7
M  V30 7 1 7 8
M  V30 8 2 8 9
M  V30 9 1 9 10
M  V30 10 1 10 11
M  V30 11 1 11 12
M  V30 12 1 12 13
M  V30 13 2 13 14
M  V30 14 1 14 15
M  V30 15 1 15 16
M  V30 16 1 16 17
M  V30 17 1 14 18
M  V30 18 1 18 19
M  V30 19 2 10 20
M  V30 20 1 4 21
M  V30 21 2 21 22
M  V30 22 1 22 1
M  V30 23 1 20 6
M  V30 24 2 19 12
M  V30 25 1 17 15
M  V30 26 1 1 23
M  V30 27 1 2 24
M  V30 28 1 3 25
M  V30 29 1 5 26
M  V30 30 1 8 27
M  V30 31 1 9 28
M  V30 32 1 11 29
M  V30 33 1 13 30
M  V30 34 1 15 31
M  V30 35 1 16 32
M  V30 36 1 16 33
M  V30 37 1 17 34
M  V30 38 1 17 35
M  V30 39 1 18 36
M  V30 40 1 21 37
M  V30 41 1 22 38
M  V30 END BOND
M  V30 END CTAB
M  END
>  <Dataset>  (256) 
ChEMBL_Kinases

>  <Ligand_Instance>  (256) 
nan

>  <PDB_ID>  (256) 
nan

>  <Standardized_SMILES>  (256) 
c1ccc(Nc2nccc(Nc3cc(C4CC4)[nH]n3)n2)cc1

>  <Name>  (256) 
nan

>  <Pocket>  (256) 
nan

>  <ATP_Site>  (256) 
nan

>  <Peripheral>  (256) 
nan

>  <Num_H_Atoms_ProtBoundConf>  (256) 
nan

>  <Num_Resolved_Atoms>  (256) 
nan

>  <Num_Not_Resolved_Atoms>  (256) 
nan

$$$$
CHEMBL4454724
     RDKit          3D

  0  0  0  0  0  0  0  0  0  0999 V3000
M  V30 BEGIN CTAB
M  V30 COUNTS 46 49 0 0 0
M  V30 BEGIN ATOM
M  V30 1 C -2.256217 1.983615 -3.925171 0
M  V30 2 S -0.445476 1.973055 -4.160577 0
M  V30 3 C 0.349379 1.652366 -2.575582 0
M  V30 4 N 1.687703 1.584253 -2.448106 0
M  V30 5 C 1.994731 1.332207 -1.152210 0
M  V30 6 C 3.195654 1.144121 -0.348458 0
M  V30 7 C 4.039626 2.253376 -0.357270 0
M  V30 8 C 5.230717 2.290841 0.337840 0
M  V30 9 C 5.584474 1.162252 1.072028 0
M  V30 10 F 6.736164 1.073914 1.801733 0
M  V30 11 C 4.748394 0.068003 1.078503 0
M  V30 12 C 3.550151 0.032033 0.378471 0
M  V30 13 C 0.787974 1.247797 -0.486416 0
M  V30 14 C 0.345126 0.999255 0.899579 0
M  V30 15 C 0.641412 1.778453 2.020937 0
M  V30 16 C 0.135287 1.386821 3.242137 0
M  V30 17 N -0.625195 0.292999 3.388735 0
M  V30 18 C -0.957523 -0.512525 2.358872 0
M  V30 19 N -1.758697 -1.684139 2.448867 0
M  V30 20 C -1.303207 -2.988200 2.676454 0
M  V30 21 O -0.064696 -3.198504 2.822635 0
M  V30 22 C -2.234002 -4.161852 2.754944 0
M  V30 23 C -3.691820 -3.817887 2.576841 0
M  V30 24 F -4.137969 -2.933738 3.533591 0
M  V30 25 F -4.375167 -5.020741 2.599575 0
M  V30 26 F -3.893837 -3.249863 1.336770 0
M  V30 27 C -1.786472 -5.279373 1.805367 0
M  V30 28 C -1.803529 -5.446011 3.305749 0
M  V30 29 C -0.445910 -0.115789 1.128063 0
M  V30 30 N -0.225968 1.446795 -1.372245 0
M  V30 31 H -2.655169 2.986197 -3.712402 0
M  V30 32 H -2.729447 1.506290 -4.810816 0
M  V30 33 H -2.449983 1.284210 -3.068690 0
M  V30 34 H 3.842115 3.170787 -0.900509 0
M  V30 35 H 5.904502 3.120214 0.356884 0
M  V30 36 H 4.960172 -0.842961 1.627065 0
M  V30 37 H 2.845361 -0.764565 0.325857 0
M  V30 38 H 1.258942 2.639635 1.809976 0
M  V30 39 H 0.384539 2.013222 4.088077 0
M  V30 40 H -2.776309 -1.487067 2.324931 0
M  V30 41 H -0.775540 -5.260270 1.379253 0
M  V30 42 H -2.540537 -5.821199 1.211611 0
M  V30 43 H -0.848381 -5.484157 3.857181 0
M  V30 44 H -2.582382 -6.123414 3.678474 0
M  V30 45 H -0.698792 -0.746223 0.285549 0
M  V30 46 H -1.271904 1.469299 -1.306193 0
M  V30 END ATOM
M  V30 BEGIN BOND
M  V30 1 1 1 2
M  V30 2 1 2 3
M  V30 3 2 3 4
M  V30 4 1 4 5
M  V30 5 1 5 6
M  V30 6 2 6 7
M  V30 7 1 7 8
M  V30 8 2 8 9
M  V30 9 1 9 10
M  V30 10 1 9 11
M  V30 11 2 11 12
M  V30 12 2 5 13
M  V30 13 1 13 14
M  V30 14 2 14 15
M  V30 15 1 15 16
M  V30 16 2 16 17
M  V30 17 1 17 18
M  V30 18 1 18 19
M  V30 19 1 19 20
M  V30 20 2 20 21
M  V30 21 1 20 22
M  V30 22 1 22 23
M  V30 23 1 23 24
M  V30 24 1 23 25
M  V30 25 1 23 26
M  V30 26 1 22 27
M  V30 27 1 27 28
M  V30 28 2 18 29
M  V30 29 1 13 30
M  V30 30 1 30 3
M  V30 31 1 12 6
M  V30 32 1 29 14
M  V30 33 1 28 22
M  V30 34 1 1 31
M  V30 35 1 1 32
M  V30 36 1 1 33
M  V30 37 1 7 34
M  V30 38 1 8 35
M  V30 39 1 11 36
M  V30 40 1 12 37
M  V30 41 1 15 38
M  V30 42 1 16 39
M  V30 43 1 19 40
M  V30 44 1 27 41
M  V30 45 1 27 42
M  V30 46 1 28 43
M  V30 47 1 28 44
M  V30 48 1 29 45
M  V30 49 1 30 46
M  V30 END BOND
M  V30 END CTAB
M  END
>  <Dataset>  (257) 
ChEMBL_Kinases

>  <Ligand_Instance>  (257) 
nan

>  <PDB_ID>  (257) 
nan

>  <Standardized_SMILES>  (257) 
CSc1nc(-c2ccc(F)cc2)c(-c2ccnc(NC(=O)C3(C(F)(F)F)CC3)c2)[nH]1

>  <Name>  (257) 
nan

>  <Pocket>  (257) 
nan

>  <ATP_Site>  (257) 
nan

>  <Peripheral>  (257) 
nan

>  <Num_H_Atoms_ProtBoundConf>  (257) 
nan

>  <Num_Resolved_Atoms>  (257) 
nan

>  <Num_Not_Resolved_Atoms>  (257) 
nan

$$$$
CHEMBL4454675
     RDKit          3D

  0  0  0  0  0  0  0  0  0  0999 V3000
M  V30 BEGIN CTAB
M  V30 COUNTS 61 67 0 0 0
M  V30 BEGIN ATOM
M  V30 1 C 1.979583 -4.437273 3.713367 0
M  V30 2 N 3.081491 -3.979570 2.879794 0
M  V30 3 C 2.729259 -2.730754 2.313040 0
M  V30 4 C 3.060538 -2.572784 0.878969 0
M  V30 5 C 2.582600 -1.444064 0.272405 0
M  V30 6 C 2.788928 -1.101617 -1.046985 0
M  V30 7 N 2.253277 0.083861 -1.625306 0
M  V30 8 C 1.310036 0.822783 -0.853265 0
M  V30 9 N 1.467557 1.725256 0.130470 0
M  V30 10 C 0.425686 2.327282 0.732029 0
M  V30 11 C -0.867405 1.999177 0.314787 0
M  V30 12 C -1.944147 2.608548 0.924682 0
M  V30 13 O -1.731462 3.451883 1.847846 0
M  V30 14 C -3.221007 2.273867 0.503786 0
M  V30 15 C -4.363549 2.920271 1.158258 0
M  V30 16 C -4.795038 2.181269 2.265329 0
M  V30 17 Cl -4.097253 0.667619 2.841754 0
M  V30 18 C -5.865454 2.624691 3.021212 0
M  V30 19 C -6.536804 3.796509 2.713939 0
M  V30 20 C -6.081804 4.496289 1.616633 0
M  V30 21 C -5.021317 4.085692 0.842058 0
M  V30 22 Cl -4.386407 4.899769 -0.546082 0
M  V30 23 C -3.367688 1.333258 -0.522153 0
M  V30 24 N -2.296559 0.757189 -1.096590 0
M  V30 25 C -2.484839 -0.208660 -2.161793 0
M  V30 26 C -3.594238 0.176861 -3.140757 0
M  V30 27 C -3.671620 -1.070464 -2.265488 0
M  V30 28 C -1.026462 1.074523 -0.692831 0
M  V30 29 N 0.054656 0.493100 -1.269629 0
M  V30 30 C 3.552906 -2.017653 -1.768766 0
M  V30 31 C 4.060522 -3.177755 -1.198687 0
M  V30 32 C 3.811133 -3.455757 0.133835 0
M  V30 33 C 4.299382 -4.669868 0.825648 0
M  V30 34 C 4.423367 -5.870923 -0.139034 0
M  V30 35 C 5.604552 -5.237779 0.501780 0
M  V30 36 C 3.478008 -5.026185 2.023860 0
M  V30 37 H 1.327848 -5.176885 3.176616 0
M  V30 38 H 1.329330 -3.589827 4.038189 0
M  V30 39 H 2.366712 -4.900832 4.651721 0
M  V30 40 H 1.643459 -2.508390 2.450885 0
M  V30 41 H 3.279130 -1.934314 2.901926 0
M  V30 42 H 1.980287 -0.712634 0.826580 0
M  V30 43 H 2.610076 0.315980 -2.598005 0
M  V30 44 H 0.644345 3.028230 1.502437 0
M  V30 45 H -6.249985 2.088811 3.903566 0
M  V30 46 H -7.378964 4.207857 3.253992 0
M  V30 47 H -6.504195 5.433621 1.252265 0
M  V30 48 H -4.365962 1.071320 -0.851107 0
M  V30 49 H -1.535497 -0.599526 -2.625157 0
M  V30 50 H -3.368441 0.045206 -4.204390 0
M  V30 51 H -4.260045 1.019193 -2.888152 0
M  V30 52 H -3.548427 -2.063324 -2.765451 0
M  V30 53 H -4.510244 -1.068648 -1.559985 0
M  V30 54 H 3.735967 -1.778532 -2.809522 0
M  V30 55 H 4.639923 -3.854872 -1.778701 0
M  V30 56 H 4.161192 -5.745093 -1.187247 0
M  V30 57 H 4.169454 -6.883363 0.242861 0
M  V30 58 H 6.210645 -5.849503 1.220601 0
M  V30 59 H 6.284639 -4.617904 -0.146270 0
M  V30 60 H 2.606702 -5.642930 1.659511 0
M  V30 61 H 4.093808 -5.742848 2.640151 0
M  V30 END ATOM
M  V30 BEGIN BOND
M  V30 1 1 1 2
M  V30 2 1 2 3
M  V30 3 1 3 4
M  V30 4 2 4 5
M  V30 5 1 5 6
M  V30 6 1 6 7
M  V30 7 1 7 8
M  V30 8 2 8 9
M  V30 9 1 9 10
M  V30 10 2 10 11
M  V30 11 1 11 12
M  V30 12 2 12 13
M  V30 13 1 12 14
M  V30 14 1 14 15
M  V30 15 2 15 16
M  V30 16 1 16 17
M  V30 17 1 16 18
M  V30 18 2 18 19
M  V30 19 1 19 20
M  V30 20 2 20 21
M  V30 21 1 21 22
M  V30 22 2 14 23
M  V30 23 1 23 24
M  V30 24 1 24 25
M  V30 25 1 25 26
M  V30 26 1 26 27
M  V30 27 1 24 28
M  V30 28 2 28 29
M  V30 29 2 6 30
M  V30 30 1 30 31
M  V30 31 2 31 32
M  V30 32 1 32 33
M  V30 33 1 33 34
M  V30 34 1 34 35
M  V30 35 1 33 36
M  V30 36 1 36 2
M  V30 37 1 32 4
M  V30 38 1 35 33
M  V30 39 1 29 8
M  V30 40 1 28 11
M  V30 41 1 21 15
M  V30 42 1 27 25
M  V30 43 1 1 37
M  V30 44 1 1 38
M  V30 45 1 1 39
M  V30 46 1 3 40
M  V30 47 1 3 41
M  V30 48 1 5 42
M  V30 49 1 7 43
M  V30 50 1 10 44
M  V30 51 1 18 45
M  V30 52 1 19 46
M  V30 53 1 20 47
M  V30 54 1 23 48
M  V30 55 1 25 49
M  V30 56 1 26 50
M  V30 57 1 26 51
M  V30 58 1 27 52
M  V30 59 1 27 53
M  V30 60 1 30 54
M  V30 61 1 31 55
M  V30 62 1 34 56
M  V30 63 1 34 57
M  V30 64 1 35 58
M  V30 65 1 35 59
M  V30 66 1 36 60
M  V30 67 1 36 61
M  V30 END BOND
M  V30 END CTAB
M  END
>  <Dataset>  (258) 
ChEMBL_Kinases

>  <Ligand_Instance>  (258) 
nan

>  <PDB_ID>  (258) 
nan

>  <Standardized_SMILES>  (258) 
CN1Cc2cc(Nc3ncc4c(=O)c(-c5c(Cl)cccc5Cl)cn(C5CC5)c4n3)ccc2C2(CC2)C1

>  <Name>  (258) 
nan

>  <Pocket>  (258) 
nan

>  <ATP_Site>  (258) 
nan

>  <Peripheral>  (258) 
nan

>  <Num_H_Atoms_ProtBoundConf>  (258) 
nan

>  <Num_Resolved_Atoms>  (258) 
nan

>  <Num_Not_Resolved_Atoms>  (258) 
nan

$$$$
CHEMBL4746358
     RDKit          3D

  0  0  0  0  0  0  0  0  0  0999 V3000
M  V30 BEGIN CTAB
M  V30 COUNTS 54 59 0 0 0
M  V30 BEGIN ATOM
M  V30 1 C -1.447454 -4.289040 0.362616 0
M  V30 2 N -0.913638 -4.899646 1.532520 0
M  V30 3 C -0.335927 -3.990868 2.483884 0
M  V30 4 C 1.116887 -3.722363 2.168703 0
M  V30 5 N 1.392447 -4.245981 0.846302 0
M  V30 6 C 1.763012 -3.479997 -0.292027 0
M  V30 7 C 1.882477 -2.110239 -0.207620 0
M  V30 8 C 2.251018 -1.437515 -1.374374 0
M  V30 9 C 2.415882 0.020923 -1.431851 0
M  V30 10 N 3.456210 0.623552 -2.033064 0
M  V30 11 N 3.330768 1.937994 -1.922241 0
M  V30 12 C 2.217287 2.261536 -1.251991 0
M  V30 13 C 1.530483 3.374668 -0.813354 0
M  V30 14 N 0.378981 3.305021 -0.131390 0
M  V30 15 C -0.195565 2.127158 0.177298 0
M  V30 16 C -1.447730 2.004336 0.917687 0
M  V30 17 C -2.084496 0.805594 1.262335 0
M  V30 18 N -3.213429 1.159382 1.943004 0
M  V30 19 N -3.267296 2.489529 2.012369 0
M  V30 20 C -2.205244 3.053329 1.397207 0
M  V30 21 C -2.313192 4.524058 1.502690 0
M  V30 22 C -3.782260 4.736482 1.876956 0
M  V30 23 C -4.197113 3.470630 2.592340 0
M  V30 24 C 0.457337 0.986250 -0.241987 0
M  V30 25 C 1.630198 1.044634 -0.936940 0
M  V30 26 C 2.467375 -2.180136 -2.516278 0
M  V30 27 C 2.341834 -3.555089 -2.579142 0
M  V30 28 N 1.990642 -4.135573 -1.442950 0
M  V30 29 C 1.250438 -5.690692 0.777990 0
M  V30 30 C -0.102735 -6.057213 1.322410 0
M  V30 31 H -1.246502 -4.861501 -0.563927 0
M  V30 32 H -1.065871 -3.245011 0.299891 0
M  V30 33 H -2.555535 -4.196063 0.446699 0
M  V30 34 H -0.913598 -3.057151 2.549970 0
M  V30 35 H -0.426631 -4.478979 3.476824 0
M  V30 36 H 1.419563 -2.694210 2.339166 0
M  V30 37 H 1.743035 -4.336880 2.880752 0
M  V30 38 H 1.711011 -1.552720 0.684183 0
M  V30 39 H 3.965207 2.696043 -2.278096 0
M  V30 40 H 1.987038 4.334831 -1.058010 0
M  V30 41 H -1.757973 -0.217176 1.039599 0
M  V30 42 H -2.056821 5.046290 0.556798 0
M  V30 43 H -1.731280 4.940095 2.351731 0
M  V30 44 H -4.412286 4.909265 0.984331 0
M  V30 45 H -3.915841 5.574188 2.560664 0
M  V30 46 H -5.247509 3.257273 2.290599 0
M  V30 47 H -4.079149 3.505457 3.679515 0
M  V30 48 H 0.017627 0.027148 -0.007375 0
M  V30 49 H 2.756160 -1.632326 -3.422179 0
M  V30 50 H 2.519550 -4.107554 -3.493939 0
M  V30 51 H 2.013221 -6.138004 1.477599 0
M  V30 52 H 1.464634 -6.096735 -0.218068 0
M  V30 53 H -0.046838 -6.633878 2.262260 0
M  V30 54 H -0.617454 -6.696576 0.568612 0
M  V30 END ATOM
M  V30 BEGIN BOND
M  V30 1 1 1 2
M  V30 2 1 2 3
M  V30 3 1 3 4
M  V30 4 1 4 5
M  V30 5 1 5 6
M  V30 6 2 6 7
M  V30 7 1 7 8
M  V30 8 1 8 9
M  V30 9 2 9 10
M  V30 10 1 10 11
M  V30 11 1 11 12
M  V30 12 2 12 13
M  V30 13 1 13 14
M  V30 14 2 14 15
M  V30 15 1 15 16
M  V30 16 1 16 17
M  V30 17 2 17 18
M  V30 18 1 18 19
M  V30 19 1 19 20
M  V30 20 1 20 21
M  V30 21 1 21 22
M  V30 22 1 22 23
M  V30 23 1 15 24
M  V30 24 2 24 25
M  V30 25 2 8 26
M  V30 26 1 26 27
M  V30 27 2 27 28
M  V30 28 1 5 29
M  V30 29 1 29 30
M  V30 30 1 30 2
M  V30 31 1 28 6
M  V30 32 1 25 9
M  V30 33 1 25 12
M  V30 34 2 20 16
M  V30 35 1 23 19
M  V30 36 1 1 31
M  V30 37 1 1 32
M  V30 38 1 1 33
M  V30 39 1 3 34
M  V30 40 1 3 35
M  V30 41 1 4 36
M  V30 42 1 4 37
M  V30 43 1 7 38
M  V30 44 1 11 39
M  V30 45 1 13 40
M  V30 46 1 17 41
M  V30 47 1 21 42
M  V30 48 1 21 43
M  V30 49 1 22 44
M  V30 50 1 22 45
M  V30 51 1 23 46
M  V30 52 1 23 47
M  V30 53 1 24 48
M  V30 54 1 26 49
M  V30 55 1 27 50
M  V30 56 1 29 51
M  V30 57 1 29 52
M  V30 58 1 30 53
M  V30 59 1 30 54
M  V30 END BOND
M  V30 END CTAB
M  END
>  <Dataset>  (259) 
ChEMBL_Kinases

>  <Ligand_Instance>  (259) 
nan

>  <PDB_ID>  (259) 
nan

>  <Standardized_SMILES>  (259) 
CN1CCN(c2cc(-c3n[nH]c4cnc(-c5cnn6c5CCC6)cc34)ccn2)CC1

>  <Name>  (259) 
nan

>  <Pocket>  (259) 
nan

>  <ATP_Site>  (259) 
nan

>  <Peripheral>  (259) 
nan

>  <Num_H_Atoms_ProtBoundConf>  (259) 
nan

>  <Num_Resolved_Atoms>  (259) 
nan

>  <Num_Not_Resolved_Atoms>  (259) 
nan

$$$$
CHEMBL4454086
     RDKit          3D

  0  0  0  0  0  0  0  0  0  0999 V3000
M  V30 BEGIN CTAB
M  V30 COUNTS 50 52 0 0 0
M  V30 BEGIN ATOM
M  V30 1 C 0.881791 -4.077736 2.675420 0
M  V30 2 C 2.071089 -3.982814 1.765434 0
M  V30 3 C 1.688400 -3.550421 0.387638 0
M  V30 4 C 1.042829 -2.209365 0.454771 0
M  V30 5 C 1.916180 -1.128158 0.341932 0
M  V30 6 C 1.385618 0.142863 0.395556 0
M  V30 7 C 2.216748 1.349183 0.284640 0
M  V30 8 C 1.925767 2.312240 1.229939 0
M  V30 9 C 2.660322 3.502408 1.218583 0
M  V30 10 N 3.648750 3.736079 0.306193 0
M  V30 11 C 3.911814 2.781839 -0.603369 0
M  V30 12 N 4.774616 2.641546 -1.627242 0
M  V30 13 N 4.637614 1.479139 -2.243066 0
M  V30 14 C 3.645102 0.763911 -1.641221 0
M  V30 15 C 3.216614 1.592095 -0.634184 0
M  V30 16 C 0.024800 0.295882 0.557257 0
M  V30 17 C -0.869306 -0.731760 0.672178 0
M  V30 18 C -2.335736 -0.629833 0.845835 0
M  V30 19 C -2.551360 -0.582156 2.365436 0
M  V30 20 C -2.810503 0.629081 0.188198 0
M  V30 21 C -4.304152 0.825246 0.304475 0
M  V30 22 C -3.068521 -1.847863 0.385478 0
M  V30 23 N -2.882330 -2.167553 -1.013298 0
M  V30 24 C -0.331248 -1.996421 0.617542 0
M  V30 25 H 0.517331 -3.088675 3.012285 0
M  V30 26 H 0.026838 -4.592533 2.181987 0
M  V30 27 H 1.092896 -4.663785 3.592282 0
M  V30 28 H 2.649961 -4.921699 1.766539 0
M  V30 29 H 2.764885 -3.215799 2.212086 0
M  V30 30 H 2.569955 -3.513939 -0.273896 0
M  V30 31 H 0.939432 -4.294014 0.004484 0
M  V30 32 H 2.974727 -1.272092 0.217858 0
M  V30 33 H 1.191796 2.298713 2.012343 0
M  V30 34 H 2.543371 4.354489 1.903519 0
M  V30 35 H 5.489441 3.354120 -1.930954 0
M  V30 36 H 3.290119 -0.221734 -1.906924 0
M  V30 37 H -0.365743 1.302491 0.596884 0
M  V30 38 H -2.099769 0.317709 2.796472 0
M  V30 39 H -2.006734 -1.471251 2.762864 0
M  V30 40 H -3.609304 -0.749351 2.635800 0
M  V30 41 H -2.510997 0.619493 -0.877399 0
M  V30 42 H -2.361679 1.538724 0.636826 0
M  V30 43 H -4.744921 0.368767 1.193314 0
M  V30 44 H -4.603647 1.895718 0.306114 0
M  V30 45 H -4.811743 0.364273 -0.579819 0
M  V30 46 H -2.821188 -2.690837 1.037010 0
M  V30 47 H -4.160541 -1.638439 0.592045 0
M  V30 48 H -3.672760 -1.732575 -1.555650 0
M  V30 49 H -3.037525 -3.208078 -1.086019 0
M  V30 50 H -0.837576 -2.928565 0.685088 0
M  V30 END ATOM
M  V30 BEGIN BOND
M  V30 1 1 1 2
M  V30 2 1 2 3
M  V30 3 1 3 4
M  V30 4 2 4 5
M  V30 5 1 5 6
M  V30 6 1 6 7
M  V30 7 2 7 8
M  V30 8 1 8 9
M  V30 9 2 9 10
M  V30 10 1 10 11
M  V30 11 1 11 12
M  V30 12 1 12 13
M  V30 13 2 13 14
M  V30 14 1 14 15
M  V30 15 2 6 16
M  V30 16 1 16 17
M  V30 17 1 17 18
M  V30 18 1 18 19
M  V30 19 1 18 20
M  V30 20 1 20 21
M  V30 21 1 18 22
M  V30 22 1 22 23
M  V30 23 2 17 24
M  V30 24 1 24 4
M  V30 25 1 15 7
M  V30 26 2 15 11
M  V30 27 1 1 25
M  V30 28 1 1 26
M  V30 29 1 1 27
M  V30 30 1 2 28
M  V30 31 1 2 29
M  V30 32 1 3 30
M  V30 33 1 3 31
M  V30 34 1 5 32
M  V30 35 1 8 33
M  V30 36 1 9 34
M  V30 37 1 12 35
M  V30 38 1 14 36
M  V30 39 1 16 37
M  V30 40 1 19 38
M  V30 41 1 19 39
M  V30 42 1 19 40
M  V30 43 1 20 41
M  V30 44 1 20 42
M  V30 45 1 21 43
M  V30 46 1 21 44
M  V30 47 1 21 45
M  V30 48 1 22 46
M  V30 49 1 22 47
M  V30 50 1 23 48
M  V30 51 1 23 49
M  V30 52 1 24 50
M  V30 END BOND
M  V30 END CTAB
M  END
>  <Dataset>  (260) 
ChEMBL_Kinases

>  <Ligand_Instance>  (260) 
nan

>  <PDB_ID>  (260) 
nan

>  <Standardized_SMILES>  (260) 
CCCc1cc(-c2ccnc3[nH]ncc23)cc(C(C)(CC)CN)c1

>  <Name>  (260) 
nan

>  <Pocket>  (260) 
nan

>  <ATP_Site>  (260) 
nan

>  <Peripheral>  (260) 
nan

>  <Num_H_Atoms_ProtBoundConf>  (260) 
nan

>  <Num_Resolved_Atoms>  (260) 
nan

>  <Num_Not_Resolved_Atoms>  (260) 
nan

$$$$
CHEMBL4454448
     RDKit          3D

  0  0  0  0  0  0  0  0  0  0999 V3000
M  V30 BEGIN CTAB
M  V30 COUNTS 45 48 0 0 0
M  V30 BEGIN ATOM
M  V30 1 N 2.460097 -0.759515 4.125840 0
M  V30 2 C 3.130489 -0.361293 2.955642 0
M  V30 3 N 4.447422 -0.603751 2.817261 0
M  V30 4 C 5.147413 -0.239227 1.703222 0
M  V30 5 C 4.465738 0.408762 0.673228 0
M  V30 6 C 5.239827 0.786188 -0.505350 0
M  V30 7 C 4.719055 0.847146 -1.802305 0
M  V30 8 C 5.546624 1.216543 -2.840199 0
M  V30 9 N 6.861401 1.530180 -2.673554 0
M  V30 10 C 7.363427 1.470783 -1.419124 0
M  V30 11 C 6.566082 1.105668 -0.358173 0
M  V30 12 C 3.108693 0.694465 0.740237 0
M  V30 13 C 2.506968 0.279453 1.912133 0
M  V30 14 N 1.092046 0.541738 2.053451 0
M  V30 15 C 0.198737 -0.335533 1.836202 0
M  V30 16 C -1.237085 -0.088532 1.973763 0
M  V30 17 C -1.692103 1.155035 2.360718 0
M  V30 18 C -3.030322 1.467213 2.513010 0
M  V30 19 N -3.900394 0.465913 2.257022 0
M  V30 20 C -3.458275 -0.764370 1.874537 0
M  V30 21 N -4.423592 -1.800651 1.610795 0
M  V30 22 C -4.723532 -1.682237 0.228648 0
M  V30 23 O -4.474706 -1.030896 -0.838621 0
M  V30 24 C -5.657015 -2.476297 -0.638672 0
M  V30 25 C -5.692982 -3.938561 -0.449416 0
M  V30 26 C -6.887421 -3.069865 -0.103651 0
M  V30 27 C -2.132184 -1.104234 1.714722 0
M  V30 28 H 2.527382 -1.705213 4.589748 0
M  V30 29 H 1.840658 -0.048395 4.570676 0
M  V30 30 H 6.204297 -0.447197 1.621057 0
M  V30 31 H 3.677635 0.598954 -1.934430 0
M  V30 32 H 5.105772 1.252451 -3.835841 0
M  V30 33 H 8.408665 1.731201 -1.358797 0
M  V30 34 H 7.053803 1.089121 0.584736 0
M  V30 35 H 2.578098 1.195984 -0.055770 0
M  V30 36 H 0.555359 -1.311233 1.533554 0
M  V30 37 H -0.979745 1.948510 2.562722 0
M  V30 38 H -3.376113 2.445317 2.816789 0
M  V30 39 H -4.996013 -2.591387 1.977590 0
M  V30 40 H -5.633216 -2.097721 -1.680080 0
M  V30 41 H -5.741416 -4.575239 -1.350765 0
M  V30 42 H -5.210348 -4.422506 0.413064 0
M  V30 43 H -7.743803 -3.182464 -0.819385 0
M  V30 44 H -7.137269 -2.875193 0.953009 0
M  V30 45 H -1.849324 -2.092122 1.410902 0
M  V30 END ATOM
M  V30 BEGIN BOND
M  V30 1 1 1 2
M  V30 2 2 2 3
M  V30 3 1 3 4
M  V30 4 2 4 5
M  V30 5 1 5 6
M  V30 6 2 6 7
M  V30 7 1 7 8
M  V30 8 2 8 9
M  V30 9 1 9 10
M  V30 10 2 10 11
M  V30 11 1 5 12
M  V30 12 2 12 13
M  V30 13 1 13 14
M  V30 14 2 14 15
M  V30 15 1 15 16
M  V30 16 2 16 17
M  V30 17 1 17 18
M  V30 18 2 18 19
M  V30 19 1 19 20
M  V30 20 1 20 21
M  V30 21 1 21 22
M  V30 22 2 22 23
M  V30 23 1 22 24
M  V30 24 1 24 25
M  V30 25 1 25 26
M  V30 26 2 20 27
M  V30 27 1 13 2
M  V30 28 1 27 16
M  V30 29 1 11 6
M  V30 30 1 26 24
M  V30 31 1 1 28
M  V30 32 1 1 29
M  V30 33 1 4 30
M  V30 34 1 7 31
M  V30 35 1 8 32
M  V30 36 1 10 33
M  V30 37 1 11 34
M  V30 38 1 12 35
M  V30 39 1 15 36
M  V30 40 1 17 37
M  V30 41 1 18 38
M  V30 42 1 21 39
M  V30 43 1 24 40
M  V30 44 1 25 41
M  V30 45 1 25 42
M  V30 46 1 26 43
M  V30 47 1 26 44
M  V30 48 1 27 45
M  V30 END BOND
M  V30 END CTAB
M  END
>  <Dataset>  (261) 
ChEMBL_Kinases

>  <Ligand_Instance>  (261) 
nan

>  <PDB_ID>  (261) 
nan

>  <Standardized_SMILES>  (261) 
Nc1ncc(-c2ccncc2)cc1/N=C/c1ccnc(NC(=O)C2CC2)c1

>  <Name>  (261) 
nan

>  <Pocket>  (261) 
nan

>  <ATP_Site>  (261) 
nan

>  <Peripheral>  (261) 
nan

>  <Num_H_Atoms_ProtBoundConf>  (261) 
nan

>  <Num_Resolved_Atoms>  (261) 
nan

>  <Num_Not_Resolved_Atoms>  (261) 
nan

$$$$
CHEMBL4746403
     RDKit          3D

  0  0  0  0  0  0  0  0  0  0999 V3000
M  V30 BEGIN CTAB
M  V30 COUNTS 83 88 0 0 0
M  V30 BEGIN ATOM
M  V30 1 C 4.740245 -4.364430 4.352807 0
M  V30 2 C 5.348561 -3.343466 5.275401 0
M  V30 3 C 4.366385 -2.347940 5.816324 0
M  V30 4 N 3.722461 -1.591799 4.767951 0
M  V30 5 C 4.524746 -0.806328 3.896908 0
M  V30 6 O 5.784628 -0.711904 3.963791 0
M  V30 7 C 3.859131 -0.071565 2.871266 0
M  V30 8 S 2.066976 -0.037332 2.565714 0
M  V30 9 C 2.176525 1.074361 1.165996 0
M  V30 10 C 1.019450 1.601556 0.341840 0
M  V30 11 C 1.233024 2.406182 -0.727692 0
M  V30 12 C 0.101549 2.825860 -1.393982 0
M  V30 13 N -1.125875 2.455666 -0.999976 0
M  V30 14 C -1.349821 1.657935 0.060979 0
M  V30 15 N -2.693482 1.358802 0.370846 0
M  V30 16 C -3.247192 0.690133 1.465024 0
M  V30 17 O -2.402188 0.267490 2.340949 0
M  V30 18 C -4.589645 0.321184 1.932897 0
M  V30 19 N -5.708047 0.585228 1.163213 0
M  V30 20 C -6.083461 -0.270503 0.144500 0
M  V30 21 C -5.322197 -0.516216 -1.104887 0
M  V30 22 N -4.028332 -1.096006 -0.982377 0
M  V30 23 C -3.597869 -1.731937 -2.208095 0
M  V30 24 C -2.924239 -1.265820 -3.304785 0
M  V30 25 C -2.614667 -2.067251 -4.371432 0
M  V30 26 N -2.955272 -3.366941 -4.403839 0
M  V30 27 C -3.617937 -3.947898 -3.392480 0
M  V30 28 C -3.988932 -5.266798 -3.378794 0
M  V30 29 C -4.668809 -5.814466 -2.318905 0
M  V30 30 C -4.999485 -5.042597 -1.226488 0
M  V30 31 C -4.606740 -3.717200 -1.279433 0
M  V30 32 C -3.914699 -3.093144 -2.322235 0
M  V30 33 C -1.890509 -1.376750 -5.463337 0
M  V30 34 C -0.872555 -0.382992 -5.008164 0
M  V30 35 C -1.089305 0.228953 -3.669891 0
M  V30 36 C -2.552397 0.169386 -3.286760 0
M  V30 37 C -0.230051 1.235332 0.729221 0
M  V30 38 N 3.481320 1.348247 1.007659 0
M  V30 39 C 4.280690 0.763001 1.870279 0
M  V30 40 O 5.652261 0.972626 1.807160 0
M  V30 41 C 6.307359 1.793312 0.868387 0
M  V30 42 C 5.836154 3.230568 0.954316 0
M  V30 43 C 6.070339 3.853592 2.294971 0
M  V30 44 C 6.929870 4.235472 1.167626 0
M  V30 45 H 5.499338 -4.616238 3.559995 0
M  V30 46 H 4.504864 -5.327234 4.857810 0
M  V30 47 H 3.799681 -4.027023 3.881524 0
M  V30 48 H 6.216516 -2.830602 4.842798 0
M  V30 49 H 5.720469 -3.921568 6.171316 0
M  V30 50 H 3.569893 -2.853453 6.399723 0
M  V30 51 H 4.958150 -1.625142 6.425256 0
M  V30 52 H 2.668008 -1.611925 4.637472 0
M  V30 53 H 2.250246 2.659607 -0.982361 0
M  V30 54 H 0.229871 3.474671 -2.260500 0
M  V30 55 H -3.467803 1.643261 -0.262496 0
M  V30 56 H -4.697695 0.669537 3.015880 0
M  V30 57 H -4.524431 -0.821839 2.089998 0
M  V30 58 H -6.489147 0.986271 1.717090 0
M  V30 59 H -6.291611 -1.347657 0.578608 0
M  V30 60 H -7.181214 -0.004814 -0.171687 0
M  V30 61 H -5.938213 -1.190385 -1.787107 0
M  V30 62 H -5.279210 0.468863 -1.680296 0
M  V30 63 H -3.140027 -1.357310 -0.506752 0
M  V30 64 H -3.718828 -5.861632 -4.253152 0
M  V30 65 H -4.963857 -6.859972 -2.303855 0
M  V30 66 H -5.532124 -5.454732 -0.384149 0
M  V30 67 H -4.898533 -3.155024 -0.381865 0
M  V30 68 H -1.363542 -2.153203 -6.084012 0
M  V30 69 H -2.626248 -0.880987 -6.165454 0
M  V30 70 H -0.844868 0.437163 -5.784844 0
M  V30 71 H 0.158446 -0.827184 -5.040678 0
M  V30 72 H -0.529910 -0.348374 -2.884193 0
M  V30 73 H -0.729681 1.283938 -3.646406 0
M  V30 74 H -3.114134 0.744270 -4.065757 0
M  V30 75 H -2.739549 0.652388 -2.330640 0
M  V30 76 H -0.329339 0.603734 1.569432 0
M  V30 77 H 6.025374 1.416549 -0.140916 0
M  V30 78 H 7.387707 1.715313 1.025679 0
M  V30 79 H 4.952778 3.480501 0.357611 0
M  V30 80 H 6.423074 3.226771 3.121519 0
M  V30 81 H 5.268855 4.583389 2.575673 0
M  V30 82 H 6.810288 5.262335 0.722621 0
M  V30 83 H 8.004894 3.905470 1.124046 0
M  V30 END ATOM
M  V30 BEGIN BOND
M  V30 1 1 1 2
M  V30 2 1 2 3
M  V30 3 1 3 4
M  V30 4 1 4 5
M  V30 5 2 5 6
M  V30 6 1 5 7
M  V30 7 1 7 8
M  V30 8 1 8 9
M  V30 9 1 9 10
M  V30 10 2 10 11
M  V30 11 1 11 12
M  V30 12 2 12 13
M  V30 13 1 13 14
M  V30 14 1 14 15
M  V30 15 1 15 16
M  V30 16 2 16 17
M  V30 17 1 16 18
M  V30 18 1 18 19
M  V30 19 1 19 20
M  V30 20 1 20 21
M  V30 21 1 21 22
M  V30 22 1 22 23
M  V30 23 2 23 24
M  V30 24 1 24 25
M  V30 25 2 25 26
M  V30 26 1 26 27
M  V30 27 2 27 28
M  V30 28 1 28 29
M  V30 29 2 29 30
M  V30 30 1 30 31
M  V30 31 2 31 32
M  V30 32 1 25 33
M  V30 33 1 33 34
M  V30 34 1 34 35
M  V30 35 1 35 36
M  V30 36 2 14 37
M  V30 37 2 9 38
M  V30 38 1 38 39
M  V30 39 1 39 40
M  V30 40 1 40 41
M  V30 41 1 41 42
M  V30 42 1 42 43
M  V30 43 1 43 44
M  V30 44 2 39 7
M  V30 45 1 44 42
M  V30 46 1 37 10
M  V30 47 1 32 23
M  V30 48 1 36 24
M  V30 49 1 32 27
M  V30 50 1 1 45
M  V30 51 1 1 46
M  V30 52 1 1 47
M  V30 53 1 2 48
M  V30 54 1 2 49
M  V30 55 1 3 50
M  V30 56 1 3 51
M  V30 57 1 4 52
M  V30 58 1 11 53
M  V30 59 1 12 54
M  V30 60 1 15 55
M  V30 61 1 18 56
M  V30 62 1 18 57
M  V30 63 1 19 58
M  V30 64 1 20 59
M  V30 65 1 20 60
M  V30 66 1 21 61
M  V30 67 1 21 62
M  V30 68 1 22 63
M  V30 69 1 28 64
M  V30 70 1 29 65
M  V30 71 1 30 66
M  V30 72 1 31 67
M  V30 73 1 33 68
M  V30 74 1 33 69
M  V30 75 1 34 70
M  V30 76 1 34 71
M  V30 77 1 35 72
M  V30 78 1 35 73
M  V30 79 1 36 74
M  V30 80 1 36 75
M  V30 81 1 37 76
M  V30 82 1 41 77
M  V30 83 1 41 78
M  V30 84 1 42 79
M  V30 85 1 43 80
M  V30 86 1 43 81
M  V30 87 1 44 82
M  V30 88 1 44 83
M  V30 END BOND
M  V30 END CTAB
M  END
>  <Dataset>  (262) 
ChEMBL_Kinases

>  <Ligand_Instance>  (262) 
nan

>  <PDB_ID>  (262) 
nan

>  <Standardized_SMILES>  (262) 
CCCNC(=O)c1sc(-c2ccnc(NC(=O)CNCCNc3c4c(nc5ccccc35)CCCC4)c2)nc1OCC1CC1

>  <Name>  (262) 
nan

>  <Pocket>  (262) 
nan

>  <ATP_Site>  (262) 
nan

>  <Peripheral>  (262) 
nan

>  <Num_H_Atoms_ProtBoundConf>  (262) 
nan

>  <Num_Resolved_Atoms>  (262) 
nan

>  <Num_Not_Resolved_Atoms>  (262) 
nan

$$$$
CHEMBL4454374
     RDKit          3D

  0  0  0  0  0  0  0  0  0  0999 V3000
M  V30 BEGIN CTAB
M  V30 COUNTS 54 56 0 0 0
M  V30 BEGIN ATOM
M  V30 1 C 1.069233 -3.802481 0.320166 0
M  V30 2 C 1.184843 -2.326124 0.364097 0
M  V30 3 C 1.717309 -1.813378 -0.982472 0
M  V30 4 C 2.274060 -2.001019 1.398410 0
M  V30 5 N 0.010943 -1.549486 0.741534 0
M  V30 6 C 0.239288 -0.153093 0.824734 0
M  V30 7 N 1.456900 0.331696 0.555125 0
M  V30 8 C 1.818967 1.613117 0.581946 0
M  V30 9 C 3.141390 2.140739 0.292799 0
M  V30 10 C 4.248969 1.400450 -0.050398 0
M  V30 11 C 5.486450 1.947433 -0.314885 0
M  V30 12 N 5.633846 3.290639 -0.235692 0
M  V30 13 C 4.585306 4.046457 0.094019 0
M  V30 14 C 3.346930 3.502110 0.358937 0
M  V30 15 N 0.828531 2.444920 0.916404 0
M  V30 16 C -0.411671 2.085172 1.203823 0
M  V30 17 C -1.305519 3.056504 1.523356 0
M  V30 18 N -2.556547 2.677468 1.809114 0
M  V30 19 C -2.902565 1.381071 1.777932 0
M  V30 20 C -2.000781 0.389800 1.454626 0
M  V30 21 N -2.441890 -0.949588 1.479375 0
M  V30 22 C -3.822132 -1.198350 1.786113 0
M  V30 23 C -4.392622 -2.552345 1.601714 0
M  V30 24 O -4.436846 -3.134099 0.399831 0
M  V30 25 C -3.291628 -3.358958 -0.292716 0
M  V30 26 C -3.610481 -4.096726 -1.631543 0
M  V30 27 O -2.405130 -4.301343 -2.299364 0
M  V30 28 C -0.712627 0.744397 1.156134 0
M  V30 29 H 0.187131 -4.107445 0.917162 0
M  V30 30 H 1.958473 -4.311940 0.753037 0
M  V30 31 H 1.005728 -4.128280 -0.737442 0
M  V30 32 H 2.743550 -1.423169 -0.869587 0
M  V30 33 H 1.749527 -2.677917 -1.702700 0
M  V30 34 H 1.077054 -1.003919 -1.359447 0
M  V30 35 H 3.163337 -1.560031 0.946745 0
M  V30 36 H 1.890699 -1.327209 2.197628 0
M  V30 37 H 2.619264 -2.921133 1.932921 0
M  V30 38 H -0.455225 -2.432459 0.768407 0
M  V30 39 H 4.151765 0.340974 -0.116613 0
M  V30 40 H 6.311716 1.323691 -0.576886 0
M  V30 41 H 4.757129 5.108172 0.142695 0
M  V30 42 H 2.562849 4.186209 0.615789 0
M  V30 43 H -0.996450 4.079596 1.539199 0
M  V30 44 H -3.942464 1.269005 2.039761 0
M  V30 45 H -2.250784 -1.924084 1.406323 0
M  V30 46 H -4.485097 -0.449508 1.233835 0
M  V30 47 H -4.048773 -0.919019 2.864879 0
M  V30 48 H -3.969930 -3.219890 2.413040 0
M  V30 49 H -5.478851 -2.456316 1.949944 0
M  V30 50 H -2.928714 -2.360355 -0.696532 0
M  V30 51 H -2.500654 -3.917925 0.228971 0
M  V30 52 H -4.091819 -5.057789 -1.391333 0
M  V30 53 H -4.256870 -3.393710 -2.194336 0
M  V30 54 H -1.634159 -4.053984 -1.729877 0
M  V30 END ATOM
M  V30 BEGIN BOND
M  V30 1 1 1 2
M  V30 2 1 2 3
M  V30 3 1 2 4
M  V30 4 1 2 5
M  V30 5 1 5 6
M  V30 6 2 6 7
M  V30 7 1 7 8
M  V30 8 1 8 9
M  V30 9 2 9 10
M  V30 10 1 10 11
M  V30 11 2 11 12
M  V30 12 1 12 13
M  V30 13 2 13 14
M  V30 14 2 8 15
M  V30 15 1 15 16
M  V30 16 2 16 17
M  V30 17 1 17 18
M  V30 18 2 18 19
M  V30 19 1 19 20
M  V30 20 1 20 21
M  V30 21 1 21 22
M  V30 22 1 22 23
M  V30 23 1 23 24
M  V30 24 1 24 25
M  V30 25 1 25 26
M  V30 26 1 26 27
M  V30 27 2 20 28
M  V30 28 1 28 6
M  V30 29 1 14 9
M  V30 30 1 28 16
M  V30 31 1 1 29
M  V30 32 1 1 30
M  V30 33 1 1 31
M  V30 34 1 3 32
M  V30 35 1 3 33
M  V30 36 1 3 34
M  V30 37 1 4 35
M  V30 38 1 4 36
M  V30 39 1 4 37
M  V30 40 1 5 38
M  V30 41 1 10 39
M  V30 42 1 11 40
M  V30 43 1 13 41
M  V30 44 1 14 42
M  V30 45 1 17 43
M  V30 46 1 19 44
M  V30 47 1 21 45
M  V30 48 1 22 46
M  V30 49 1 22 47
M  V30 50 1 23 48
M  V30 51 1 23 49
M  V30 52 1 25 50
M  V30 53 1 25 51
M  V30 54 1 26 52
M  V30 55 1 26 53
M  V30 56 1 27 54
M  V30 END BOND
M  V30 END CTAB
M  END
>  <Dataset>  (263) 
ChEMBL_Kinases

>  <Ligand_Instance>  (263) 
nan

>  <PDB_ID>  (263) 
nan

>  <Standardized_SMILES>  (263) 
CC(C)(C)Nc1nc(-c2ccncc2)nc2cncc(NCCOCCO)c12

>  <Name>  (263) 
nan

>  <Pocket>  (263) 
nan

>  <ATP_Site>  (263) 
nan

>  <Peripheral>  (263) 
nan

>  <Num_H_Atoms_ProtBoundConf>  (263) 
nan

>  <Num_Resolved_Atoms>  (263) 
nan

>  <Num_Not_Resolved_Atoms>  (263) 
nan

$$$$
CHEMBL4454319
     RDKit          3D

  0  0  0  0  0  0  0  0  0  0999 V3000
M  V30 BEGIN CTAB
M  V30 COUNTS 61 65 0 0 0
M  V30 BEGIN ATOM
M  V30 1 C 5.389071 -0.880696 7.515255 0
M  V30 2 C 5.501156 0.111212 6.377565 0
M  V30 3 O 4.204594 0.480896 5.949407 0
M  V30 4 C 4.041762 1.374636 4.923198 0
M  V30 5 O 5.050698 1.876067 4.350721 0
M  V30 6 C 2.683236 1.725291 4.516728 0
M  V30 7 C 1.573750 1.185686 5.132699 0
M  V30 8 C 0.300969 1.497619 4.771168 0
M  V30 9 C 0.095292 2.404978 3.729511 0
M  V30 10 C 1.210093 2.962978 3.092417 0
M  V30 11 N 0.907589 3.889604 2.028780 0
M  V30 12 C 0.766020 3.385282 0.708757 0
M  V30 13 O 0.928102 2.121663 0.605746 0
M  V30 14 N 0.472013 4.107771 -0.480770 0
M  V30 15 C 0.391592 3.315264 -1.673077 0
M  V30 16 C -0.857293 2.790339 -2.006888 0
M  V30 17 C -0.963698 2.022772 -3.150879 0
M  V30 18 O -2.190282 1.472031 -3.532767 0
M  V30 19 C -2.589948 0.217822 -3.103800 0
M  V30 20 C -3.309143 -0.095255 -1.966139 0
M  V30 21 C -3.676779 -1.347042 -1.589805 0
M  V30 22 C -3.339517 -2.442277 -2.356718 0
M  V30 23 N -3.579756 -3.729284 -2.198106 0
M  V30 24 C -3.306352 -4.630621 -2.821612 0
M  V30 25 N -3.622637 -6.063470 -2.563967 0
M  V30 26 C -2.673533 -6.765043 -1.809064 0
M  V30 27 O -1.571568 -6.511813 -1.258835 0
M  V30 28 C -2.788399 -8.208515 -1.433418 0
M  V30 29 C -4.088713 -8.848981 -1.212267 0
M  V30 30 C -3.276595 -9.180982 -2.444523 0
M  V30 31 S -2.361464 -3.769104 -4.232080 0
M  V30 32 C -2.623577 -2.144506 -3.491808 0
M  V30 33 C -2.238976 -0.859409 -3.890227 0
M  V30 34 C 0.172738 1.810292 -3.912273 0
M  V30 35 C 1.397345 2.339915 -3.561989 0
M  V30 36 C 1.532510 3.112540 -2.421077 0
M  V30 37 F 2.688523 3.678184 -1.989105 0
M  V30 38 C 2.492590 2.624778 3.484115 0
M  V30 39 H 5.063182 -1.874960 7.114874 0
M  V30 40 H 4.676614 -0.566710 8.284502 0
M  V30 41 H 6.392046 -0.985333 7.971067 0
M  V30 42 H 6.114204 0.981853 6.674677 0
M  V30 43 H 6.067003 -0.380705 5.547622 0
M  V30 44 H 1.798286 0.495548 5.925231 0
M  V30 45 H -0.510457 1.025314 5.310579 0
M  V30 46 H -0.935971 2.620005 3.479782 0
M  V30 47 H 0.773204 4.934062 2.110002 0
M  V30 48 H 0.350198 5.138972 -0.333633 0
M  V30 49 H -1.743484 2.952031 -1.419349 0
M  V30 50 H -3.577379 0.782961 -1.354910 0
M  V30 51 H -4.246538 -1.410156 -0.653441 0
M  V30 52 H -4.463158 -6.547824 -2.895319 0
M  V30 53 H -1.932927 -8.584399 -0.829743 0
M  V30 54 H -5.047812 -8.328148 -1.384157 0
M  V30 55 H -4.153481 -9.670743 -0.443393 0
M  V30 56 H -3.592637 -8.750681 -3.417415 0
M  V30 57 H -2.794920 -10.176763 -2.530972 0
M  V30 58 H -1.683905 -0.841900 -4.810486 0
M  V30 59 H 0.086838 1.207672 -4.809701 0
M  V30 60 H 2.305867 2.194460 -4.133114 0
M  V30 61 H 3.286001 3.094207 2.947851 0
M  V30 END ATOM
M  V30 BEGIN BOND
M  V30 1 1 1 2
M  V30 2 1 2 3
M  V30 3 1 3 4
M  V30 4 2 4 5
M  V30 5 1 4 6
M  V30 6 2 6 7
M  V30 7 1 7 8
M  V30 8 2 8 9
M  V30 9 1 9 10
M  V30 10 1 10 11
M  V30 11 1 11 12
M  V30 12 2 12 13
M  V30 13 1 12 14
M  V30 14 1 14 15
M  V30 15 2 15 16
M  V30 16 1 16 17
M  V30 17 1 17 18
M  V30 18 1 18 19
M  V30 19 2 19 20
M  V30 20 1 20 21
M  V30 21 2 21 22
M  V30 22 1 22 23
M  V30 23 2 23 24
M  V30 24 1 24 25
M  V30 25 1 25 26
M  V30 26 2 26 27
M  V30 27 1 26 28
M  V30 28 1 28 29
M  V30 29 1 29 30
M  V30 30 1 24 31
M  V30 31 1 31 32
M  V30 32 2 32 33
M  V30 33 2 17 34
M  V30 34 1 34 35
M  V30 35 2 35 36
M  V30 36 1 36 37
M  V30 37 2 10 38
M  V30 38 1 38 6
M  V30 39 1 36 15
M  V30 40 1 33 19
M  V30 41 1 32 22
M  V30 42 1 30 28
M  V30 43 1 1 39
M  V30 44 1 1 40
M  V30 45 1 1 41
M  V30 46 1 2 42
M  V30 47 1 2 43
M  V30 48 1 7 44
M  V30 49 1 8 45
M  V30 50 1 9 46
M  V30 51 1 11 47
M  V30 52 1 14 48
M  V30 53 1 16 49
M  V30 54 1 20 50
M  V30 55 1 21 51
M  V30 56 1 25 52
M  V30 57 1 28 53
M  V30 58 1 29 54
M  V30 59 1 29 55
M  V30 60 1 30 56
M  V30 61 1 30 57
M  V30 62 1 33 58
M  V30 63 1 34 59
M  V30 64 1 35 60
M  V30 65 1 38 61
M  V30 END BOND
M  V30 END CTAB
M  END
>  <Dataset>  (264) 
ChEMBL_Kinases

>  <Ligand_Instance>  (264) 
nan

>  <PDB_ID>  (264) 
nan

>  <Standardized_SMILES>  (264) 
CCOC(=O)c1cccc(NC(=O)Nc2cc(Oc3ccc4nc(NC(=O)C5CC5)sc4c3)ccc2F)c1

>  <Name>  (264) 
nan

>  <Pocket>  (264) 
nan

>  <ATP_Site>  (264) 
nan

>  <Peripheral>  (264) 
nan

>  <Num_H_Atoms_ProtBoundConf>  (264) 
nan

>  <Num_Resolved_Atoms>  (264) 
nan

>  <Num_Not_Resolved_Atoms>  (264) 
nan

$$$$
CHEMBL4454241
     RDKit          3D

  0  0  0  0  0  0  0  0  0  0999 V3000
M  V30 BEGIN CTAB
M  V30 COUNTS 42 44 0 0 0
M  V30 BEGIN ATOM
M  V30 1 C -1.191201 -6.007701 4.811400 0
M  V30 2 O -0.739604 -6.053476 3.470870 0
M  V30 3 C -0.604743 -4.842602 2.805901 0
M  V30 4 C -0.861708 -3.580206 3.301492 0
M  V30 5 C -0.694881 -2.446592 2.558027 0
M  V30 6 C -0.253486 -2.552463 1.261438 0
M  V30 7 C -0.052990 -1.387853 0.410323 0
M  V30 8 C 0.341016 -0.243490 1.069979 0
M  V30 9 N 0.542500 0.863213 0.336562 0
M  V30 10 C 0.392441 0.951734 -0.992140 0
M  V30 11 C 0.572602 2.003300 -1.777656 0
M  V30 12 C 0.990809 3.360319 -1.370496 0
M  V30 13 C 1.352222 4.477609 -1.033089 0
M  V30 14 C 1.809225 5.806935 -0.629771 0
M  V30 15 C 1.098636 6.273687 0.637393 0
M  V30 16 C 3.290456 5.809104 -0.279685 0
M  V30 17 S 0.258341 1.610529 -3.376189 0
M  V30 18 N -0.178375 -0.182118 -3.028639 0
M  V30 19 C -0.000212 -0.183109 -1.661883 0
M  V30 20 C -0.221606 -1.349485 -0.957423 0
M  V30 21 C 0.009205 -3.804540 0.746567 0
M  V30 22 C -0.161667 -4.947566 1.504088 0
M  V30 23 O 0.124380 -6.153013 0.909345 0
M  V30 24 C 0.572117 -6.215936 -0.416480 0
M  V30 25 H -0.625412 -5.204528 5.325464 0
M  V30 26 H -1.028854 -6.975823 5.328665 0
M  V30 27 H -2.273825 -5.717049 4.876337 0
M  V30 28 H -1.202381 -3.537059 4.309174 0
M  V30 29 H -0.909933 -1.473698 2.991110 0
M  V30 30 H 0.491894 -0.202010 2.139885 0
M  V30 31 H 1.608596 6.487492 -1.484597 0
M  V30 32 H 0.146012 6.751891 0.315787 0
M  V30 33 H 1.710933 6.914014 1.275537 0
M  V30 34 H 0.786400 5.397115 1.271077 0
M  V30 35 H 3.498133 6.772461 0.225097 0
M  V30 36 H 3.921851 5.640283 -1.175057 0
M  V30 37 H 3.457242 5.006997 0.471073 0
M  V30 38 H -0.530484 -2.308392 -1.348169 0
M  V30 39 H 0.357281 -3.888047 -0.276357 0
M  V30 40 H 1.544559 -5.704577 -0.598798 0
M  V30 41 H 0.659427 -7.247898 -0.789665 0
M  V30 42 H -0.140024 -5.709999 -1.124784 0
M  V30 END ATOM
M  V30 BEGIN BOND
M  V30 1 1 1 2
M  V30 2 1 2 3
M  V30 3 2 3 4
M  V30 4 1 4 5
M  V30 5 2 5 6
M  V30 6 1 6 7
M  V30 7 1 7 8
M  V30 8 2 8 9
M  V30 9 1 9 10
M  V30 10 2 10 11
M  V30 11 1 11 12
M  V30 12 3 12 13
M  V30 13 1 13 14
M  V30 14 1 14 15
M  V30 15 1 14 16
M  V30 16 1 11 17
M  V30 17 1 17 18
M  V30 18 2 18 19
M  V30 19 1 19 20
M  V30 20 1 6 21
M  V30 21 2 21 22
M  V30 22 1 22 23
M  V30 23 1 23 24
M  V30 24 1 22 3
M  V30 25 2 20 7
M  V30 26 1 19 10
M  V30 27 1 1 25
M  V30 28 1 1 26
M  V30 29 1 1 27
M  V30 30 1 4 28
M  V30 31 1 5 29
M  V30 32 1 8 30
M  V30 33 1 14 31
M  V30 34 1 15 32
M  V30 35 1 15 33
M  V30 36 1 15 34
M  V30 37 1 16 35
M  V30 38 1 16 36
M  V30 39 1 16 37
M  V30 40 1 20 38
M  V30 41 1 21 39
M  V30 42 1 24 40
M  V30 43 1 24 41
M  V30 44 1 24 42
M  V30 END BOND
M  V30 END CTAB
M  END
>  <Dataset>  (265) 
ChEMBL_Kinases

>  <Ligand_Instance>  (265) 
nan

>  <PDB_ID>  (265) 
nan

>  <Standardized_SMILES>  (265) 
COc1ccc(-c2cnc3c(C#CC(C)C)snc3c2)cc1OC

>  <Name>  (265) 
nan

>  <Pocket>  (265) 
nan

>  <ATP_Site>  (265) 
nan

>  <Peripheral>  (265) 
nan

>  <Num_H_Atoms_ProtBoundConf>  (265) 
nan

>  <Num_Resolved_Atoms>  (265) 
nan

>  <Num_Not_Resolved_Atoms>  (265) 
nan

$$$$
CHEMBL4746460
     RDKit          3D

  0  0  0  0  0  0  0  0  0  0999 V3000
M  V30 BEGIN CTAB
M  V30 COUNTS 67 71 0 0 0
M  V30 BEGIN ATOM
M  V30 1 C 4.846181 -3.298132 5.976972 0
M  V30 2 N 3.853490 -2.680267 5.098682 0
M  V30 3 C 4.093469 -1.386616 4.578606 0
M  V30 4 O 5.132075 -0.734706 4.838608 0
M  V30 5 C 3.099456 -0.829375 3.730234 0
M  V30 6 S 3.293976 0.861317 2.983392 0
M  V30 7 C 1.810620 0.875433 2.133291 0
M  V30 8 C 1.299220 1.980112 1.282511 0
M  V30 9 C 2.050840 3.106719 1.133194 0
M  V30 10 C 1.563094 4.133500 0.337040 0
M  V30 11 N 0.357431 3.984612 -0.265865 0
M  V30 12 C -0.374543 2.865204 -0.109110 0
M  V30 13 N -1.654390 2.655091 -0.721080 0
M  V30 14 C -2.638583 3.138423 0.170550 0
M  V30 15 O -2.231196 3.634837 1.272932 0
M  V30 16 C -4.121148 3.135894 -0.029978 0
M  V30 17 C -4.746017 3.120744 -1.352502 0
M  V30 18 C -4.791527 1.883963 -0.534024 0
M  V30 19 C 0.083706 1.830002 0.674688 0
M  V30 20 N 1.205334 -0.282136 2.376319 0
M  V30 21 C 1.861753 -1.115082 3.171707 0
M  V30 22 O 1.336348 -2.351297 3.500789 0
M  V30 23 C 0.115350 -2.883406 3.073492 0
M  V30 24 C 0.102891 -3.000857 1.588083 0
M  V30 25 C -1.201574 -3.576690 1.061848 0
M  V30 26 C -1.242380 -3.159976 -0.415108 0
M  V30 27 N 0.115394 -3.112749 -0.925084 0
M  V30 28 C 0.104154 -3.130427 -2.378441 0
M  V30 29 C -0.635739 -1.960964 -2.908209 0
M  V30 30 C 0.122536 -0.811494 -3.141837 0
M  V30 31 C -0.411652 0.364904 -3.635777 0
M  V30 32 C -1.771361 0.393897 -3.909797 0
M  V30 33 Cl -2.538160 1.827930 -4.535019 0
M  V30 34 C -2.549490 -0.728215 -3.689031 0
M  V30 35 Cl -4.270346 -0.745244 -4.018158 0
M  V30 36 C -1.980900 -1.883730 -3.195388 0
M  V30 37 C 0.924449 -4.182280 -0.384949 0
M  V30 38 C 1.199697 -3.911797 1.076181 0
M  V30 39 H 5.856371 -2.860246 5.817620 0
M  V30 40 H 4.911903 -4.364527 5.694952 0
M  V30 41 H 4.537530 -3.154900 7.032016 0
M  V30 42 H 2.986407 -3.211373 4.874780 0
M  V30 43 H 3.024895 3.249001 1.609120 0
M  V30 44 H 2.133924 5.050672 0.192219 0
M  V30 45 H -2.028621 2.256922 -1.611039 0
M  V30 46 H -4.656914 3.579081 0.835057 0
M  V30 47 H -4.121317 3.170473 -2.242493 0
M  V30 48 H -5.736944 3.655992 -1.446376 0
M  V30 49 H -4.090568 1.048996 -0.749580 0
M  V30 50 H -5.737401 1.534671 -0.074231 0
M  V30 51 H -0.490574 0.901871 0.822723 0
M  V30 52 H -0.725482 -2.179359 3.338667 0
M  V30 53 H -0.033643 -3.856492 3.577422 0
M  V30 54 H 0.229199 -2.017002 1.133399 0
M  V30 55 H -2.081208 -3.247730 1.618995 0
M  V30 56 H -1.120527 -4.682490 1.102388 0
M  V30 57 H -1.679026 -2.155742 -0.528635 0
M  V30 58 H -1.801050 -3.901035 -1.013706 0
M  V30 59 H 1.138781 -3.118682 -2.750926 0
M  V30 60 H -0.460002 -4.027638 -2.758348 0
M  V30 61 H 1.200727 -0.809176 -2.933103 0
M  V30 62 H 0.206594 1.234745 -3.804013 0
M  V30 63 H -2.550305 -2.795265 -3.004379 0
M  V30 64 H 0.446675 -5.174029 -0.532834 0
M  V30 65 H 1.907836 -4.231505 -0.883793 0
M  V30 66 H 1.116193 -4.902969 1.602504 0
M  V30 67 H 2.214853 -3.519621 1.276609 0
M  V30 END ATOM
M  V30 BEGIN BOND
M  V30 1 1 1 2
M  V30 2 1 2 3
M  V30 3 2 3 4
M  V30 4 1 3 5
M  V30 5 1 5 6
M  V30 6 1 6 7
M  V30 7 1 7 8
M  V30 8 2 8 9
M  V30 9 1 9 10
M  V30 10 2 10 11
M  V30 11 1 11 12
M  V30 12 1 12 13
M  V30 13 1 13 14
M  V30 14 2 14 15
M  V30 15 1 14 16
M  V30 16 1 16 17
M  V30 17 1 17 18
M  V30 18 2 12 19
M  V30 19 2 7 20
M  V30 20 1 20 21
M  V30 21 1 21 22
M  V30 22 1 22 23
M  V30 23 1 23 24
M  V30 24 1 24 25
M  V30 25 1 25 26
M  V30 26 1 26 27
M  V30 27 1 27 28
M  V30 28 1 28 29
M  V30 29 2 29 30
M  V30 30 1 30 31
M  V30 31 2 31 32
M  V30 32 1 32 33
M  V30 33 1 32 34
M  V30 34 1 34 35
M  V30 35 2 34 36
M  V30 36 1 27 37
M  V30 37 1 37 38
M  V30 38 2 21 5
M  V30 39 1 38 24
M  V30 40 1 19 8
M  V30 41 1 36 29
M  V30 42 1 18 16
M  V30 43 1 1 39
M  V30 44 1 1 40
M  V30 45 1 1 41
M  V30 46 1 2 42
M  V30 47 1 9 43
M  V30 48 1 10 44
M  V30 49 1 13 45
M  V30 50 1 16 46
M  V30 51 1 17 47
M  V30 52 1 17 48
M  V30 53 1 18 49
M  V30 54 1 18 50
M  V30 55 1 19 51
M  V30 56 1 23 52
M  V30 57 1 23 53
M  V30 58 1 24 54
M  V30 59 1 25 55
M  V30 60 1 25 56
M  V30 61 1 26 57
M  V30 62 1 26 58
M  V30 63 1 28 59
M  V30 64 1 28 60
M  V30 65 1 30 61
M  V30 66 1 31 62
M  V30 67 1 36 63
M  V30 68 1 37 64
M  V30 69 1 37 65
M  V30 70 1 38 66
M  V30 71 1 38 67
M  V30 END BOND
M  V30 END CTAB
M  END
>  <Dataset>  (266) 
ChEMBL_Kinases

>  <Ligand_Instance>  (266) 
nan

>  <PDB_ID>  (266) 
nan

>  <Standardized_SMILES>  (266) 
CNC(=O)c1sc(-c2ccnc(NC(=O)C3CC3)c2)nc1OCC1CCN(Cc2ccc(Cl)c(Cl)c2)CC1

>  <Name>  (266) 
nan

>  <Pocket>  (266) 
nan

>  <ATP_Site>  (266) 
nan

>  <Peripheral>  (266) 
nan

>  <Num_H_Atoms_ProtBoundConf>  (266) 
nan

>  <Num_Resolved_Atoms>  (266) 
nan

>  <Num_Not_Resolved_Atoms>  (266) 
nan

$$$$
CHEMBL4454199
     RDKit          3D

  0  0  0  0  0  0  0  0  0  0999 V3000
M  V30 BEGIN CTAB
M  V30 COUNTS 32 33 0 0 0
M  V30 BEGIN ATOM
M  V30 1 C -0.893993 -2.354711 3.256577 0
M  V30 2 C -0.515259 -3.420979 2.248706 0
M  V30 3 C -0.603650 -4.818206 2.784395 0
M  V30 4 N 0.737491 -3.108757 1.589771 0
M  V30 5 C 0.667990 -1.962444 0.690246 0
M  V30 6 S 0.578579 -0.253002 1.044136 0
M  V30 7 C 0.557259 0.279083 -0.719546 0
M  V30 8 C 0.478532 1.672348 -1.130919 0
M  V30 9 O 0.445908 1.909973 -2.354460 0
M  V30 10 C 0.439793 2.678872 -0.133481 0
M  V30 11 C 0.377192 4.009535 -0.314862 0
M  V30 12 C 0.339692 4.860262 0.746786 0
M  V30 13 Br 0.250240 6.759851 0.779611 0
M  V30 14 C 0.372751 4.226441 2.042916 0
M  V30 15 S 0.459695 2.399411 1.637298 0
M  V30 16 C 0.622934 -0.941363 -1.341918 0
M  V30 17 N 0.620107 -0.796199 -2.737893 0
M  V30 18 C 0.680888 -2.108711 -0.636492 0
M  V30 19 C 0.753848 -3.381071 -1.347279 0
M  V30 20 N 0.806557 -4.416993 -1.914632 0
M  V30 21 H 0.036691 -2.059099 3.815114 0
M  V30 22 H -1.670398 -2.787677 3.937276 0
M  V30 23 H -1.328851 -1.454245 2.789433 0
M  V30 24 H -1.312874 -3.338947 1.439505 0
M  V30 25 H -1.423341 -5.406694 2.282157 0
M  V30 26 H -0.838597 -4.780765 3.885907 0
M  V30 27 H 0.340098 -5.367117 2.593404 0
M  V30 28 H 1.558144 -3.705970 1.801190 0
M  V30 29 H 0.358495 4.473841 -1.306211 0
M  V30 30 H 0.349685 4.663040 3.093823 0
M  V30 31 H 0.048835 -0.282699 -3.434758 0
M  V30 32 H 0.403447 -0.531304 -3.678424 0
M  V30 END ATOM
M  V30 BEGIN BOND
M  V30 1 1 1 2
M  V30 2 1 2 3
M  V30 3 1 2 4
M  V30 4 1 4 5
M  V30 5 1 5 6
M  V30 6 1 6 7
M  V30 7 1 7 8
M  V30 8 2 8 9
M  V30 9 1 8 10
M  V30 10 2 10 11
M  V30 11 1 11 12
M  V30 12 1 12 13
M  V30 13 2 12 14
M  V30 14 1 14 15
M  V30 15 2 7 16
M  V30 16 1 16 17
M  V30 17 1 16 18
M  V30 18 1 18 19
M  V30 19 3 19 20
M  V30 20 2 18 5
M  V30 21 1 15 10
M  V30 22 1 1 21
M  V30 23 1 1 22
M  V30 24 1 1 23
M  V30 25 1 2 24
M  V30 26 1 3 25
M  V30 27 1 3 26
M  V30 28 1 3 27
M  V30 29 1 4 28
M  V30 30 1 11 29
M  V30 31 1 14 30
M  V30 32 1 17 31
M  V30 33 1 17 32
M  V30 END BOND
M  V30 END CTAB
M  END
>  <Dataset>  (267) 
ChEMBL_Kinases

>  <Ligand_Instance>  (267) 
nan

>  <PDB_ID>  (267) 
nan

>  <Standardized_SMILES>  (267) 
CC(C)Nc1sc(C(=O)c2cc(Br)cs2)c(N)c1C#N

>  <Name>  (267) 
nan

>  <Pocket>  (267) 
nan

>  <ATP_Site>  (267) 
nan

>  <Peripheral>  (267) 
nan

>  <Num_H_Atoms_ProtBoundConf>  (267) 
nan

>  <Num_Resolved_Atoms>  (267) 
nan

>  <Num_Not_Resolved_Atoms>  (267) 
nan

$$$$
CHEMBL4454171
     RDKit          3D

  0  0  0  0  0  0  0  0  0  0999 V3000
M  V30 BEGIN CTAB
M  V30 COUNTS 49 52 0 0 0
M  V30 BEGIN ATOM
M  V30 1 C 0.602231 -4.198087 4.723399 0
M  V30 2 C 1.753465 -3.779985 4.086577 0
M  V30 3 N 1.607326 -2.890910 3.060602 0
M  V30 4 C 0.390616 -2.443800 2.689280 0
M  V30 5 C 0.395624 -1.549241 1.637756 0
M  V30 6 N 1.591349 -1.126655 0.990080 0
M  V30 7 C 1.455111 -0.183460 -0.100635 0
M  V30 8 C 2.791650 0.192465 -0.710974 0 CFG=1
M  V30 9 C 2.616649 1.178342 -1.846940 0
M  V30 10 C 4.009555 1.502799 -2.371212 0
M  V30 11 C 4.772582 2.233359 -1.285790 0
M  V30 12 N 4.101074 2.130295 -0.003246 0
M  V30 13 C 3.701131 0.794601 0.307870 0
M  V30 14 N -0.838173 -1.098490 1.264344 0
M  V30 15 C -1.954188 -1.489682 1.865101 0
M  V30 16 N -3.165280 -0.934504 1.366237 0
M  V30 17 C -3.121185 0.007504 0.258656 0
M  V30 18 C -3.815296 -0.743717 -0.860721 0
M  V30 19 N -5.113299 -1.209102 -0.526119 0
M  V30 20 C -5.550371 -1.094902 0.808458 0
M  V30 21 C -4.488512 -1.224065 1.869105 0
M  V30 22 C -1.982182 -2.381760 2.916617 0
M  V30 23 C -0.752215 -2.866908 3.330924 0
M  V30 24 N -0.630252 -3.754180 4.357833 0
M  V30 25 H 0.632626 -4.911246 5.557402 0
M  V30 26 H 2.718023 -4.153357 4.403144 0
M  V30 27 H 2.470398 -1.515461 1.335560 0
M  V30 28 H 1.004138 0.783483 0.229142 0
M  V30 29 H 0.825516 -0.644920 -0.901128 0
M  V30 30 H 3.280271 -0.707101 -1.140374 0
M  V30 31 H 1.963261 0.772534 -2.627786 0
M  V30 32 H 2.167207 2.138757 -1.484927 0
M  V30 33 H 3.897389 2.134046 -3.277196 0
M  V30 34 H 4.535963 0.587850 -2.663117 0
M  V30 35 H 4.767652 3.315894 -1.562864 0
M  V30 36 H 5.815898 1.886436 -1.175041 0
M  V30 37 H 3.411549 2.869055 0.183894 0
M  V30 38 H 4.637342 0.196276 0.412594 0
M  V30 39 H 3.212635 0.831333 1.305445 0
M  V30 40 H -3.724293 0.928086 0.480530 0
M  V30 41 H -2.098203 0.247938 -0.049010 0
M  V30 42 H -3.186510 -1.672681 -1.002239 0
M  V30 43 H -3.735797 -0.218544 -1.825907 0
M  V30 44 H -5.795076 -0.717937 -1.154947 0
M  V30 45 H -6.131915 -0.133142 0.920428 0
M  V30 46 H -6.309851 -1.881614 1.006018 0
M  V30 47 H -4.697517 -0.440328 2.632080 0
M  V30 48 H -4.576239 -2.174605 2.416184 0
M  V30 49 H -2.868980 -2.698121 3.400512 0
M  V30 END ATOM
M  V30 BEGIN BOND
M  V30 1 2 1 2
M  V30 2 1 2 3
M  V30 3 2 3 4
M  V30 4 1 4 5
M  V30 5 1 5 6
M  V30 6 1 6 7
M  V30 7 1 7 8
M  V30 8 1 8 9
M  V30 9 1 9 10
M  V30 10 1 10 11
M  V30 11 1 11 12
M  V30 12 1 12 13
M  V30 13 2 5 14
M  V30 14 1 14 15
M  V30 15 1 15 16
M  V30 16 1 16 17
M  V30 17 1 17 18
M  V30 18 1 18 19
M  V30 19 1 19 20
M  V30 20 1 20 21
M  V30 21 2 15 22
M  V30 22 1 22 23
M  V30 23 2 23 24
M  V30 24 1 24 1
M  V30 25 1 23 4
M  V30 26 1 13 8
M  V30 27 1 21 16
M  V30 28 1 1 25
M  V30 29 1 2 26
M  V30 30 1 6 27
M  V30 31 1 7 28
M  V30 32 1 7 29
M  V30 33 1 8 30 CFG=3
M  V30 34 1 9 31
M  V30 35 1 9 32
M  V30 36 1 10 33
M  V30 37 1 10 34
M  V30 38 1 11 35
M  V30 39 1 11 36
M  V30 40 1 12 37
M  V30 41 1 13 38
M  V30 42 1 13 39
M  V30 43 1 17 40
M  V30 44 1 17 41
M  V30 45 1 18 42
M  V30 46 1 18 43
M  V30 47 1 19 44
M  V30 48 1 20 45
M  V30 49 1 20 46
M  V30 50 1 21 47
M  V30 51 1 21 48
M  V30 52 1 22 49
M  V30 END BOND
M  V30 END CTAB
M  END
>  <Dataset>  (268) 
ChEMBL_Kinases

>  <Ligand_Instance>  (268) 
nan

>  <PDB_ID>  (268) 
nan

>  <Standardized_SMILES>  (268) 
c1cnc2c(NC[C@H]3CCCNC3)nc(N3CCNCC3)cc2n1

>  <Name>  (268) 
nan

>  <Pocket>  (268) 
nan

>  <ATP_Site>  (268) 
nan

>  <Peripheral>  (268) 
nan

>  <Num_H_Atoms_ProtBoundConf>  (268) 
nan

>  <Num_Resolved_Atoms>  (268) 
nan

>  <Num_Not_Resolved_Atoms>  (268) 
nan

$$$$
CHEMBL4746543
     RDKit          3D

  0  0  0  0  0  0  0  0  0  0999 V3000
M  V30 BEGIN CTAB
M  V30 COUNTS 130 136 0 0 0
M  V30 BEGIN ATOM
M  V30 1 C 4.305025 1.185988 0.415758 0
M  V30 2 C 5.088361 0.578199 -0.727004 0
M  V30 3 C 6.270924 -0.140893 -0.015973 0
M  V30 4 C 5.723238 1.644052 -1.519638 0
M  V30 5 C 7.038860 2.110433 -1.385527 0
M  V30 6 C 7.325325 3.108461 -2.293427 0
M  V30 7 N 6.190296 3.242642 -2.970304 0
M  V30 8 N 6.024065 4.118268 -3.965967 0
M  V30 9 C 4.800791 4.144809 -4.572518 0
M  V30 10 N 3.824962 3.335030 -4.185011 0
M  V30 11 C 4.010828 2.464079 -3.184477 0
M  V30 12 N 2.918338 1.627750 -2.810483 0
M  V30 13 C 1.639691 1.654049 -3.474470 0 CFG=1
M  V30 14 C 0.996749 3.040445 -3.393041 0
M  V30 15 C -0.458479 3.008930 -3.831394 0
M  V30 16 C -0.606627 1.995434 -4.894931 0 CFG=1
M  V30 17 N -1.682357 2.079380 -5.798337 0
M  V30 18 C -1.620979 0.994652 -6.728928 0
M  V30 19 C -2.876574 0.218325 -6.929724 0
M  V30 20 N -3.502165 0.115352 -5.629465 0
M  V30 21 C -3.485561 -1.098645 -4.898871 0
M  V30 22 O -2.845672 -2.009166 -5.490815 0
M  V30 23 C -4.107507 -1.398632 -3.587959 0
M  V30 24 C -3.443316 -2.573344 -2.907305 0
M  V30 25 C -4.066649 -2.906386 -1.609961 0
M  V30 26 O -5.164125 -2.436550 -1.221658 0
M  V30 27 N -3.368682 -3.814400 -0.761424 0
M  V30 28 C -3.890887 -4.226528 0.521823 0
M  V30 29 C -2.961724 -5.149168 1.282554 0
M  V30 30 O -3.571111 -5.511206 2.477322 0
M  V30 31 C -2.845476 -6.321611 3.279274 0
M  V30 32 C -1.615622 -5.761412 3.931941 0
M  V30 33 O -1.945247 -4.706905 4.753089 0
M  V30 34 C -0.811922 -4.264759 5.471875 0
M  V30 35 C -1.283538 -3.161502 6.446126 0
M  V30 36 O -0.290857 -2.656748 7.238283 0
M  V30 37 C -0.689221 -1.769142 8.185941 0
M  V30 38 C -1.234567 -0.451917 7.818935 0
M  V30 39 O -2.329394 -0.531698 7.019082 0
M  V30 40 C -2.974668 0.678648 6.741203 0
M  V30 41 C -3.983203 0.336775 5.618437 0
M  V30 42 N -3.181204 -0.135473 4.476962 0
M  V30 43 C -2.489357 0.881464 3.760237 0
M  V30 44 C -2.654130 2.248226 4.009726 0
M  V30 45 C -2.053305 3.254894 3.310735 0
M  V30 46 C -1.209486 2.950618 2.268419 0
M  V30 47 C -1.000976 1.626089 1.967995 0
M  V30 48 C -1.626547 0.665813 2.698559 0
M  V30 49 C -1.162277 -0.618480 2.134339 0
M  V30 50 O -1.479342 -1.765726 2.496537 0
M  V30 51 N -0.253824 -0.367318 1.061527 0
M  V30 52 C 0.462416 -1.271014 0.234823 0
M  V30 53 C -0.430963 -2.200390 -0.573298 0
M  V30 54 C 0.383966 -2.920145 -1.593917 0
M  V30 55 C 1.737640 -3.328510 -1.088130 0
M  V30 56 O 2.485131 -3.960007 -1.861254 0
M  V30 57 N 2.214861 -3.035591 0.223368 0
M  V30 58 C 1.403694 -2.146230 0.988085 0
M  V30 59 O 1.527635 -2.150355 2.252895 0
M  V30 60 C -0.153693 1.060214 0.956441 0
M  V30 61 O 0.553123 1.680354 0.122514 0
M  V30 62 C -4.029139 1.432589 -5.347009 0
M  V30 63 C -2.953438 2.485837 -5.343251 0
M  V30 64 C 0.693949 2.064510 -5.714336 0
M  V30 65 C 1.779700 1.313872 -4.940973 0
M  V30 66 C 5.225694 2.406874 -2.551497 0
M  V30 67 H 3.222081 1.157030 0.298862 0
M  V30 68 H 4.509181 0.665595 1.393512 0
M  V30 69 H 4.666888 2.236350 0.601578 0
M  V30 70 H 4.570990 -0.201001 -1.283949 0
M  V30 71 H 5.794996 -0.959765 0.560536 0
M  V30 72 H 6.633380 0.604309 0.731895 0
M  V30 73 H 7.032895 -0.459446 -0.726152 0
M  V30 74 H 7.763409 1.736784 -0.651477 0
M  V30 75 H 8.281978 3.606641 -2.361102 0
M  V30 76 H 4.655345 4.854298 -5.385906 0
M  V30 77 H 2.893530 0.935768 -2.048016 0
M  V30 78 H 0.968884 0.910789 -2.968512 0
M  V30 79 H 1.059238 3.298011 -2.293622 0
M  V30 80 H 1.576738 3.798172 -3.904644 0
M  V30 81 H -0.679837 4.037633 -4.235901 0
M  V30 82 H -1.061208 2.879018 -2.930586 0
M  V30 83 H -0.593121 0.962559 -4.471990 0
M  V30 84 H -0.858508 0.270045 -6.370985 0
M  V30 85 H -1.315922 1.379724 -7.746569 0
M  V30 86 H -2.591924 -0.830868 -7.225885 0
M  V30 87 H -3.544586 0.655084 -7.704815 0
M  V30 88 H -4.083463 -0.535323 -2.891484 0
M  V30 89 H -5.189352 -1.669322 -3.714146 0
M  V30 90 H -2.356603 -2.471426 -2.889466 0
M  V30 91 H -3.655761 -3.466685 -3.574431 0
M  V30 92 H -2.451956 -4.205687 -1.068501 0
M  V30 93 H -4.083144 -3.330111 1.117578 0
M  V30 94 H -4.873312 -4.764149 0.438378 0
M  V30 95 H -2.028177 -4.587392 1.561744 0
M  V30 96 H -2.645353 -6.018344 0.688897 0
M  V30 97 H -2.508106 -7.260892 2.747279 0
M  V30 98 H -3.492619 -6.721869 4.111735 0
M  V30 99 H -1.152276 -6.561407 4.543047 0
M  V30 100 H -0.855522 -5.456938 3.173893 0
M  V30 101 H 0.004104 -3.929653 4.831302 0
M  V30 102 H -0.510691 -5.113802 6.119379 0
M  V30 103 H -2.147718 -3.589393 6.953238 0
M  V30 104 H -1.674290 -2.300498 5.819521 0
M  V30 105 H 0.200643 -1.637651 8.884402 0
M  V30 106 H -1.418461 -2.319945 8.847238 0
M  V30 107 H -0.466929 0.277673 7.464625 0
M  V30 108 H -1.594358 0.026710 8.785229 0
M  V30 109 H -3.564142 0.945991 7.636015 0
M  V30 110 H -2.295841 1.476130 6.496329 0
M  V30 111 H -4.644352 -0.486523 5.897941 0
M  V30 112 H -4.577335 1.194462 5.303395 0
M  V30 113 H -3.033141 -1.085975 4.105175 0
M  V30 114 H -3.294073 2.615246 4.780980 0
M  V30 115 H -2.200395 4.311701 3.526475 0
M  V30 116 H -0.727276 3.726988 1.706812 0
M  V30 117 H 1.088942 -0.748515 -0.514161 0
M  V30 118 H -0.916987 -2.856322 0.156879 0
M  V30 119 H -1.128052 -1.509145 -1.111429 0
M  V30 120 H 0.463750 -2.399531 -2.555710 0
M  V30 121 H -0.119450 -3.889681 -1.821272 0
M  V30 122 H 3.107670 -3.454444 0.592958 0
M  V30 123 H -4.799522 1.649284 -6.109452 0
M  V30 124 H -4.575956 1.371462 -4.386637 0
M  V30 125 H -2.935393 2.898101 -4.314700 0
M  V30 126 H -3.292178 3.318218 -5.995732 0
M  V30 127 H 0.996279 3.128226 -5.724675 0
M  V30 128 H 0.586748 1.648105 -6.723391 0
M  V30 129 H 2.797336 1.564693 -5.265954 0
M  V30 130 H 1.678094 0.216760 -5.108874 0
M  V30 END ATOM
M  V30 BEGIN BOND
M  V30 1 1 1 2
M  V30 2 1 2 3
M  V30 3 1 2 4
M  V30 4 1 4 5
M  V30 5 2 5 6
M  V30 6 1 6 7
M  V30 7 1 7 8
M  V30 8 2 8 9
M  V30 9 1 9 10
M  V30 10 2 10 11
M  V30 11 1 11 12
M  V30 12 1 12 13
M  V30 13 1 13 14
M  V30 14 1 14 15
M  V30 15 1 15 16
M  V30 16 1 16 17
M  V30 17 1 17 18
M  V30 18 1 18 19
M  V30 19 1 19 20
M  V30 20 1 20 21
M  V30 21 2 21 22
M  V30 22 1 21 23
M  V30 23 1 23 24
M  V30 24 1 24 25
M  V30 25 2 25 26
M  V30 26 1 25 27
M  V30 27 1 27 28
M  V30 28 1 28 29
M  V30 29 1 29 30
M  V30 30 1 30 31
M  V30 31 1 31 32
M  V30 32 1 32 33
M  V30 33 1 33 34
M  V30 34 1 34 35
M  V30 35 1 35 36
M  V30 36 1 36 37
M  V30 37 1 37 38
M  V30 38 1 38 39
M  V30 39 1 39 40
M  V30 40 1 40 41
M  V30 41 1 41 42
M  V30 42 1 42 43
M  V30 43 2 43 44
M  V30 44 1 44 45
M  V30 45 2 45 46
M  V30 46 1 46 47
M  V30 47 2 47 48
M  V30 48 1 48 49
M  V30 49 2 49 50
M  V30 50 1 49 51
M  V30 51 1 51 52
M  V30 52 1 52 53
M  V30 53 1 53 54
M  V30 54 1 54 55
M  V30 55 2 55 56
M  V30 56 1 55 57
M  V30 57 1 57 58
M  V30 58 2 58 59
M  V30 59 1 51 60
M  V30 60 2 60 61
M  V30 61 1 20 62
M  V30 62 1 62 63
M  V30 63 1 16 64
M  V30 64 1 64 65
M  V30 65 1 11 66
M  V30 66 2 66 4
M  V30 67 1 66 7
M  V30 68 1 65 13
M  V30 69 1 63 17
M  V30 70 1 48 43
M  V30 71 1 58 52
M  V30 72 1 60 47
M  V30 73 1 1 67
M  V30 74 1 1 68
M  V30 75 1 1 69
M  V30 76 1 2 70
M  V30 77 1 3 71
M  V30 78 1 3 72
M  V30 79 1 3 73
M  V30 80 1 5 74
M  V30 81 1 6 75
M  V30 82 1 9 76
M  V30 83 1 12 77
M  V30 84 1 13 78 CFG=1
M  V30 85 1 14 79
M  V30 86 1 14 80
M  V30 87 1 15 81
M  V30 88 1 15 82
M  V30 89 1 16 83 CFG=1
M  V30 90 1 18 84
M  V30 91 1 18 85
M  V30 92 1 19 86
M  V30 93 1 19 87
M  V30 94 1 23 88
M  V30 95 1 23 89
M  V30 96 1 24 90
M  V30 97 1 24 91
M  V30 98 1 27 92
M  V30 99 1 28 93
M  V30 100 1 28 94
M  V30 101 1 29 95
M  V30 102 1 29 96
M  V30 103 1 31 97
M  V30 104 1 31 98
M  V30 105 1 32 99
M  V30 106 1 32 100
M  V30 107 1 34 101
M  V30 108 1 34 102
M  V30 109 1 35 103
M  V30 110 1 35 104
M  V30 111 1 37 105
M  V30 112 1 37 106
M  V30 113 1 38 107
M  V30 114 1 38 108
M  V30 115 1 40 109
M  V30 116 1 40 110
M  V30 117 1 41 111
M  V30 118 1 41 112
M  V30 119 1 42 113
M  V30 120 1 44 114
M  V30 121 1 45 115
M  V30 122 1 46 116
M  V30 123 1 52 117
M  V30 124 1 53 118
M  V30 125 1 53 119
M  V30 126 1 54 120
M  V30 127 1 54 121
M  V30 128 1 57 122
M  V30 129 1 62 123
M  V30 130 1 62 124
M  V30 131 1 63 125
M  V30 132 1 63 126
M  V30 133 1 64 127
M  V30 134 1 64 128
M  V30 135 1 65 129
M  V30 136 1 65 130
M  V30 END BOND
M  V30 END CTAB
M  END
>  <Dataset>  (269) 
ChEMBL_Kinases

>  <Ligand_Instance>  (269) 
nan

>  <PDB_ID>  (269) 
nan

>  <Standardized_SMILES>  (269) 
CC(C)c1ccn2ncnc(N[C@H]3CC[C@@H](N4CCN(C(=O)CCC(=O)NCCOCCOCCOCCOCCNc5cccc6c5C(=O)N(C5CCC(=O)NC5=O)C6=O)CC4)CC3)c12

>  <Name>  (269) 
nan

>  <Pocket>  (269) 
nan

>  <ATP_Site>  (269) 
nan

>  <Peripheral>  (269) 
nan

>  <Num_H_Atoms_ProtBoundConf>  (269) 
nan

>  <Num_Resolved_Atoms>  (269) 
nan

>  <Num_Not_Resolved_Atoms>  (269) 
nan

$$$$
CHEMBL4746619
     RDKit          3D

  0  0  0  0  0  0  0  0  0  0999 V3000
M  V30 BEGIN CTAB
M  V30 COUNTS 60 64 0 0 0
M  V30 BEGIN ATOM
M  V30 1 C -5.811679 0.146081 2.560390 0
M  V30 2 C -6.859524 0.730578 1.996976 0
M  V30 3 C -6.453231 0.106494 0.764066 0
M  V30 4 O -5.426348 -0.583501 0.885837 0
M  V30 5 N -7.123274 0.235704 -0.487104 0
M  V30 6 C -6.669571 -0.416709 -1.703374 0
M  V30 7 C -5.193033 -0.625379 -1.894123 0
M  V30 8 C -4.349055 0.486142 -1.872807 0
M  V30 9 C -2.981289 0.333491 -2.045139 0
M  V30 10 C -2.438524 -0.939827 -2.242012 0
M  V30 11 C -0.992998 -1.030709 -2.418347 0
M  V30 12 C -0.375050 0.038536 -3.039544 0
M  V30 13 C 1.004209 0.084019 -3.272681 0
M  V30 14 C 1.800314 -0.991172 -2.864525 0
M  V30 15 C 3.239701 -0.926127 -3.119143 0 CFG=2
M  V30 16 C 3.819761 -2.016678 -3.944043 0
M  V30 17 C 4.044088 -0.789749 -1.877175 0
M  V30 18 O 4.932555 -1.567291 -1.427155 0
M  V30 19 N 3.774608 0.368521 -1.097858 0
M  V30 20 C 4.427776 0.704380 0.132390 0
M  V30 21 C 4.260336 1.793181 0.985732 0
M  V30 22 C 5.134302 1.654849 2.044812 0
M  V30 23 C 5.180350 2.680698 3.126904 0
M  V30 24 C 4.682853 4.040194 2.895026 0
M  V30 25 C 3.788283 3.084114 3.626142 0
M  V30 26 N 5.804810 0.521568 1.836218 0
M  V30 27 N 5.402931 -0.053536 0.714240 0
M  V30 28 C 1.161456 -2.037579 -2.251188 0
M  V30 29 C -0.209120 -2.093381 -2.014437 0
M  V30 30 C -3.318356 -2.017128 -2.255662 0
M  V30 31 N -4.643819 -1.839453 -2.085412 0
M  V30 32 C -7.504686 -0.168015 -2.926416 0
M  V30 33 C -7.556687 -1.504340 -2.196988 0
M  V30 34 H -5.187848 -0.052473 3.441629 0
M  V30 35 H -5.096329 -0.146917 3.332186 0
M  V30 36 H -7.548355 1.363362 2.534773 0
M  V30 37 H -7.968524 0.837192 -0.461535 0
M  V30 38 H -4.793129 1.467681 -1.718204 0
M  V30 39 H -2.412198 1.262442 -2.011875 0
M  V30 40 H -0.943058 0.895347 -3.375169 0
M  V30 41 H 1.422040 0.960864 -3.768679 0
M  V30 42 H 3.419051 0.044754 -3.671461 0
M  V30 43 H 3.089936 -2.626537 -4.504190 0
M  V30 44 H 4.588346 -1.695644 -4.678093 0
M  V30 45 H 4.354161 -2.759735 -3.285035 0
M  V30 46 H 3.055061 1.071365 -1.388567 0
M  V30 47 H 3.539570 2.548414 0.749489 0
M  V30 48 H 5.896283 2.554137 3.973817 0
M  V30 49 H 5.130519 4.907967 3.423653 0
M  V30 50 H 4.360302 4.321995 1.871072 0
M  V30 51 H 2.900817 2.655321 3.115122 0
M  V30 52 H 3.617695 3.243991 4.697391 0
M  V30 53 H 6.535184 0.186756 2.503271 0
M  V30 54 H 1.780063 -2.848697 -1.946184 0
M  V30 55 H -0.705624 -2.916845 -1.532365 0
M  V30 56 H -2.876802 -2.993465 -2.409725 0
M  V30 57 H -8.339634 0.547153 -2.825335 0
M  V30 58 H -7.048595 -0.163739 -3.940607 0
M  V30 59 H -7.189349 -2.390807 -2.730318 0
M  V30 60 H -8.543184 -1.673523 -1.682673 0
M  V30 END ATOM
M  V30 BEGIN BOND
M  V30 1 2 1 2
M  V30 2 1 2 3
M  V30 3 2 3 4
M  V30 4 1 3 5
M  V30 5 1 5 6
M  V30 6 1 6 7
M  V30 7 2 7 8
M  V30 8 1 8 9
M  V30 9 2 9 10
M  V30 10 1 10 11
M  V30 11 2 11 12
M  V30 12 1 12 13
M  V30 13 2 13 14
M  V30 14 1 14 15
M  V30 15 1 15 16
M  V30 16 1 15 17
M  V30 17 2 17 18
M  V30 18 1 17 19
M  V30 19 1 19 20
M  V30 20 1 20 21
M  V30 21 2 21 22
M  V30 22 1 22 23
M  V30 23 1 23 24
M  V30 24 1 24 25
M  V30 25 1 22 26
M  V30 26 1 26 27
M  V30 27 1 14 28
M  V30 28 2 28 29
M  V30 29 1 10 30
M  V30 30 2 30 31
M  V30 31 1 6 32
M  V30 32 1 32 33
M  V30 33 1 33 6
M  V30 34 1 31 7
M  V30 35 1 29 11
M  V30 36 2 27 20
M  V30 37 1 25 23
M  V30 38 1 1 34
M  V30 39 1 1 35
M  V30 40 1 2 36
M  V30 41 1 5 37
M  V30 42 1 8 38
M  V30 43 1 9 39
M  V30 44 1 12 40
M  V30 45 1 13 41
M  V30 46 1 15 42 CFG=3
M  V30 47 1 16 43
M  V30 48 1 16 44
M  V30 49 1 16 45
M  V30 50 1 19 46
M  V30 51 1 21 47
M  V30 52 1 23 48
M  V30 53 1 24 49
M  V30 54 1 24 50
M  V30 55 1 25 51
M  V30 56 1 25 52
M  V30 57 1 26 53
M  V30 58 1 28 54
M  V30 59 1 29 55
M  V30 60 1 30 56
M  V30 61 1 32 57
M  V30 62 1 32 58
M  V30 63 1 33 59
M  V30 64 1 33 60
M  V30 END BOND
M  V30 END CTAB
M  END
>  <Dataset>  (270) 
ChEMBL_Kinases

>  <Ligand_Instance>  (270) 
nan

>  <PDB_ID>  (270) 
nan

>  <Standardized_SMILES>  (270) 
C=CC(=O)NC1(c2ccc(-c3ccc([C@H](C)C(=O)Nc4cc(C5CC5)[nH]n4)cc3)cn2)CC1

>  <Name>  (270) 
nan

>  <Pocket>  (270) 
nan

>  <ATP_Site>  (270) 
nan

>  <Peripheral>  (270) 
nan

>  <Num_H_Atoms_ProtBoundConf>  (270) 
nan

>  <Num_Resolved_Atoms>  (270) 
nan

>  <Num_Not_Resolved_Atoms>  (270) 
nan

$$$$
CHEMBL4746622
     RDKit          3D

  0  0  0  0  0  0  0  0  0  0999 V3000
M  V30 BEGIN CTAB
M  V30 COUNTS 36 38 0 0 0
M  V30 BEGIN ATOM
M  V30 1 C -0.513015 -4.211983 2.955817 0
M  V30 2 C 0.653758 -4.432429 2.026264 0
M  V30 3 C 1.956790 -4.509704 2.762611 0
M  V30 4 O 0.431030 -5.611443 1.325089 0
M  V30 5 C 0.781989 -3.278893 1.101802 0
M  V30 6 C 0.872848 -2.328321 0.359980 0
M  V30 7 C 0.957466 -1.196175 -0.524047 0
M  V30 8 C 1.624435 -1.277067 -1.729834 0
M  V30 9 C 1.699678 -0.168018 -2.581248 0
M  V30 10 C 1.104909 1.031866 -2.227708 0
M  V30 11 N 1.159838 2.129961 -3.026014 0
M  V30 12 C 0.576228 3.288215 -2.659257 0
M  V30 13 C -0.076704 3.297763 -1.435630 0
M  V30 14 C -0.167360 2.214365 -0.579806 0
M  V30 15 C -0.913628 2.437111 0.651752 0
M  V30 16 C -0.646352 3.555734 1.448221 0
M  V30 17 N -1.452256 3.553598 2.510737 0
M  V30 18 N -2.233429 2.489436 2.448964 0
M  V30 19 C -1.924964 1.802341 1.335009 0
M  V30 20 C 0.453527 1.062326 -1.019553 0
M  V30 21 C 0.359689 -0.010112 -0.155933 0
M  V30 22 H -1.048371 -5.157901 3.122774 0
M  V30 23 H -1.224421 -3.529398 2.456748 0
M  V30 24 H -0.185820 -3.698139 3.874694 0
M  V30 25 H 2.003476 -3.838623 3.638759 0
M  V30 26 H 2.102078 -5.547345 3.131784 0
M  V30 27 H 2.791519 -4.216087 2.073884 0
M  V30 28 H 0.048202 -5.383155 0.434199 0
M  V30 29 H 2.109955 -2.202151 -2.053425 0
M  V30 30 H 2.233605 -0.245523 -3.538189 0
M  V30 31 H 0.617688 4.163919 -3.291036 0
M  V30 32 H -0.529483 4.249074 -1.184486 0
M  V30 33 H 0.067198 4.358372 1.330395 0
M  V30 34 H -2.979202 2.152732 3.088251 0
M  V30 35 H -2.349880 0.887231 0.946978 0
M  V30 36 H -0.147358 0.041552 0.776438 0
M  V30 END ATOM
M  V30 BEGIN BOND
M  V30 1 1 1 2
M  V30 2 1 2 3
M  V30 3 1 2 4
M  V30 4 1 2 5
M  V30 5 3 5 6
M  V30 6 1 6 7
M  V30 7 2 7 8
M  V30 8 1 8 9
M  V30 9 2 9 10
M  V30 10 1 10 11
M  V30 11 2 11 12
M  V30 12 1 12 13
M  V30 13 2 13 14
M  V30 14 1 14 15
M  V30 15 1 15 16
M  V30 16 2 16 17
M  V30 17 1 17 18
M  V30 18 1 18 19
M  V30 19 1 14 20
M  V30 20 2 20 21
M  V30 21 1 21 7
M  V30 22 1 20 10
M  V30 23 2 19 15
M  V30 24 1 1 22
M  V30 25 1 1 23
M  V30 26 1 1 24
M  V30 27 1 3 25
M  V30 28 1 3 26
M  V30 29 1 3 27
M  V30 30 1 4 28
M  V30 31 1 8 29
M  V30 32 1 9 30
M  V30 33 1 12 31
M  V30 34 1 13 32
M  V30 35 1 16 33
M  V30 36 1 18 34
M  V30 37 1 19 35
M  V30 38 1 21 36
M  V30 END BOND
M  V30 END CTAB
M  END
>  <Dataset>  (271) 
ChEMBL_Kinases

>  <Ligand_Instance>  (271) 
nan

>  <PDB_ID>  (271) 
nan

>  <Standardized_SMILES>  (271) 
CC(C)(O)C#Cc1ccc2nccc(-c3cn[nH]c3)c2c1

>  <Name>  (271) 
nan

>  <Pocket>  (271) 
nan

>  <ATP_Site>  (271) 
nan

>  <Peripheral>  (271) 
nan

>  <Num_H_Atoms_ProtBoundConf>  (271) 
nan

>  <Num_Resolved_Atoms>  (271) 
nan

>  <Num_Not_Resolved_Atoms>  (271) 
nan

$$$$
CHEMBL4746642
     RDKit          3D

  0  0  0  0  0  0  0  0  0  0999 V3000
M  V30 BEGIN CTAB
M  V30 COUNTS 46 49 0 0 0
M  V30 BEGIN ATOM
M  V30 1 C 3.464333 -3.592761 2.569218 0
M  V30 2 S 5.120701 -3.021018 2.933858 0
M  V30 3 O 5.424785 -3.449834 4.337650 0
M  V30 4 O 6.127788 -3.549977 1.963518 0
M  V30 5 N 5.085959 -1.300569 2.859341 0
M  V30 6 C 4.747851 -0.633492 1.648934 0
M  V30 7 C 5.211704 -0.926892 0.378702 0
M  V30 8 C 4.785909 -0.180631 -0.703281 0
M  V30 9 C 3.888402 0.874034 -0.540809 0
M  V30 10 C 3.410208 1.189489 0.707490 0
M  V30 11 C 2.459877 2.305122 0.884570 0
M  V30 12 C 1.042921 1.842076 0.764164 0
M  V30 13 O 0.682224 0.658808 0.540925 0
M  V30 14 N 0.079636 2.870506 0.925119 0
M  V30 15 C -1.283288 2.330608 0.792216 0
M  V30 16 N -1.759194 1.297417 0.593075 0
M  V30 17 C -2.994809 0.900254 0.486058 0
M  V30 18 C -3.312852 -0.495994 0.262390 0
M  V30 19 C -2.460726 -1.597143 0.435142 0
M  V30 20 N -3.022145 -2.763425 0.118396 0
M  V30 21 C -4.266373 -2.525313 -0.281824 0
M  V30 22 N -5.252511 -3.322324 -0.717757 0
M  V30 23 C -6.441935 -2.852465 -1.090301 0
M  V30 24 C -6.667314 -1.471522 -1.022988 0
M  V30 25 Br -8.386734 -0.858028 -1.569877 0
M  V30 26 C -5.644545 -0.667522 -0.572738 0
M  V30 27 C -4.423828 -1.162388 -0.190064 0
M  V30 28 C -3.885953 1.946233 0.649561 0
M  V30 29 S -2.746103 3.424754 0.946962 0
M  V30 30 C 3.857564 0.422090 1.765791 0
M  V30 31 H 3.246617 -4.531172 3.133378 0
M  V30 32 H 3.362525 -3.780124 1.483953 0
M  V30 33 H 2.740472 -2.847621 2.948635 0
M  V30 34 H 5.307085 -0.699086 3.682281 0
M  V30 35 H 5.904310 -1.756428 0.327086 0
M  V30 36 H 5.182732 -0.455230 -1.678724 0
M  V30 37 H 3.585743 1.431450 -1.436988 0
M  V30 38 H 2.630786 3.141985 0.176111 0
M  V30 39 H 2.602672 2.699780 1.916836 0
M  V30 40 H 0.186215 3.888387 1.111853 0
M  V30 41 H -1.417951 -1.547387 0.796430 0
M  V30 42 H -2.577668 -3.704582 0.169902 0
M  V30 43 H -7.134006 -3.600510 -1.416101 0
M  V30 44 H -5.912550 0.355376 -0.576914 0
M  V30 45 H -5.113250 1.961779 0.638980 0
M  V30 46 H 3.453007 0.706820 2.737744 0
M  V30 END ATOM
M  V30 BEGIN BOND
M  V30 1 1 1 2
M  V30 2 2 2 3
M  V30 3 2 2 4
M  V30 4 1 2 5
M  V30 5 1 5 6
M  V30 6 2 6 7
M  V30 7 1 7 8
M  V30 8 2 8 9
M  V30 9 1 9 10
M  V30 10 1 10 11
M  V30 11 1 11 12
M  V30 12 2 12 13
M  V30 13 1 12 14
M  V30 14 1 14 15
M  V30 15 2 15 16
M  V30 16 1 16 17
M  V30 17 1 17 18
M  V30 18 2 18 19
M  V30 19 1 19 20
M  V30 20 1 20 21
M  V30 21 2 21 22
M  V30 22 1 22 23
M  V30 23 2 23 24
M  V30 24 1 24 25
M  V30 25 1 24 26
M  V30 26 2 26 27
M  V30 27 2 17 28
M  V30 28 1 28 29
M  V30 29 2 10 30
M  V30 30 1 30 6
M  V30 31 1 29 15
M  V30 32 1 27 18
M  V30 33 1 27 21
M  V30 34 1 1 31
M  V30 35 1 1 32
M  V30 36 1 1 33
M  V30 37 1 5 34
M  V30 38 1 7 35
M  V30 39 1 8 36
M  V30 40 1 9 37
M  V30 41 1 11 38
M  V30 42 1 11 39
M  V30 43 1 14 40
M  V30 44 1 19 41
M  V30 45 1 20 42
M  V30 46 1 23 43
M  V30 47 1 26 44
M  V30 48 1 28 45
M  V30 49 1 30 46
M  V30 END BOND
M  V30 END CTAB
M  END
>  <Dataset>  (272) 
ChEMBL_Kinases

>  <Ligand_Instance>  (272) 
nan

>  <PDB_ID>  (272) 
nan

>  <Standardized_SMILES>  (272) 
CS(=O)(=O)Nc1cccc(CC(=O)Nc2nc(-c3c[nH]c4ncc(Br)cc34)cs2)c1

>  <Name>  (272) 
nan

>  <Pocket>  (272) 
nan

>  <ATP_Site>  (272) 
nan

>  <Peripheral>  (272) 
nan

>  <Num_H_Atoms_ProtBoundConf>  (272) 
nan

>  <Num_Resolved_Atoms>  (272) 
nan

>  <Num_Not_Resolved_Atoms>  (272) 
nan

$$$$
CHEMBL4746375
     RDKit          3D

  0  0  0  0  0  0  0  0  0  0999 V3000
M  V30 BEGIN CTAB
M  V30 COUNTS 81 85 0 0 0
M  V30 BEGIN ATOM
M  V30 1 N 5.273577 -1.496689 4.070750 0
M  V30 2 C 6.072685 -0.666718 3.268159 0
M  V30 3 C 6.049399 -0.761423 1.894601 0
M  V30 4 C 5.289529 -1.626365 0.992706 0
M  V30 5 O 4.511924 -2.519715 1.392538 0
M  V30 6 N 5.453719 -1.425323 -0.393466 0
M  V30 7 C 4.840799 -2.109009 -1.499193 0
M  V30 8 C 3.405588 -1.691641 -1.660764 0
M  V30 9 C 3.114538 -0.537171 -2.350661 0
M  V30 10 C 1.798067 -0.103472 -2.539982 0
M  V30 11 C 0.763174 -0.851086 -2.021243 0
M  V30 12 C -0.557740 -0.288735 -2.263124 0
M  V30 13 O -0.639634 0.900056 -2.595691 0
M  V30 14 N -1.810143 -0.909597 -2.179052 0
M  V30 15 C -3.199553 -0.893325 -2.264705 0 CFG=1
M  V30 16 C -3.923482 0.303948 -2.799108 0
M  V30 17 C -3.793790 1.590337 -2.069323 0
M  V30 18 C -4.241070 1.551271 -0.628678 0
M  V30 19 C -5.651181 1.180075 -0.384512 0
M  V30 20 C -6.597454 2.304901 -0.159431 0
M  V30 21 C -6.205339 3.212554 0.973687 0
M  V30 22 C -4.721519 3.212831 1.228070 0
M  V30 23 C -3.904371 2.833863 0.035976 0
M  V30 24 C -3.696592 -2.071034 -2.992181 0
M  V30 25 O -2.646734 -2.753349 -3.243146 0
M  V30 26 N -4.961703 -2.476998 -3.387891 0
M  V30 27 C -5.140934 -3.713157 -4.116562 0
M  V30 28 C -4.688390 -4.825656 -3.288921 0
M  V30 29 C -5.437856 -5.542522 -2.433874 0
M  V30 30 C -4.936859 -6.568816 -1.692332 0
M  V30 31 C -3.529948 -6.804341 -1.919967 0
M  V30 32 S -3.064227 -5.563572 -3.144675 0
M  V30 33 C 1.028837 -2.019671 -1.320447 0
M  V30 34 C 2.341625 -2.406455 -1.161028 0
M  V30 35 C 6.961405 0.208925 1.518693 0
M  V30 36 N 7.437299 0.782210 2.633965 0
M  V30 37 N 6.910036 0.267678 3.725139 0
M  V30 38 C 7.194390 0.657203 5.062015 0
M  V30 39 C 7.158180 -0.158803 6.165291 0
M  V30 40 C 7.457094 0.331115 7.449693 0
M  V30 41 C 7.782336 1.673550 7.503937 0
M  V30 42 C 7.842752 2.567091 6.450974 0
M  V30 43 C 7.534889 2.006905 5.216194 0
M  V30 44 H 4.694179 -2.114381 4.649020 0
M  V30 45 H 4.663782 -1.203291 4.885252 0
M  V30 46 H 6.125359 -0.661639 -0.728452 0
M  V30 47 H 4.866616 -3.224302 -1.309361 0
M  V30 48 H 5.360632 -1.969936 -2.461340 0
M  V30 49 H 3.935915 0.037772 -2.744128 0
M  V30 50 H 1.681340 0.811189 -3.093499 0
M  V30 51 H -1.578947 -1.923758 -1.885054 0
M  V30 52 H -3.579854 -0.917960 -1.185443 0
M  V30 53 H -3.765816 0.453447 -3.913227 0
M  V30 54 H -5.006172 0.054457 -2.763040 0
M  V30 55 H -4.488928 2.303379 -2.643441 0
M  V30 56 H -2.844461 2.117931 -2.082392 0
M  V30 57 H -3.578325 0.767808 -0.148410 0
M  V30 58 H -5.674574 0.571956 0.575757 0
M  V30 59 H -6.107882 0.483894 -1.124520 0
M  V30 60 H -6.702526 2.885838 -1.098314 0
M  V30 61 H -7.611879 1.841547 0.027224 0
M  V30 62 H -6.706290 2.839143 1.886002 0
M  V30 63 H -6.599359 4.235914 0.799606 0
M  V30 64 H -4.487256 2.572567 2.098919 0
M  V30 65 H -4.446908 4.250215 1.509871 0
M  V30 66 H -3.924409 3.646390 -0.751973 0
M  V30 67 H -2.850064 2.820996 0.366512 0
M  V30 68 H -5.635809 -1.761894 -3.060457 0
M  V30 69 H -6.204678 -3.830336 -4.396619 0
M  V30 70 H -4.489334 -3.676046 -5.034956 0
M  V30 71 H -6.512777 -5.343765 -2.281314 0
M  V30 72 H -5.400215 -7.233401 -0.973674 0
M  V30 73 H -2.875010 -7.558507 -1.464059 0
M  V30 74 H 0.188139 -2.557209 -0.938703 0
M  V30 75 H 2.564954 -3.328807 -0.612586 0
M  V30 76 H 7.265960 0.486357 0.511002 0
M  V30 77 H 6.882849 -1.188379 6.005847 0
M  V30 78 H 7.427562 -0.299812 8.313898 0
M  V30 79 H 8.018398 2.077379 8.489270 0
M  V30 80 H 8.103650 3.605436 6.551675 0
M  V30 81 H 7.579297 2.703002 4.383850 0
M  V30 END ATOM
M  V30 BEGIN BOND
M  V30 1 1 1 2
M  V30 2 2 2 3
M  V30 3 1 3 4
M  V30 4 2 4 5
M  V30 5 1 4 6
M  V30 6 1 6 7
M  V30 7 1 7 8
M  V30 8 2 8 9
M  V30 9 1 9 10
M  V30 10 2 10 11
M  V30 11 1 11 12
M  V30 12 2 12 13
M  V30 13 1 12 14
M  V30 14 1 14 15
M  V30 15 1 15 16
M  V30 16 1 16 17
M  V30 17 1 17 18
M  V30 18 1 18 19
M  V30 19 1 19 20
M  V30 20 1 20 21
M  V30 21 1 21 22
M  V30 22 1 22 23
M  V30 23 1 15 24
M  V30 24 2 24 25
M  V30 25 1 24 26
M  V30 26 1 26 27
M  V30 27 1 27 28
M  V30 28 2 28 29
M  V30 29 1 29 30
M  V30 30 2 30 31
M  V30 31 1 31 32
M  V30 32 1 11 33
M  V30 33 2 33 34
M  V30 34 1 3 35
M  V30 35 2 35 36
M  V30 36 1 36 37
M  V30 37 1 37 38
M  V30 38 2 38 39
M  V30 39 1 39 40
M  V30 40 2 40 41
M  V30 41 1 41 42
M  V30 42 2 42 43
M  V30 43 1 37 2
M  V30 44 1 43 38
M  V30 45 1 34 8
M  V30 46 1 23 18
M  V30 47 1 32 28
M  V30 48 1 1 44
M  V30 49 1 1 45
M  V30 50 1 6 46
M  V30 51 1 7 47
M  V30 52 1 7 48
M  V30 53 1 9 49
M  V30 54 1 10 50
M  V30 55 1 14 51
M  V30 56 1 15 52 CFG=1
M  V30 57 1 16 53
M  V30 58 1 16 54
M  V30 59 1 17 55
M  V30 60 1 17 56
M  V30 61 1 18 57
M  V30 62 1 19 58
M  V30 63 1 19 59
M  V30 64 1 20 60
M  V30 65 1 20 61
M  V30 66 1 21 62
M  V30 67 1 21 63
M  V30 68 1 22 64
M  V30 69 1 22 65
M  V30 70 1 23 66
M  V30 71 1 23 67
M  V30 72 1 26 68
M  V30 73 1 27 69
M  V30 74 1 27 70
M  V30 75 1 29 71
M  V30 76 1 30 72
M  V30 77 1 31 73
M  V30 78 1 33 74
M  V30 79 1 34 75
M  V30 80 1 35 76
M  V30 81 1 39 77
M  V30 82 1 40 78
M  V30 83 1 41 79
M  V30 84 1 42 80
M  V30 85 1 43 81
M  V30 END BOND
M  V30 END CTAB
M  END
>  <Dataset>  (273) 
ChEMBL_Kinases

>  <Ligand_Instance>  (273) 
nan

>  <PDB_ID>  (273) 
nan

>  <Standardized_SMILES>  (273) 
Nc1c(C(=O)NCc2ccc(C(=O)N[C@@H](CCC3CCCCC3)C(=O)NCc3cccs3)cc2)cnn1-c1ccccc1

>  <Name>  (273) 
nan

>  <Pocket>  (273) 
nan

>  <ATP_Site>  (273) 
nan

>  <Peripheral>  (273) 
nan

>  <Num_H_Atoms_ProtBoundConf>  (273) 
nan

>  <Num_Resolved_Atoms>  (273) 
nan

>  <Num_Not_Resolved_Atoms>  (273) 
nan

$$$$
CHEMBL4458157
     RDKit          3D

  0  0  0  0  0  0  0  0  0  0999 V3000
M  V30 BEGIN CTAB
M  V30 COUNTS 45 48 0 0 0
M  V30 BEGIN ATOM
M  V30 1 C -1.448991 -4.475457 -2.323042 0
M  V30 2 O -1.168656 -3.771530 -1.125675 0
M  V30 3 C -0.343963 -2.681042 -1.056725 0
M  V30 4 C 0.337834 -2.096720 -2.117176 0
M  V30 5 C 1.137194 -0.994933 -1.892500 0
M  V30 6 C 1.237016 -0.499962 -0.605477 0
M  V30 7 C 2.085935 0.650360 -0.436181 0
M  V30 8 C 2.806070 1.612408 -0.276967 0
M  V30 9 C 3.697545 2.768938 -0.070183 0
M  V30 10 C 5.122654 2.357407 0.102119 0
M  V30 11 O 3.437726 3.638884 -1.088047 0
M  V30 12 C 3.219460 3.513931 1.196965 0
M  V30 13 N 3.256850 4.602071 1.471036 0
M  V30 14 C 2.876027 5.296865 2.506664 0
M  V30 15 C 2.310216 4.547088 3.466299 0
M  V30 16 S 2.395132 2.781474 2.712005 0
M  V30 17 C 0.576013 -1.050205 0.479882 0
M  V30 18 C -0.226573 -2.162169 0.234133 0
M  V30 19 C -0.909927 -2.719140 1.398124 0
M  V30 20 C -0.363311 -3.714973 2.214766 0
M  V30 21 N -1.236894 -4.021591 3.211230 0
M  V30 22 C -2.334351 -3.254638 3.066006 0
M  V30 23 C -3.553350 -3.084334 3.731146 0
M  V30 24 N -4.476109 -2.198308 3.316597 0
M  V30 25 C -4.246186 -1.438777 2.231211 0
M  V30 26 N -5.302332 -0.544920 1.902568 0
M  V30 27 N -3.081360 -1.557682 1.542484 0
M  V30 28 C -2.143779 -2.453730 1.958582 0
M  V30 29 H -0.609300 -5.177075 -2.502201 0
M  V30 30 H -2.402320 -5.029092 -2.262291 0
M  V30 31 H -1.529634 -3.728398 -3.146368 0
M  V30 32 H 0.184146 -2.567882 -3.073919 0
M  V30 33 H 1.644012 -0.576771 -2.737791 0
M  V30 34 H 5.581510 2.776022 1.020649 0
M  V30 35 H 5.740205 2.622737 -0.775936 0
M  V30 36 H 5.123596 1.241049 0.240534 0
M  V30 37 H 3.885324 3.405134 -1.932124 0
M  V30 38 H 2.784249 6.243803 3.009540 0
M  V30 39 H 1.760497 4.231931 4.532938 0
M  V30 40 H 0.678115 -0.640205 1.457128 0
M  V30 41 H 0.606179 -4.189347 2.096715 0
M  V30 42 H -1.120416 -4.712639 3.965889 0
M  V30 43 H -3.717841 -3.708313 4.605387 0
M  V30 44 H -5.992861 -1.086989 1.328733 0
M  V30 45 H -5.446514 0.473717 2.143416 0
M  V30 END ATOM
M  V30 BEGIN BOND
M  V30 1 1 1 2
M  V30 2 1 2 3
M  V30 3 2 3 4
M  V30 4 1 4 5
M  V30 5 2 5 6
M  V30 6 1 6 7
M  V30 7 3 7 8
M  V30 8 1 8 9
M  V30 9 1 9 10
M  V30 10 1 9 11
M  V30 11 1 9 12
M  V30 12 2 12 13
M  V30 13 1 13 14
M  V30 14 2 14 15
M  V30 15 1 15 16
M  V30 16 1 6 17
M  V30 17 2 17 18
M  V30 18 1 18 19
M  V30 19 2 19 20
M  V30 20 1 20 21
M  V30 21 1 21 22
M  V30 22 2 22 23
M  V30 23 1 23 24
M  V30 24 2 24 25
M  V30 25 1 25 26
M  V30 26 1 25 27
M  V30 27 2 27 28
M  V30 28 1 18 3
M  V30 29 1 28 19
M  V30 30 1 16 12
M  V30 31 1 28 22
M  V30 32 1 1 29
M  V30 33 1 1 30
M  V30 34 1 1 31
M  V30 35 1 4 32
M  V30 36 1 5 33
M  V30 37 1 10 34
M  V30 38 1 10 35
M  V30 39 1 10 36
M  V30 40 1 11 37
M  V30 41 1 14 38
M  V30 42 1 15 39
M  V30 43 1 17 40
M  V30 44 1 20 41
M  V30 45 1 21 42
M  V30 46 1 23 43
M  V30 47 1 26 44
M  V30 48 1 26 45
M  V30 END BOND
M  V30 END CTAB
M  END
>  <Dataset>  (274) 
ChEMBL_Kinases

>  <Ligand_Instance>  (274) 
nan

>  <PDB_ID>  (274) 
nan

>  <Standardized_SMILES>  (274) 
COc1ccc(C#CC(C)(O)c2nccs2)cc1-c1c[nH]c2cnc(N)nc12

>  <Name>  (274) 
nan

>  <Pocket>  (274) 
nan

>  <ATP_Site>  (274) 
nan

>  <Peripheral>  (274) 
nan

>  <Num_H_Atoms_ProtBoundConf>  (274) 
nan

>  <Num_Resolved_Atoms>  (274) 
nan

>  <Num_Not_Resolved_Atoms>  (274) 
nan

$$$$
CHEMBL4743780
     RDKit          3D

  0  0  0  0  0  0  0  0  0  0999 V3000
M  V30 BEGIN CTAB
M  V30 COUNTS 55 59 0 0 0
M  V30 BEGIN ATOM
M  V30 1 C -0.363469 3.475546 4.852063 0
M  V30 2 O 0.637121 2.934881 4.036149 0
M  V30 3 C 1.827909 2.407545 4.462951 0
M  V30 4 C 2.245190 2.320373 5.789372 0
M  V30 5 C 3.462808 1.775410 6.154663 0
M  V30 6 C 4.304355 1.294357 5.148053 0
M  V30 7 C 3.910479 1.370821 3.826235 0
M  V30 8 F 4.809343 0.873172 2.950223 0
M  V30 9 C 2.679014 1.923730 3.477263 0
M  V30 10 C 2.396968 1.937054 2.036839 0
M  V30 11 C 1.754115 0.892956 1.372189 0
M  V30 12 C 1.547113 1.030500 -0.000051 0
M  V30 13 C 1.946949 2.143053 -0.718036 0
M  V30 14 C 2.583384 3.150031 0.005250 0
M  V30 15 N 2.789943 3.031191 1.329290 0
M  V30 16 C 1.566513 1.903382 -2.036300 0
M  V30 17 N 0.974814 0.704380 -2.067180 0
M  V30 18 N 0.949146 0.155581 -0.854202 0
M  V30 19 C 0.381582 -1.121406 -0.573612 0
M  V30 20 C 1.171452 -1.998909 0.148148 0
M  V30 21 C 0.647113 -3.260832 0.441590 0
M  V30 22 C -0.628158 -3.566043 -0.002542 0
M  V30 23 C -1.422881 -2.704251 -0.719963 0
M  V30 24 N -2.726546 -3.055198 -1.160381 0
M  V30 25 C -3.327051 -4.357466 -0.954784 0
M  V30 26 C -4.007653 -4.694094 -2.289388 0
M  V30 27 N -3.424172 -3.966271 -3.360610 0
M  V30 28 C -2.186626 -4.451230 -3.846623 0
M  V30 29 C -3.566722 -2.550730 -3.323081 0
M  V30 30 C -3.592694 -2.130033 -1.865319 0
M  V30 31 C -0.882563 -1.470399 -0.994337 0
M  V30 32 H -1.359856 3.212219 4.395353 0
M  V30 33 H -0.361596 3.084596 5.870561 0
M  V30 34 H -0.274779 4.585640 4.803877 0
M  V30 35 H 1.545329 2.712146 6.517030 0
M  V30 36 H 3.728897 1.737707 7.216004 0
M  V30 37 H 5.246354 0.876758 5.477670 0
M  V30 38 H 1.449620 0.035531 1.942263 0
M  V30 39 H 2.890373 4.013358 -0.568662 0
M  V30 40 H 1.766330 2.631563 -2.816283 0
M  V30 41 H 2.166563 -1.724498 0.479802 0
M  V30 42 H 1.262395 -3.947440 1.004969 0
M  V30 43 H -0.942895 -4.541110 0.265875 0
M  V30 44 H -4.118751 -4.197638 -0.164853 0
M  V30 45 H -2.650923 -5.142335 -0.634511 0
M  V30 46 H -3.809850 -5.770237 -2.467057 0
M  V30 47 H -5.090517 -4.575542 -2.200373 0
M  V30 48 H -1.722688 -5.103884 -3.069370 0
M  V30 49 H -2.228323 -4.967443 -4.824851 0
M  V30 50 H -1.491870 -3.564887 -3.930808 0
M  V30 51 H -2.667568 -2.077012 -3.767191 0
M  V30 52 H -4.425656 -2.143959 -3.900146 0
M  V30 53 H -3.370960 -1.076969 -1.710303 0
M  V30 54 H -4.662635 -2.280408 -1.536692 0
M  V30 55 H -1.388686 -0.714193 -1.538926 0
M  V30 END ATOM
M  V30 BEGIN BOND
M  V30 1 1 1 2
M  V30 2 1 2 3
M  V30 3 2 3 4
M  V30 4 1 4 5
M  V30 5 2 5 6
M  V30 6 1 6 7
M  V30 7 1 7 8
M  V30 8 2 7 9
M  V30 9 1 9 10
M  V30 10 2 10 11
M  V30 11 1 11 12
M  V30 12 2 12 13
M  V30 13 1 13 14
M  V30 14 2 14 15
M  V30 15 1 13 16
M  V30 16 2 16 17
M  V30 17 1 17 18
M  V30 18 1 18 19
M  V30 19 2 19 20
M  V30 20 1 20 21
M  V30 21 2 21 22
M  V30 22 1 22 23
M  V30 23 1 23 24
M  V30 24 1 24 25
M  V30 25 1 25 26
M  V30 26 1 26 27
M  V30 27 1 27 28
M  V30 28 1 27 29
M  V30 29 1 29 30
M  V30 30 2 23 31
M  V30 31 1 9 3
M  V30 32 1 15 10
M  V30 33 1 31 19
M  V30 34 1 18 12
M  V30 35 1 30 24
M  V30 36 1 1 32
M  V30 37 1 1 33
M  V30 38 1 1 34
M  V30 39 1 4 35
M  V30 40 1 5 36
M  V30 41 1 6 37
M  V30 42 1 11 38
M  V30 43 1 14 39
M  V30 44 1 16 40
M  V30 45 1 20 41
M  V30 46 1 21 42
M  V30 47 1 22 43
M  V30 48 1 25 44
M  V30 49 1 25 45
M  V30 50 1 26 46
M  V30 51 1 26 47
M  V30 52 1 28 48
M  V30 53 1 28 49
M  V30 54 1 28 50
M  V30 55 1 29 51
M  V30 56 1 29 52
M  V30 57 1 30 53
M  V30 58 1 30 54
M  V30 59 1 31 55
M  V30 END BOND
M  V30 END CTAB
M  END
>  <Dataset>  (275) 
ChEMBL_Kinases

>  <Ligand_Instance>  (275) 
nan

>  <PDB_ID>  (275) 
nan

>  <Standardized_SMILES>  (275) 
COc1cccc(F)c1-c1cc2c(cn1)cnn2-c1cccc(N2CCN(C)CC2)c1

>  <Name>  (275) 
nan

>  <Pocket>  (275) 
nan

>  <ATP_Site>  (275) 
nan

>  <Peripheral>  (275) 
nan

>  <Num_H_Atoms_ProtBoundConf>  (275) 
nan

>  <Num_Resolved_Atoms>  (275) 
nan

>  <Num_Not_Resolved_Atoms>  (275) 
nan

$$$$
CHEMBL4743808
     RDKit          3D

  0  0  0  0  0  0  0  0  0  0999 V3000
M  V30 BEGIN CTAB
M  V30 COUNTS 54 57 0 0 0
M  V30 BEGIN ATOM
M  V30 1 C 3.134222 5.524583 4.318895 0
M  V30 2 O 3.120001 4.230138 4.848846 0
M  V30 3 C 3.445844 3.095402 4.094294 0
M  V30 4 C 3.805756 3.181574 2.765479 0
M  V30 5 C 4.123749 2.055330 2.036175 0
M  V30 6 C 4.094063 0.799626 2.606874 0
M  V30 7 C 4.399525 -0.506253 1.967576 0
M  V30 8 N 3.254686 -1.170555 1.409865 0
M  V30 9 C 2.365149 -0.748391 0.387819 0
M  V30 10 N 2.532976 0.434816 -0.214303 0
M  V30 11 C 1.758453 0.933520 -1.188305 0
M  V30 12 C 0.700991 0.205532 -1.630901 0
M  V30 13 N 0.502234 -0.985004 -1.050512 0
M  V30 14 C -0.589388 -1.845690 -1.438840 0
M  V30 15 C -1.799940 -1.820094 -0.759142 0
M  V30 16 C -2.825813 -2.650795 -1.148783 0
M  V30 17 C -4.061413 -2.558682 -0.380002 0
M  V30 18 O -4.132413 -1.750285 0.573801 0
M  V30 19 N -5.231496 -3.329712 -0.624077 0
M  V30 20 C -6.430187 -3.193054 0.175440 0
M  V30 21 C -7.788408 -3.238168 -0.486277 0
M  V30 22 C -7.310445 -4.351889 0.439121 0
M  V30 23 C -2.695539 -3.522563 -2.206426 0
M  V30 24 C -1.490015 -3.542139 -2.876603 0
M  V30 25 C -0.448085 -2.724525 -2.510401 0
M  V30 26 C 0.832904 -2.767760 -3.247749 0
M  V30 27 C 1.270299 -1.483493 -0.082131 0
M  V30 28 O 1.069319 -2.604782 0.452792 0
M  V30 29 C 3.722453 0.769560 3.957442 0
M  V30 30 C 3.390664 1.878882 4.743138 0
M  V30 31 H 3.238706 6.223481 5.192847 0
M  V30 32 H 3.926207 5.691377 3.581603 0
M  V30 33 H 2.123234 5.734448 3.909941 0
M  V30 34 H 3.847576 4.129582 2.264093 0
M  V30 35 H 4.413520 2.077653 0.998679 0
M  V30 36 H 4.864637 -1.141727 2.725701 0
M  V30 37 H 5.148587 -0.254211 1.158616 0
M  V30 38 H 2.990482 -2.131637 1.788067 0
M  V30 39 H 1.940784 1.899888 -1.641515 0
M  V30 40 H 0.002618 0.485969 -2.402548 0
M  V30 41 H -1.848370 -1.114111 0.066680 0
M  V30 42 H -5.208216 -4.013970 -1.411691 0
M  V30 43 H -6.338461 -2.449052 0.969249 0
M  V30 44 H -7.852280 -3.446646 -1.573764 0
M  V30 45 H -8.582135 -2.556367 -0.125748 0
M  V30 46 H -7.189659 -5.312711 -0.061390 0
M  V30 47 H -7.833433 -4.390633 1.415691 0
M  V30 48 H -3.496052 -4.169714 -2.509303 0
M  V30 49 H -1.357949 -4.226057 -3.722421 0
M  V30 50 H 1.716227 -2.766929 -2.560118 0
M  V30 51 H 0.940910 -1.939598 -3.988697 0
M  V30 52 H 0.922956 -3.706379 -3.834943 0
M  V30 53 H 3.679307 -0.201444 4.472169 0
M  V30 54 H 3.121612 1.740206 5.764394 0
M  V30 END ATOM
M  V30 BEGIN BOND
M  V30 1 1 1 2
M  V30 2 1 2 3
M  V30 3 2 3 4
M  V30 4 1 4 5
M  V30 5 2 5 6
M  V30 6 1 6 7
M  V30 7 1 7 8
M  V30 8 1 8 9
M  V30 9 2 9 10
M  V30 10 1 10 11
M  V30 11 2 11 12
M  V30 12 1 12 13
M  V30 13 1 13 14
M  V30 14 2 14 15
M  V30 15 1 15 16
M  V30 16 1 16 17
M  V30 17 2 17 18
M  V30 18 1 17 19
M  V30 19 1 19 20
M  V30 20 1 20 21
M  V30 21 1 21 22
M  V30 22 2 16 23
M  V30 23 1 23 24
M  V30 24 2 24 25
M  V30 25 1 25 26
M  V30 26 1 13 27
M  V30 27 2 27 28
M  V30 28 1 6 29
M  V30 29 2 29 30
M  V30 30 1 30 3
M  V30 31 1 27 9
M  V30 32 1 25 14
M  V30 33 1 22 20
M  V30 34 1 1 31
M  V30 35 1 1 32
M  V30 36 1 1 33
M  V30 37 1 4 34
M  V30 38 1 5 35
M  V30 39 1 7 36
M  V30 40 1 7 37
M  V30 41 1 8 38
M  V30 42 1 11 39
M  V30 43 1 12 40
M  V30 44 1 15 41
M  V30 45 1 19 42
M  V30 46 1 20 43
M  V30 47 1 21 44
M  V30 48 1 21 45
M  V30 49 1 22 46
M  V30 50 1 22 47
M  V30 51 1 23 48
M  V30 52 1 24 49
M  V30 53 1 26 50
M  V30 54 1 26 51
M  V30 55 1 26 52
M  V30 56 1 29 53
M  V30 57 1 30 54
M  V30 END BOND
M  V30 END CTAB
M  END
>  <Dataset>  (276) 
ChEMBL_Kinases

>  <Ligand_Instance>  (276) 
nan

>  <PDB_ID>  (276) 
nan

>  <Standardized_SMILES>  (276) 
COc1ccc(CNc2nccn(-c3cc(C(=O)NC4CC4)ccc3C)c2=O)cc1

>  <Name>  (276) 
nan

>  <Pocket>  (276) 
nan

>  <ATP_Site>  (276) 
nan

>  <Peripheral>  (276) 
nan

>  <Num_H_Atoms_ProtBoundConf>  (276) 
nan

>  <Num_Resolved_Atoms>  (276) 
nan

>  <Num_Not_Resolved_Atoms>  (276) 
nan

$$$$
CHEMBL4743812
     RDKit          3D

  0  0  0  0  0  0  0  0  0  0999 V3000
M  V30 BEGIN CTAB
M  V30 COUNTS 38 40 0 0 0
M  V30 BEGIN ATOM
M  V30 1 C -0.405971 -6.309186 4.815034 0
M  V30 2 O -1.206353 -5.471838 3.973985 0
M  V30 3 C -0.581636 -4.574943 3.118988 0
M  V30 4 N 0.746029 -4.402264 2.991833 0
M  V30 5 C 1.285029 -3.511410 2.140062 0
M  V30 6 C 0.455248 -2.724302 1.346856 0
M  V30 7 C 0.968490 -1.735873 0.399537 0
M  V30 8 C 0.405753 -0.489678 0.336126 0
M  V30 9 C 0.885712 0.454001 -0.558903 0
M  V30 10 C 0.253720 1.775452 -0.593301 0
M  V30 11 C 1.002183 2.888591 -0.923220 0
M  V30 12 C 0.485034 4.165902 -0.978658 0
M  V30 13 C -0.863913 4.327317 -0.684186 0
M  V30 14 C -1.598789 5.609836 -0.689180 0
M  V30 15 O -2.830911 5.771971 -0.422467 0
M  V30 16 O -1.048974 6.848011 -0.989412 0
M  V30 17 C -1.651323 3.245573 -0.349410 0
M  V30 18 C -1.100850 1.977130 -0.303078 0
M  V30 19 C 1.941849 0.186724 -1.419719 0
M  V30 20 N 2.475045 -1.057718 -1.329531 0
M  V30 21 C 2.022083 -1.987876 -0.466123 0
M  V30 22 N 2.626758 -3.292157 -0.414505 0
M  V30 23 C -0.901384 -2.923998 1.499465 0
M  V30 24 N -1.428469 -3.821590 2.358246 0
M  V30 25 H -1.050872 -7.003335 5.383298 0
M  V30 26 H 0.277091 -6.931817 4.169196 0
M  V30 27 H 0.227585 -5.744241 5.503462 0
M  V30 28 H 2.344666 -3.393634 2.058147 0
M  V30 29 H -0.404356 -0.220550 0.966189 0
M  V30 30 H 2.061518 2.827600 -1.163552 0
M  V30 31 H 1.010979 5.059316 -1.225921 0
M  V30 32 H -1.074479 7.628723 -0.327931 0
M  V30 33 H -2.710460 3.303441 -0.108680 0
M  V30 34 H -1.707085 1.109176 -0.040599 0
M  V30 35 H 2.301153 0.927193 -2.105933 0
M  V30 36 H 3.519515 -3.730792 -0.045242 0
M  V30 37 H 2.346485 -4.258779 -0.748233 0
M  V30 38 H -1.601380 -2.341107 0.909537 0
M  V30 END ATOM
M  V30 BEGIN BOND
M  V30 1 1 1 2
M  V30 2 1 2 3
M  V30 3 2 3 4
M  V30 4 1 4 5
M  V30 5 2 5 6
M  V30 6 1 6 7
M  V30 7 2 7 8
M  V30 8 1 8 9
M  V30 9 1 9 10
M  V30 10 2 10 11
M  V30 11 1 11 12
M  V30 12 2 12 13
M  V30 13 1 13 14
M  V30 14 2 14 15
M  V30 15 1 14 16
M  V30 16 1 13 17
M  V30 17 2 17 18
M  V30 18 2 9 19
M  V30 19 1 19 20
M  V30 20 2 20 21
M  V30 21 1 21 22
M  V30 22 1 6 23
M  V30 23 2 23 24
M  V30 24 1 24 3
M  V30 25 1 21 7
M  V30 26 1 18 10
M  V30 27 1 1 25
M  V30 28 1 1 26
M  V30 29 1 1 27
M  V30 30 1 5 28
M  V30 31 1 8 29
M  V30 32 1 11 30
M  V30 33 1 12 31
M  V30 34 1 16 32
M  V30 35 1 17 33
M  V30 36 1 18 34
M  V30 37 1 19 35
M  V30 38 1 22 36
M  V30 39 1 22 37
M  V30 40 1 23 38
M  V30 END BOND
M  V30 END CTAB
M  END
>  <Dataset>  (277) 
ChEMBL_Kinases

>  <Ligand_Instance>  (277) 
nan

>  <PDB_ID>  (277) 
nan

>  <Standardized_SMILES>  (277) 
COc1ncc(-c2cc(-c3ccc(C(=O)O)cc3)cnc2N)cn1

>  <Name>  (277) 
nan

>  <Pocket>  (277) 
nan

>  <ATP_Site>  (277) 
nan

>  <Peripheral>  (277) 
nan

>  <Num_H_Atoms_ProtBoundConf>  (277) 
nan

>  <Num_Resolved_Atoms>  (277) 
nan

>  <Num_Not_Resolved_Atoms>  (277) 
nan

$$$$
CHEMBL4743843
     RDKit          3D

  0  0  0  0  0  0  0  0  0  0999 V3000
M  V30 BEGIN CTAB
M  V30 COUNTS 58 61 0 0 0
M  V30 BEGIN ATOM
M  V30 1 C 4.592511 -1.615421 0.649894 0
M  V30 2 C 4.571389 -2.504207 1.879882 0
M  V30 3 O 4.228141 -3.821098 1.493329 0
M  V30 4 C 3.061179 -4.193163 0.876274 0
M  V30 5 N 2.095688 -3.325509 0.565512 0
M  V30 6 C 0.939245 -3.629503 -0.034763 0
M  V30 7 N -0.106234 -2.734353 -0.379891 0
M  V30 8 C -0.146593 -1.336571 -0.166356 0
M  V30 9 C 0.851780 -0.607690 0.431370 0
M  V30 10 C 0.798580 0.747087 0.632433 0
M  V30 11 C -0.300131 1.474018 0.230292 0
M  V30 12 C -0.332950 2.901933 0.453160 0
M  V30 13 O 0.610731 3.575624 -0.030034 0
M  V30 14 N -1.250571 3.743548 1.135826 0
M  V30 15 C -0.916300 5.152046 1.130274 0
M  V30 16 C -0.737239 5.582707 2.551130 0
M  V30 17 O -1.591961 5.123992 3.459608 0
M  V30 18 C -2.407109 4.094118 3.244360 0
M  V30 19 C -2.492154 3.528316 1.867351 0
M  V30 20 C -1.325714 0.738857 -0.381364 0
M  V30 21 C -1.269302 -0.647016 -0.586213 0
M  V30 22 O -2.329135 -1.075748 -1.163284 0
M  V30 23 C -3.261499 -1.799942 -1.729756 0
M  V30 24 C -3.685711 -1.377311 -3.139251 0
M  V30 25 C -4.559311 -1.730965 -0.913959 0
M  V30 26 N 0.824681 -4.936523 -0.311094 0
M  V30 27 C 1.721002 -5.881482 -0.046267 0
M  V30 28 N 1.672567 -7.198503 -0.293207 0
M  V30 29 C 2.836785 -7.701363 0.173298 0
M  V30 30 C 3.611545 -6.680982 0.714228 0
M  V30 31 C 2.884957 -5.520876 0.567125 0
M  V30 32 H 4.054108 -2.141400 -0.183556 0
M  V30 33 H 4.115537 -0.665970 0.910701 0
M  V30 34 H 5.629802 -1.397143 0.335710 0
M  V30 35 H 3.818452 -2.149534 2.602150 0
M  V30 36 H 5.548493 -2.547361 2.393414 0
M  V30 37 H -0.922351 -3.178153 -0.838485 0
M  V30 38 H 1.750964 -1.069587 0.782879 0
M  V30 39 H 1.603338 1.284871 1.105852 0
M  V30 40 H -0.017809 5.390092 0.551631 0
M  V30 41 H -1.815511 5.722546 0.752686 0
M  V30 42 H 0.300293 5.326603 2.852325 0
M  V30 43 H -0.763238 6.706633 2.530302 0
M  V30 44 H -2.140057 3.248375 3.916366 0
M  V30 45 H -3.452372 4.378308 3.545787 0
M  V30 46 H -2.791916 2.480312 1.823292 0
M  V30 47 H -3.274953 4.114071 1.301557 0
M  V30 48 H -2.155408 1.394737 -0.666893 0
M  V30 49 H -3.010209 -2.891100 -1.812015 0
M  V30 50 H -4.290324 -0.441909 -3.094213 0
M  V30 51 H -2.835936 -1.330205 -3.821648 0
M  V30 52 H -4.370749 -2.177094 -3.485900 0
M  V30 53 H -4.507289 -2.502671 -0.100258 0
M  V30 54 H -5.437155 -1.895175 -1.543601 0
M  V30 55 H -4.623082 -0.745651 -0.448863 0
M  V30 56 H 0.963801 -7.823335 -0.735506 0
M  V30 57 H 3.177394 -8.727215 0.160503 0
M  V30 58 H 4.601924 -6.744918 1.173139 0
M  V30 END ATOM
M  V30 BEGIN BOND
M  V30 1 1 1 2
M  V30 2 1 2 3
M  V30 3 1 3 4
M  V30 4 2 4 5
M  V30 5 1 5 6
M  V30 6 1 6 7
M  V30 7 1 7 8
M  V30 8 2 8 9
M  V30 9 1 9 10
M  V30 10 2 10 11
M  V30 11 1 11 12
M  V30 12 2 12 13
M  V30 13 1 12 14
M  V30 14 1 14 15
M  V30 15 1 15 16
M  V30 16 1 16 17
M  V30 17 1 17 18
M  V30 18 1 18 19
M  V30 19 1 11 20
M  V30 20 2 20 21
M  V30 21 1 21 22
M  V30 22 1 22 23
M  V30 23 1 23 24
M  V30 24 1 23 25
M  V30 25 2 6 26
M  V30 26 1 26 27
M  V30 27 1 27 28
M  V30 28 1 28 29
M  V30 29 2 29 30
M  V30 30 1 30 31
M  V30 31 1 31 4
M  V30 32 1 21 8
M  V30 33 2 31 27
M  V30 34 1 19 14
M  V30 35 1 1 32
M  V30 36 1 1 33
M  V30 37 1 1 34
M  V30 38 1 2 35
M  V30 39 1 2 36
M  V30 40 1 7 37
M  V30 41 1 9 38
M  V30 42 1 10 39
M  V30 43 1 15 40
M  V30 44 1 15 41
M  V30 45 1 16 42
M  V30 46 1 16 43
M  V30 47 1 18 44
M  V30 48 1 18 45
M  V30 49 1 19 46
M  V30 50 1 19 47
M  V30 51 1 20 48
M  V30 52 1 23 49
M  V30 53 1 24 50
M  V30 54 1 24 51
M  V30 55 1 24 52
M  V30 56 1 25 53
M  V30 57 1 25 54
M  V30 58 1 25 55
M  V30 59 1 28 56
M  V30 60 1 29 57
M  V30 61 1 30 58
M  V30 END BOND
M  V30 END CTAB
M  END
>  <Dataset>  (278) 
ChEMBL_Kinases

>  <Ligand_Instance>  (278) 
nan

>  <PDB_ID>  (278) 
nan

>  <Standardized_SMILES>  (278) 
CCOc1nc(Nc2ccc(C(=O)N3CCOCC3)cc2OC(C)C)nc2[nH]ccc12

>  <Name>  (278) 
nan

>  <Pocket>  (278) 
nan

>  <ATP_Site>  (278) 
nan

>  <Peripheral>  (278) 
nan

>  <Num_H_Atoms_ProtBoundConf>  (278) 
nan

>  <Num_Resolved_Atoms>  (278) 
nan

>  <Num_Not_Resolved_Atoms>  (278) 
nan

$$$$
CHEMBL4743876
     RDKit          3D

  0  0  0  0  0  0  0  0  0  0999 V3000
M  V30 BEGIN CTAB
M  V30 COUNTS 34 36 0 0 0
M  V30 BEGIN ATOM
M  V30 1 C -2.561725 -5.938548 2.571774 0
M  V30 2 C -2.069442 -4.857646 2.413917 0
M  V30 3 C -1.472025 -3.569406 2.217015 0
M  V30 4 N -0.163631 -3.481243 1.929833 0
M  V30 5 C 0.396858 -2.259205 1.750763 0
M  V30 6 N 1.730585 -1.853120 1.435693 0
M  V30 7 C 1.840988 -1.251244 0.135595 0
M  V30 8 C 1.742642 -1.810516 -1.114493 0
M  V30 9 C 1.835525 -1.098748 -2.288096 0
M  V30 10 C 2.039398 0.267839 -2.184497 0
M  V30 11 C 2.138737 0.834625 -0.935905 0
M  V30 12 N 2.327476 2.242841 -0.816781 0
M  V30 13 C 0.971624 2.747319 -0.730507 0
M  V30 14 C 0.296114 4.051777 -0.589919 0
M  V30 15 O 0.057529 1.844318 -0.783747 0
M  V30 16 C 2.046493 0.116704 0.264712 0
M  V30 17 N -0.388175 -1.145985 1.865852 0
M  V30 18 C -1.700965 -1.233061 2.153427 0
M  V30 19 N -2.632696 -0.238532 2.304967 0
M  V30 20 C -3.778799 -0.917156 2.584502 0
M  V30 21 N -3.609319 -2.239141 2.613435 0
M  V30 22 C -2.294974 -2.478557 2.342789 0
M  V30 23 H -2.999551 -6.886519 2.723637 0
M  V30 24 H 2.513017 -2.034947 2.139939 0
M  V30 25 H 1.581686 -2.871173 -1.066108 0
M  V30 26 H 1.748383 -1.616226 -3.225734 0
M  V30 27 H 2.118918 0.884421 -3.089543 0
M  V30 28 H 2.950955 3.074503 -0.763816 0
M  V30 29 H -0.209755 4.034555 0.419315 0
M  V30 30 H 1.072994 4.859031 -0.625860 0
M  V30 31 H -0.461341 4.250714 -1.386204 0
M  V30 32 H 2.148597 0.666287 1.204924 0
M  V30 33 H -2.473438 0.787257 2.215357 0
M  V30 34 H -4.744289 -0.424701 2.772008 0
M  V30 END ATOM
M  V30 BEGIN BOND
M  V30 1 3 1 2
M  V30 2 1 2 3
M  V30 3 2 3 4
M  V30 4 1 4 5
M  V30 5 1 5 6
M  V30 6 1 6 7
M  V30 7 2 7 8
M  V30 8 1 8 9
M  V30 9 2 9 10
M  V30 10 1 10 11
M  V30 11 1 11 12
M  V30 12 1 12 13
M  V30 13 1 13 14
M  V30 14 2 13 15
M  V30 15 2 11 16
M  V30 16 2 5 17
M  V30 17 1 17 18
M  V30 18 1 18 19
M  V30 19 1 19 20
M  V30 20 2 20 21
M  V30 21 1 21 22
M  V30 22 1 22 3
M  V30 23 1 16 7
M  V30 24 2 22 18
M  V30 25 1 1 23
M  V30 26 1 6 24
M  V30 27 1 8 25
M  V30 28 1 9 26
M  V30 29 1 10 27
M  V30 30 1 12 28
M  V30 31 1 14 29
M  V30 32 1 14 30
M  V30 33 1 14 31
M  V30 34 1 16 32
M  V30 35 1 19 33
M  V30 36 1 20 34
M  V30 END BOND
M  V30 END CTAB
M  END
>  <Dataset>  (279) 
ChEMBL_Kinases

>  <Ligand_Instance>  (279) 
nan

>  <PDB_ID>  (279) 
nan

>  <Standardized_SMILES>  (279) 
C#Cc1nc(Nc2cccc(NC(C)=O)c2)nc2[nH]cnc12

>  <Name>  (279) 
nan

>  <Pocket>  (279) 
nan

>  <ATP_Site>  (279) 
nan

>  <Peripheral>  (279) 
nan

>  <Num_H_Atoms_ProtBoundConf>  (279) 
nan

>  <Num_Resolved_Atoms>  (279) 
nan

>  <Num_Not_Resolved_Atoms>  (279) 
nan

$$$$
CHEMBL4458078
     RDKit          3D

  0  0  0  0  0  0  0  0  0  0999 V3000
M  V30 BEGIN CTAB
M  V30 COUNTS 50 53 0 0 0
M  V30 BEGIN ATOM
M  V30 1 C 4.791303 -5.409686 1.299773 0
M  V30 2 C 5.168781 -4.333417 2.251390 0
M  V30 3 C 4.741838 -4.697353 3.657962 0
M  V30 4 C 4.620699 -2.994835 1.928253 0
M  V30 5 O 3.858652 -2.382304 2.735489 0
M  V30 6 N 4.890790 -2.300438 0.724851 0
M  V30 7 C 4.205404 -1.029179 0.725941 0
M  V30 8 N 4.777127 0.108051 1.219706 0
M  V30 9 N 3.924105 1.133372 1.095484 0
M  V30 10 C 2.783714 0.696252 0.522618 0
M  V30 11 C 1.586378 1.279329 0.155356 0
M  V30 12 C 0.579697 0.538195 -0.430505 0
M  V30 13 C -0.706599 1.088407 -0.842210 0
M  V30 14 C -0.846256 2.384915 -1.287934 0
M  V30 15 C -2.081160 2.892395 -1.676844 0
M  V30 16 C -3.222027 2.087515 -1.623215 0
M  V30 17 C -3.121517 0.781001 -1.181399 0
M  V30 18 N -4.237203 -0.096764 -1.099957 0
M  V30 19 S -5.750176 0.349554 -0.449543 0
M  V30 20 O -6.664318 -0.836908 -0.460917 0
M  V30 21 O -6.347171 1.465159 -1.223649 0
M  V30 22 C -5.518435 0.794233 1.268526 0
M  V30 23 C -5.326219 2.210395 1.605441 0
M  V30 24 C -6.676747 1.643429 1.885762 0
M  V30 25 C -1.869907 0.339510 -0.810822 0
M  V30 26 C 0.789452 -0.820702 -0.648965 0
M  V30 27 C 1.984533 -1.452828 -0.293698 0
M  V30 28 C 2.947599 -0.661702 0.285257 0
M  V30 29 H 4.558935 -6.328463 1.879236 0
M  V30 30 H 5.586482 -5.699609 0.586965 0
M  V30 31 H 3.842717 -5.150942 0.755512 0
M  V30 32 H 6.289320 -4.199747 2.300510 0
M  V30 33 H 5.503249 -4.439911 4.420579 0
M  V30 34 H 4.416917 -5.750632 3.758975 0
M  V30 35 H 3.843118 -4.085239 3.942316 0
M  V30 36 H 5.522003 -2.755357 0.003335 0
M  V30 37 H 4.102897 2.120926 1.392255 0
M  V30 38 H 1.432666 2.316879 0.324933 0
M  V30 39 H 0.007164 3.044020 -1.346647 0
M  V30 40 H -2.140330 3.917421 -2.019919 0
M  V30 41 H -4.182819 2.477009 -1.924023 0
M  V30 42 H -4.019492 -1.053664 -1.488153 0
M  V30 43 H -5.112959 0.013186 1.934176 0
M  V30 44 H -4.738784 2.507477 2.513841 0
M  V30 45 H -5.186109 2.908606 0.768123 0
M  V30 46 H -7.463783 1.966481 1.164441 0
M  V30 47 H -6.978306 1.379165 2.917467 0
M  V30 48 H -1.797462 -0.681998 -0.466448 0
M  V30 49 H 0.012375 -1.412118 -1.105538 0
M  V30 50 H 2.121384 -2.510527 -0.474819 0
M  V30 END ATOM
M  V30 BEGIN BOND
M  V30 1 1 1 2
M  V30 2 1 2 3
M  V30 3 1 2 4
M  V30 4 2 4 5
M  V30 5 1 4 6
M  V30 6 1 6 7
M  V30 7 2 7 8
M  V30 8 1 8 9
M  V30 9 1 9 10
M  V30 10 2 10 11
M  V30 11 1 11 12
M  V30 12 1 12 13
M  V30 13 2 13 14
M  V30 14 1 14 15
M  V30 15 2 15 16
M  V30 16 1 16 17
M  V30 17 1 17 18
M  V30 18 1 18 19
M  V30 19 2 19 20
M  V30 20 2 19 21
M  V30 21 1 19 22
M  V30 22 1 22 23
M  V30 23 1 23 24
M  V30 24 2 17 25
M  V30 25 2 12 26
M  V30 26 1 26 27
M  V30 27 2 27 28
M  V30 28 1 28 7
M  V30 29 1 28 10
M  V30 30 1 25 13
M  V30 31 1 24 22
M  V30 32 1 1 29
M  V30 33 1 1 30
M  V30 34 1 1 31
M  V30 35 1 2 32
M  V30 36 1 3 33
M  V30 37 1 3 34
M  V30 38 1 3 35
M  V30 39 1 6 36
M  V30 40 1 9 37
M  V30 41 1 11 38
M  V30 42 1 14 39
M  V30 43 1 15 40
M  V30 44 1 16 41
M  V30 45 1 18 42
M  V30 46 1 22 43
M  V30 47 1 23 44
M  V30 48 1 23 45
M  V30 49 1 24 46
M  V30 50 1 24 47
M  V30 51 1 25 48
M  V30 52 1 26 49
M  V30 53 1 27 50
M  V30 END BOND
M  V30 END CTAB
M  END
>  <Dataset>  (280) 
ChEMBL_Kinases

>  <Ligand_Instance>  (280) 
nan

>  <PDB_ID>  (280) 
nan

>  <Standardized_SMILES>  (280) 
CC(C)C(=O)Nc1n[nH]c2cc(-c3cccc(NS(=O)(=O)C4CC4)c3)ccc12

>  <Name>  (280) 
nan

>  <Pocket>  (280) 
nan

>  <ATP_Site>  (280) 
nan

>  <Peripheral>  (280) 
nan

>  <Num_H_Atoms_ProtBoundConf>  (280) 
nan

>  <Num_Resolved_Atoms>  (280) 
nan

>  <Num_Not_Resolved_Atoms>  (280) 
nan

$$$$
CHEMBL474390
     RDKit          3D

  0  0  0  0  0  0  0  0  0  0999 V3000
M  V30 BEGIN CTAB
M  V30 COUNTS 40 43 0 0 0
M  V30 BEGIN ATOM
M  V30 1 C 0.042095 -4.537475 0.844499 0
M  V30 2 C 0.487947 -3.199325 1.399824 0
M  V30 3 C 1.441433 -2.600241 0.382722 0
M  V30 4 C 1.954333 -1.250261 0.836995 0 CFG=1
M  V30 5 O 2.808368 -0.756693 -0.109955 0
M  V30 6 C 2.271379 -0.755758 -1.367874 0 CFG=2
M  V30 7 C 3.104147 0.111426 -2.307764 0
M  V30 8 C 2.485159 1.451493 -2.007065 0
M  V30 9 O 3.202521 2.458670 -1.695756 0
M  V30 10 O 1.170673 1.063772 -2.201890 0
M  V30 11 C 0.940361 -0.092530 -1.456765 0 CFG=2
M  V30 12 C 0.338254 0.184398 -0.128598 0
M  V30 13 C 0.775440 -0.337002 1.005457 0
M  V30 14 C 0.159463 -0.043572 2.297441 0
M  V30 15 O 0.650797 -0.588519 3.303133 0
M  V30 16 C -0.988016 0.859048 2.372536 0
M  V30 17 C -1.576397 1.140683 3.597903 0
M  V30 18 O -1.062782 0.553069 4.766795 0
M  V30 19 C -2.665340 1.998747 3.659580 0
M  V30 20 C -3.139880 2.557812 2.473838 0
M  V30 21 C -2.531963 2.258314 1.263497 0
M  V30 22 C -1.443097 1.403064 1.183782 0
M  V30 23 C -0.811988 1.094873 -0.090519 0
M  V30 24 O -1.266023 1.620239 -1.162570 0
M  V30 25 H -0.509486 -5.105192 1.641647 0
M  V30 26 H -0.686573 -4.345928 0.034168 0
M  V30 27 H 0.892940 -5.132964 0.468225 0
M  V30 28 H 0.937085 -3.273569 2.413295 0
M  V30 29 H -0.438022 -2.602187 1.513623 0
M  V30 30 H 2.267424 -3.335218 0.287887 0
M  V30 31 H 0.866404 -2.495426 -0.546709 0
M  V30 32 H 2.451568 -1.346249 1.831271 0
M  V30 33 H 2.225358 -1.744619 -1.846779 0
M  V30 34 H 4.172802 0.086459 -2.098661 0
M  V30 35 H 2.835993 -0.119822 -3.359675 0
M  V30 36 H 0.245277 -0.743884 -2.047478 0
M  V30 37 H -1.398108 -0.397519 4.956234 0
M  V30 38 H -3.068846 2.169113 4.649178 0
M  V30 39 H -3.990266 3.217486 2.590255 0
M  V30 40 H -2.946956 2.726842 0.360099 0
M  V30 END ATOM
M  V30 BEGIN BOND
M  V30 1 1 1 2
M  V30 2 1 2 3
M  V30 3 1 3 4
M  V30 4 1 4 5
M  V30 5 1 5 6
M  V30 6 1 6 7
M  V30 7 1 7 8
M  V30 8 2 8 9
M  V30 9 1 8 10
M  V30 10 1 10 11
M  V30 11 1 11 12
M  V30 12 2 12 13
M  V30 13 1 13 14
M  V30 14 2 14 15
M  V30 15 1 14 16
M  V30 16 2 16 17
M  V30 17 1 17 18
M  V30 18 1 17 19
M  V30 19 2 19 20
M  V30 20 1 20 21
M  V30 21 2 21 22
M  V30 22 1 22 23
M  V30 23 2 23 24
M  V30 24 1 13 4
M  V30 25 1 22 16
M  V30 26 1 11 6
M  V30 27 1 23 12
M  V30 28 1 1 25
M  V30 29 1 1 26
M  V30 30 1 1 27
M  V30 31 1 2 28
M  V30 32 1 2 29
M  V30 33 1 3 30
M  V30 34 1 3 31
M  V30 35 1 4 32 CFG=1
M  V30 36 1 6 33 CFG=3
M  V30 37 1 7 34
M  V30 38 1 7 35
M  V30 39 1 11 36 CFG=3
M  V30 40 1 18 37
M  V30 41 1 19 38
M  V30 42 1 20 39
M  V30 43 1 21 40
M  V30 END BOND
M  V30 END CTAB
M  END
>  <Dataset>  (281) 
ChEMBL_Kinases

>  <Ligand_Instance>  (281) 
nan

>  <PDB_ID>  (281) 
nan

>  <Standardized_SMILES>  (281) 
CCC[C@H]1O[C@@H]2CC(=O)O[C@@H]2C2=C1C(=O)c1c(O)cccc1C2=O

>  <Name>  (281) 
FRENOLICIN B

>  <Pocket>  (281) 
nan

>  <ATP_Site>  (281) 
nan

>  <Peripheral>  (281) 
nan

>  <Num_H_Atoms_ProtBoundConf>  (281) 
nan

>  <Num_Resolved_Atoms>  (281) 
nan

>  <Num_Not_Resolved_Atoms>  (281) 
nan

$$$$
CHEMBL4743990
     RDKit          3D

  0  0  0  0  0  0  0  0  0  0999 V3000
M  V30 BEGIN CTAB
M  V30 COUNTS 50 53 0 0 0
M  V30 BEGIN ATOM
M  V30 1 O 0.853828 -1.226411 1.179687 0
M  V30 2 C 0.274002 -0.998127 2.296693 0
M  V30 3 C 1.038814 -1.924423 3.186073 0
M  V30 4 C 2.155216 -2.462906 2.312432 0
M  V30 5 N 2.938362 -1.327092 1.872725 0
M  V30 6 C 4.038829 -1.737345 1.017818 0
M  V30 7 C 4.375864 -0.555395 0.126985 0
M  V30 8 C 3.911674 0.725372 0.827318 0
M  V30 9 C 4.218794 0.639486 2.312004 0
M  V30 10 C 3.365045 -0.462898 2.934724 0
M  V30 11 N -0.782894 -0.085925 2.459776 0
M  V30 12 C -1.046847 0.479311 1.181664 0
M  V30 13 C -0.356112 1.636817 0.896295 0
M  V30 14 C -0.539628 2.252340 -0.317368 0
M  V30 15 C -1.407774 1.708785 -1.232799 0
M  V30 16 C -2.091069 0.562765 -0.951827 0
M  V30 17 C -1.914232 -0.054086 0.253960 0
M  V30 18 C -2.928529 0.240504 -2.092510 0
M  V30 19 C -3.678660 -0.837416 -2.149352 0
M  V30 20 C -3.897190 -1.931915 -1.226188 0
M  V30 21 C -5.260126 -2.176508 -0.977475 0
M  V30 22 C -5.455364 -3.221426 -0.103309 0
M  V30 23 C -4.157177 -3.593803 0.162490 0
M  V30 24 O -3.325012 -2.839695 -0.491397 0
M  V30 25 C -2.703839 1.279261 -3.085338 0
M  V30 26 O -3.266385 1.324821 -4.205222 0
M  V30 27 N -1.756243 2.175298 -2.525969 0
M  V30 28 H 0.390915 -2.783036 3.499752 0
M  V30 29 H 1.380022 -1.467151 4.124942 0
M  V30 30 H 2.794827 -3.190749 2.871755 0
M  V30 31 H 1.773012 -2.985975 1.426580 0
M  V30 32 H 3.687375 -2.603108 0.419836 0
M  V30 33 H 4.929501 -1.997925 1.627246 0
M  V30 34 H 5.475022 -0.502811 0.027357 0
M  V30 35 H 3.856448 -0.577261 -0.830497 0
M  V30 36 H 2.809281 0.725496 0.717021 0
M  V30 37 H 4.343524 1.605158 0.358117 0
M  V30 38 H 3.905413 1.593682 2.784034 0
M  V30 39 H 5.294068 0.468685 2.505640 0
M  V30 40 H 2.440441 0.003336 3.376694 0
M  V30 41 H 3.914152 -1.027170 3.716366 0
M  V30 42 H -1.049626 -0.077635 3.464155 0
M  V30 43 H 0.335282 2.106229 1.574551 0
M  V30 44 H -0.018126 3.147827 -0.558049 0
M  V30 45 H -2.356942 -0.911636 0.647363 0
M  V30 46 H -4.221975 -0.878199 -3.112866 0
M  V30 47 H -6.214029 -1.739699 -1.310768 0
M  V30 48 H -6.160899 -3.833238 0.429131 0
M  V30 49 H -3.612936 -4.327424 0.753651 0
M  V30 50 H -1.396574 3.021780 -3.004639 0
M  V30 END ATOM
M  V30 BEGIN BOND
M  V30 1 2 1 2
M  V30 2 1 2 3
M  V30 3 1 3 4
M  V30 4 1 4 5
M  V30 5 1 5 6
M  V30 6 1 6 7
M  V30 7 1 7 8
M  V30 8 1 8 9
M  V30 9 1 9 10
M  V30 10 1 2 11
M  V30 11 1 11 12
M  V30 12 2 12 13
M  V30 13 1 13 14
M  V30 14 2 14 15
M  V30 15 1 15 16
M  V30 16 2 16 17
M  V30 17 1 16 18
M  V30 18 2 18 19
M  V30 19 1 19 20
M  V30 20 2 20 21
M  V30 21 1 21 22
M  V30 22 2 22 23
M  V30 23 1 23 24
M  V30 24 1 18 25
M  V30 25 2 25 26
M  V30 26 1 25 27
M  V30 27 1 10 5
M  V30 28 1 17 12
M  V30 29 1 24 20
M  V30 30 1 27 15
M  V30 31 1 3 28
M  V30 32 1 3 29
M  V30 33 1 4 30
M  V30 34 1 4 31
M  V30 35 1 6 32
M  V30 36 1 6 33
M  V30 37 1 7 34
M  V30 38 1 7 35
M  V30 39 1 8 36
M  V30 40 1 8 37
M  V30 41 1 9 38
M  V30 42 1 9 39
M  V30 43 1 10 40
M  V30 44 1 10 41
M  V30 45 1 11 42
M  V30 46 1 13 43
M  V30 47 1 14 44
M  V30 48 1 17 45
M  V30 49 1 19 46
M  V30 50 1 21 47
M  V30 51 1 22 48
M  V30 52 1 23 49
M  V30 53 1 27 50
M  V30 END BOND
M  V30 END CTAB
M  END
>  <Dataset>  (282) 
ChEMBL_Kinases

>  <Ligand_Instance>  (282) 
nan

>  <PDB_ID>  (282) 
nan

>  <Standardized_SMILES>  (282) 
O=C(CCN1CCCCC1)Nc1ccc2c(c1)/C(=C\c1ccco1)C(=O)N2

>  <Name>  (282) 
nan

>  <Pocket>  (282) 
nan

>  <ATP_Site>  (282) 
nan

>  <Peripheral>  (282) 
nan

>  <Num_H_Atoms_ProtBoundConf>  (282) 
nan

>  <Num_Resolved_Atoms>  (282) 
nan

>  <Num_Not_Resolved_Atoms>  (282) 
nan

$$$$
CHEMBL4744045
     RDKit          3D

  0  0  0  0  0  0  0  0  0  0999 V3000
M  V30 BEGIN CTAB
M  V30 COUNTS 58 62 0 0 0
M  V30 BEGIN ATOM
M  V30 1 C 2.366836 -3.555280 1.114812 0
M  V30 2 S 3.461262 -2.887948 2.328518 0
M  V30 3 O 3.331282 -3.637899 3.619736 0
M  V30 4 O 4.878342 -3.073164 1.810829 0
M  V30 5 N 3.137648 -1.234269 2.614573 0
M  V30 6 C 3.186360 -0.099623 1.767200 0
M  V30 7 C 4.287372 0.028313 0.936682 0
M  V30 8 C 4.428597 1.108990 0.073963 0
M  V30 9 C 5.562019 1.275218 -0.807632 0
M  V30 10 N 6.472441 1.388293 -1.514169 0
M  V30 11 C 3.446078 2.088392 0.038371 0
M  V30 12 C 2.347287 1.977831 0.855012 0
M  V30 13 C 1.221088 2.887060 0.988717 0
M  V30 14 C 1.437199 4.254272 1.163206 0
M  V30 15 N 0.225742 4.871690 1.275578 0
M  V30 16 C -0.763323 3.963245 1.181046 0
M  V30 17 N -2.100943 3.943870 1.210352 0
M  V30 18 C -2.807555 2.785771 1.072765 0
M  V30 19 C -2.197212 1.538820 0.891741 0
M  V30 20 C -3.111717 0.411101 0.760698 0
M  V30 21 C -4.315185 0.473754 1.461221 0
M  V30 22 C -5.202637 -0.574670 1.347271 0
M  V30 23 C -4.934079 -1.693679 0.554345 0
M  V30 24 C -3.735864 -1.771261 -0.152000 0
M  V30 25 C -3.331276 -2.869916 -1.015811 0
M  V30 26 O -4.267327 -2.871891 -1.882077 0
M  V30 27 N -2.220861 -3.755510 -0.988755 0
M  V30 28 C -1.015069 -4.050850 -0.206549 0
M  V30 29 C 0.046304 -3.998280 -1.308958 0
M  V30 30 C -0.722284 -4.342224 -2.591423 0
M  V30 31 C -2.079976 -4.771621 -2.014068 0
M  V30 32 C -2.873760 -0.703048 -0.012414 0
M  V30 33 C -0.818652 1.550968 0.861086 0
M  V30 34 C -0.144408 2.744513 1.004554 0
M  V30 35 C 2.212096 0.900492 1.710822 0
M  V30 36 H 2.700113 -4.566709 0.779869 0
M  V30 37 H 1.339349 -3.611467 1.550952 0
M  V30 38 H 2.319861 -2.905476 0.221165 0
M  V30 39 H 2.838017 -0.886883 3.571526 0
M  V30 40 H 5.128059 -0.670571 0.868318 0
M  V30 41 H 3.447988 2.967267 -0.587287 0
M  V30 42 H 2.308552 4.888169 1.224580 0
M  V30 43 H -0.066366 5.870252 1.414645 0
M  V30 44 H -3.866708 2.969962 1.122406 0
M  V30 45 H -4.567016 1.318545 2.087203 0
M  V30 46 H -6.148011 -0.549106 1.883918 0
M  V30 47 H -5.610524 -2.532709 0.444436 0
M  V30 48 H -1.106808 -5.100879 0.129677 0
M  V30 49 H -0.841508 -3.318257 0.576347 0
M  V30 50 H 0.837793 -4.733191 -1.141355 0
M  V30 51 H 0.446404 -2.969016 -1.320173 0
M  V30 52 H -0.919851 -3.437468 -3.189152 0
M  V30 53 H -0.246177 -5.116611 -3.187993 0
M  V30 54 H -2.858847 -4.786575 -2.769593 0
M  V30 55 H -1.906142 -5.782011 -1.542468 0
M  V30 56 H -1.909851 -0.669817 -0.524922 0
M  V30 57 H -0.366461 0.580495 0.720760 0
M  V30 58 H 1.386918 0.702747 2.405165 0
M  V30 END ATOM
M  V30 BEGIN BOND
M  V30 1 1 1 2
M  V30 2 2 2 3
M  V30 3 2 2 4
M  V30 4 1 2 5
M  V30 5 1 5 6
M  V30 6 2 6 7
M  V30 7 1 7 8
M  V30 8 1 8 9
M  V30 9 3 9 10
M  V30 10 2 8 11
M  V30 11 1 11 12
M  V30 12 1 12 13
M  V30 13 2 13 14
M  V30 14 1 14 15
M  V30 15 1 15 16
M  V30 16 2 16 17
M  V30 17 1 17 18
M  V30 18 2 18 19
M  V30 19 1 19 20
M  V30 20 2 20 21
M  V30 21 1 21 22
M  V30 22 2 22 23
M  V30 23 1 23 24
M  V30 24 1 24 25
M  V30 25 2 25 26
M  V30 26 1 25 27
M  V30 27 1 27 28
M  V30 28 1 28 29
M  V30 29 1 29 30
M  V30 30 1 30 31
M  V30 31 2 24 32
M  V30 32 1 19 33
M  V30 33 2 33 34
M  V30 34 2 12 35
M  V30 35 1 35 6
M  V30 36 1 34 13
M  V30 37 1 34 16
M  V30 38 1 32 20
M  V30 39 1 31 27
M  V30 40 1 1 36
M  V30 41 1 1 37
M  V30 42 1 1 38
M  V30 43 1 5 39
M  V30 44 1 7 40
M  V30 45 1 11 41
M  V30 46 1 14 42
M  V30 47 1 15 43
M  V30 48 1 18 44
M  V30 49 1 21 45
M  V30 50 1 22 46
M  V30 51 1 23 47
M  V30 52 1 28 48
M  V30 53 1 28 49
M  V30 54 1 29 50
M  V30 55 1 29 51
M  V30 56 1 30 52
M  V30 57 1 30 53
M  V30 58 1 31 54
M  V30 59 1 31 55
M  V30 60 1 32 56
M  V30 61 1 33 57
M  V30 62 1 35 58
M  V30 END BOND
M  V30 END CTAB
M  END
>  <Dataset>  (283) 
ChEMBL_Kinases

>  <Ligand_Instance>  (283) 
nan

>  <PDB_ID>  (283) 
nan

>  <Standardized_SMILES>  (283) 
CS(=O)(=O)Nc1cc(C#N)cc(-c2c[nH]c3ncc(-c4cccc(C(=O)N5CCCC5)c4)cc23)c1

>  <Name>  (283) 
nan

>  <Pocket>  (283) 
nan

>  <ATP_Site>  (283) 
nan

>  <Peripheral>  (283) 
nan

>  <Num_H_Atoms_ProtBoundConf>  (283) 
nan

>  <Num_Resolved_Atoms>  (283) 
nan

>  <Num_Not_Resolved_Atoms>  (283) 
nan

$$$$
CHEMBL4744114
     RDKit          3D

  0  0  0  0  0  0  0  0  0  0999 V3000
M  V30 BEGIN CTAB
M  V30 COUNTS 64 67 0 0 0
M  V30 BEGIN ATOM
M  V30 1 C 4.120708 -4.713104 1.571965 0
M  V30 2 O 4.560763 -3.372614 1.741562 0
M  V30 3 C 4.208647 -2.393920 0.828785 0
M  V30 4 C 4.720228 -1.138167 1.141001 0
M  V30 5 C 4.443277 -0.071483 0.310770 0
M  V30 6 C 3.657155 -0.238430 -0.836034 0
M  V30 7 C 3.389694 0.965375 -1.699747 0
M  V30 8 C 2.128116 1.591901 -1.196136 0
M  V30 9 O 1.579185 1.023659 -0.218417 0
M  V30 10 N 1.558338 2.751718 -1.760224 0
M  V30 11 C 0.363851 3.371168 -1.308876 0
M  V30 12 C -0.478956 3.008562 -0.281669 0
M  V30 13 C -1.530529 3.896848 -0.186897 0
M  V30 14 C -2.709320 3.944905 0.749733 0 CFG=2
M  V30 15 C -2.194333 3.941645 2.167267 0
M  V30 16 C -2.209444 2.503321 2.610366 0
M  V30 17 C -3.148102 1.799024 1.684417 0 CFG=2
M  V30 18 O -2.470522 0.645313 1.176075 0
M  V30 19 C -2.957659 -0.605510 1.449847 0
M  V30 20 O -3.967173 -0.889629 2.120047 0
M  V30 21 N -2.160780 -1.627753 0.864468 0
M  V30 22 C -2.335715 -3.078468 0.916691 0 CFG=1
M  V30 23 C -2.642430 -3.603970 -0.455213 0
M  V30 24 C -2.409570 -5.098251 -0.536128 0
M  V30 25 C -0.907324 -5.267448 -0.307055 0 CFG=2
M  V30 26 O -0.430845 -6.491922 -0.698684 0
M  V30 27 C -0.723954 -5.020933 1.188730 0
M  V30 28 C -1.120977 -3.640404 1.559704 0
M  V30 29 C -3.551829 2.730710 0.603387 0
M  V30 30 N -1.290100 4.797185 -1.185398 0
M  V30 31 N -0.178536 4.474044 -1.830806 0
M  V30 32 C 3.177918 -1.505984 -1.094073 0
M  V30 33 N 3.455228 -2.537697 -0.276821 0
M  V30 34 H 3.077582 -4.738614 1.186989 0
M  V30 35 H 4.801205 -5.238602 0.882826 0
M  V30 36 H 4.137173 -5.225511 2.558843 0
M  V30 37 H 5.328763 -0.891941 1.984566 0
M  V30 38 H 4.815579 0.925028 0.505321 0
M  V30 39 H 4.195031 1.690160 -1.521840 0
M  V30 40 H 3.312497 0.646241 -2.753252 0
M  V30 41 H 2.089691 3.145625 -2.564983 0
M  V30 42 H -0.358719 2.172422 0.360039 0
M  V30 43 H -3.267052 4.891054 0.550803 0
M  V30 44 H -1.168876 4.382554 2.215241 0
M  V30 45 H -2.881761 4.503323 2.848558 0
M  V30 46 H -1.173254 2.115487 2.612884 0
M  V30 47 H -2.544801 2.419697 3.675944 0
M  V30 48 H -4.030279 1.433257 2.265666 0
M  V30 49 H -1.285588 -1.473172 0.279191 0
M  V30 50 H -3.243286 -3.256406 1.529240 0
M  V30 51 H -3.712960 -3.445941 -0.692509 0
M  V30 52 H -1.961337 -3.167165 -1.232971 0
M  V30 53 H -2.942202 -5.656036 0.266363 0
M  V30 54 H -2.687113 -5.456961 -1.549777 0
M  V30 55 H -0.382598 -4.408213 -0.814690 0
M  V30 56 H -0.971971 -6.848395 -1.467314 0
M  V30 57 H 0.357191 -5.147356 1.444942 0
M  V30 58 H -1.337170 -5.790174 1.688936 0
M  V30 59 H -1.283454 -3.639974 2.670665 0
M  V30 60 H -0.229171 -2.970286 1.396725 0
M  V30 61 H -3.487759 2.258921 -0.399776 0
M  V30 62 H -4.611829 3.050398 0.810223 0
M  V30 63 H -1.861788 5.629158 -1.442860 0
M  V30 64 H 2.573710 -1.643650 -1.972912 0
M  V30 END ATOM
M  V30 BEGIN BOND
M  V30 1 1 1 2
M  V30 2 1 2 3
M  V30 3 2 3 4
M  V30 4 1 4 5
M  V30 5 2 5 6
M  V30 6 1 6 7
M  V30 7 1 7 8
M  V30 8 2 8 9
M  V30 9 1 8 10
M  V30 10 1 10 11
M  V30 11 1 11 12
M  V30 12 2 12 13
M  V30 13 1 13 14
M  V30 14 1 14 15
M  V30 15 1 15 16
M  V30 16 1 16 17
M  V30 17 1 17 18
M  V30 18 1 18 19
M  V30 19 2 19 20
M  V30 20 1 19 21
M  V30 21 1 21 22
M  V30 22 1 22 23
M  V30 23 1 23 24
M  V30 24 1 24 25
M  V30 25 1 25 26
M  V30 26 1 25 27
M  V30 27 1 27 28
M  V30 28 1 17 29
M  V30 29 1 13 30
M  V30 30 1 30 31
M  V30 31 1 6 32
M  V30 32 2 32 33
M  V30 33 1 33 3
M  V30 34 2 31 11
M  V30 35 1 29 14
M  V30 36 1 28 22
M  V30 37 1 1 34
M  V30 38 1 1 35
M  V30 39 1 1 36
M  V30 40 1 4 37
M  V30 41 1 5 38
M  V30 42 1 7 39
M  V30 43 1 7 40
M  V30 44 1 10 41
M  V30 45 1 12 42
M  V30 46 1 14 43 CFG=3
M  V30 47 1 15 44
M  V30 48 1 15 45
M  V30 49 1 16 46
M  V30 50 1 16 47
M  V30 51 1 17 48 CFG=1
M  V30 52 1 21 49
M  V30 53 1 22 50 CFG=1
M  V30 54 1 23 51
M  V30 55 1 23 52
M  V30 56 1 24 53
M  V30 57 1 24 54
M  V30 58 1 25 55 CFG=3
M  V30 59 1 26 56
M  V30 60 1 27 57
M  V30 61 1 27 58
M  V30 62 1 28 59
M  V30 63 1 28 60
M  V30 64 1 29 61
M  V30 65 1 29 62
M  V30 66 1 30 63
M  V30 67 1 32 64
M  V30 END BOND
M  V30 END CTAB
M  END
>  <Dataset>  (284) 
ChEMBL_Kinases

>  <Ligand_Instance>  (284) 
nan

>  <PDB_ID>  (284) 
nan

>  <Standardized_SMILES>  (284) 
COc1ccc(CC(=O)Nc2cc([C@@H]3CC[C@H](OC(=O)N[C@H]4CC[C@H](O)CC4)C3)[nH]n2)cn1

>  <Name>  (284) 
nan

>  <Pocket>  (284) 
nan

>  <ATP_Site>  (284) 
nan

>  <Peripheral>  (284) 
nan

>  <Num_H_Atoms_ProtBoundConf>  (284) 
nan

>  <Num_Resolved_Atoms>  (284) 
nan

>  <Num_Not_Resolved_Atoms>  (284) 
nan

$$$$
CHEMBL4456985
     RDKit          3D

  0  0  0  0  0  0  0  0  0  0999 V3000
M  V30 BEGIN CTAB
M  V30 COUNTS 43 45 0 0 0
M  V30 BEGIN ATOM
M  V30 1 C -0.120227 -6.041356 2.019548 0
M  V30 2 O 0.684556 -4.987309 2.507730 0
M  V30 3 C 1.278359 -4.107200 1.615637 0
M  V30 4 O 1.007463 -4.376111 0.397270 0
M  V30 5 C 2.148789 -2.942007 1.854644 0
M  V30 6 C 1.416245 -1.628869 1.888308 0
M  V30 7 C 0.716601 -1.390311 0.567602 0
M  V30 8 N 0.007815 -0.136458 0.577178 0
M  V30 9 C 0.548866 1.070719 0.236412 0
M  V30 10 C 1.842937 1.391279 -0.180224 0
M  V30 11 C 2.186958 2.706110 -0.481760 0
M  V30 12 O 3.434470 3.116658 -0.899220 0
M  V30 13 C 4.491342 2.185219 -1.055130 0
M  V30 14 C 1.254528 3.718900 -0.374524 0
M  V30 15 C -0.027454 3.385057 0.040526 0
M  V30 16 C -0.374470 2.091619 0.339639 0
M  V30 17 C -1.534381 1.474801 0.763868 0
M  V30 18 C -2.760258 2.064511 1.016182 0
M  V30 19 C -3.756257 1.200566 1.427223 0
M  V30 20 N -3.522824 -0.114425 1.563548 0
M  V30 21 C -2.312766 -0.695494 1.314528 0
M  V30 22 C -2.118809 -2.153665 1.467787 0
M  V30 23 C -1.277635 0.125005 0.900028 0
M  V30 24 H -1.042452 -6.213842 2.631036 0
M  V30 25 H 0.438835 -7.010298 2.070231 0
M  V30 26 H -0.447535 -5.848208 0.976754 0
M  V30 27 H 2.976615 -2.911503 1.095051 0
M  V30 28 H 2.697607 -3.063810 2.828230 0
M  V30 29 H 0.786558 -1.540954 2.770236 0
M  V30 30 H 2.200503 -0.815030 1.945382 0
M  V30 31 H 1.564503 -1.277113 -0.173269 0
M  V30 32 H 0.143029 -2.231897 0.190086 0
M  V30 33 H 2.633622 0.668542 -0.292725 0
M  V30 34 H 4.511919 1.546618 -0.165479 0
M  V30 35 H 5.442458 2.745549 -1.154800 0
M  V30 36 H 4.342169 1.578401 -1.988981 0
M  V30 37 H 1.449257 4.768724 -0.591725 0
M  V30 38 H -0.770439 4.187701 0.124715 0
M  V30 39 H -2.894431 3.136994 0.890001 0
M  V30 40 H -4.738889 1.626418 1.635923 0
M  V30 41 H -2.174233 -2.687147 0.483175 0
M  V30 42 H -3.051581 -2.531234 1.991346 0
M  V30 43 H -1.306400 -2.464529 2.116806 0
M  V30 END ATOM
M  V30 BEGIN BOND
M  V30 1 1 1 2
M  V30 2 1 2 3
M  V30 3 2 3 4
M  V30 4 1 3 5
M  V30 5 1 5 6
M  V30 6 1 6 7
M  V30 7 1 7 8
M  V30 8 1 8 9
M  V30 9 2 9 10
M  V30 10 1 10 11
M  V30 11 1 11 12
M  V30 12 1 12 13
M  V30 13 2 11 14
M  V30 14 1 14 15
M  V30 15 2 15 16
M  V30 16 1 16 17
M  V30 17 2 17 18
M  V30 18 1 18 19
M  V30 19 2 19 20
M  V30 20 1 20 21
M  V30 21 1 21 22
M  V30 22 2 21 23
M  V30 23 1 23 8
M  V30 24 1 16 9
M  V30 25 1 23 17
M  V30 26 1 1 24
M  V30 27 1 1 25
M  V30 28 1 1 26
M  V30 29 1 5 27
M  V30 30 1 5 28
M  V30 31 1 6 29
M  V30 32 1 6 30
M  V30 33 1 7 31
M  V30 34 1 7 32
M  V30 35 1 10 33
M  V30 36 1 13 34
M  V30 37 1 13 35
M  V30 38 1 13 36
M  V30 39 1 14 37
M  V30 40 1 15 38
M  V30 41 1 18 39
M  V30 42 1 19 40
M  V30 43 1 22 41
M  V30 44 1 22 42
M  V30 45 1 22 43
M  V30 END BOND
M  V30 END CTAB
M  END
>  <Dataset>  (285) 
ChEMBL_Kinases

>  <Ligand_Instance>  (285) 
nan

>  <PDB_ID>  (285) 
nan

>  <Standardized_SMILES>  (285) 
COC(=O)CCCn1c2cc(OC)ccc2c2ccnc(C)c21

>  <Name>  (285) 
nan

>  <Pocket>  (285) 
nan

>  <ATP_Site>  (285) 
nan

>  <Peripheral>  (285) 
nan

>  <Num_H_Atoms_ProtBoundConf>  (285) 
nan

>  <Num_Resolved_Atoms>  (285) 
nan

>  <Num_Not_Resolved_Atoms>  (285) 
nan

$$$$
CHEMBL4744126
     RDKit          3D

  0  0  0  0  0  0  0  0  0  0999 V3000
M  V30 BEGIN CTAB
M  V30 COUNTS 45 48 0 0 0
M  V30 BEGIN ATOM
M  V30 1 O -0.743219 -4.624402 0.339240 0
M  V30 2 C 0.366370 -5.023481 0.772932 0
M  V30 3 N 1.674089 -4.425477 0.678765 0
M  V30 4 C 1.647474 -3.171069 -0.036926 0
M  V30 5 C 1.806787 -2.952020 -1.401106 0
M  V30 6 N 1.693679 -1.611342 -1.526116 0
M  V30 7 N 1.483989 -1.061430 -0.343197 0
M  V30 8 C 1.319637 0.393741 -0.164805 0
M  V30 9 C 2.214625 1.212101 0.498128 0
M  V30 10 C 1.888027 2.525818 0.557648 0
M  V30 11 C 0.776203 2.988855 0.010735 0
M  V30 12 C 0.173937 4.313154 -0.084821 0
M  V30 13 O -0.937315 4.413295 -0.699248 0
M  V30 14 N 0.881183 5.373095 0.516309 0
M  V30 15 C 0.328942 6.701127 0.449964 0
M  V30 16 C 1.374766 7.672015 -0.072913 0
M  V30 17 N 1.541741 8.281054 1.217142 0
M  V30 18 C 0.373350 7.544079 1.677266 0
M  V30 19 S 0.004536 1.550591 -0.697827 0
M  V30 20 C 1.442983 -1.963880 0.626306 0
M  V30 21 N 0.213017 -6.267914 1.449315 0
M  V30 22 C -1.106308 -6.840221 1.526757 0
M  V30 23 C -1.776950 -6.407142 2.671545 0
M  V30 24 C -3.066203 -6.832345 2.951919 0
M  V30 25 C -3.659833 -7.700543 2.054353 0
M  V30 26 C -2.991418 -8.136124 0.907348 0
M  V30 27 C -1.708444 -7.704148 0.641844 0
M  V30 28 Cl -0.743252 -8.150947 -0.736269 0
M  V30 29 H 2.458930 -4.951779 1.123779 0
M  V30 30 H 1.978303 -3.716452 -2.138696 0
M  V30 31 H 3.130908 0.786113 0.940557 0
M  V30 32 H 2.523339 3.276302 1.059934 0
M  V30 33 H 1.790840 5.212454 1.004554 0
M  V30 34 H -0.634521 6.719993 -0.095473 0
M  V30 35 H 0.989979 8.405708 -0.804886 0
M  V30 36 H 2.312400 7.191868 -0.455316 0
M  V30 37 H 2.443864 8.050054 1.691855 0
M  V30 38 H 0.607859 7.014406 2.621601 0
M  V30 39 H -0.489547 8.241660 1.772120 0
M  V30 40 H 1.286091 -1.785600 1.681788 0
M  V30 41 H 1.025985 -6.785415 1.894610 0
M  V30 42 H -1.374938 -5.725411 3.422565 0
M  V30 43 H -3.610632 -6.509144 3.837935 0
M  V30 44 H -4.656641 -8.078030 2.196716 0
M  V30 45 H -3.425778 -8.816173 0.182218 0
M  V30 END ATOM
M  V30 BEGIN BOND
M  V30 1 2 1 2
M  V30 2 1 2 3
M  V30 3 1 3 4
M  V30 4 1 4 5
M  V30 5 2 5 6
M  V30 6 1 6 7
M  V30 7 1 7 8
M  V30 8 2 8 9
M  V30 9 1 9 10
M  V30 10 2 10 11
M  V30 11 1 11 12
M  V30 12 2 12 13
M  V30 13 1 12 14
M  V30 14 1 14 15
M  V30 15 1 15 16
M  V30 16 1 16 17
M  V30 17 1 17 18
M  V30 18 1 11 19
M  V30 19 1 7 20
M  V30 20 1 2 21
M  V30 21 1 21 22
M  V30 22 2 22 23
M  V30 23 1 23 24
M  V30 24 2 24 25
M  V30 25 1 25 26
M  V30 26 2 26 27
M  V30 27 1 27 28
M  V30 28 2 20 4
M  V30 29 1 27 22
M  V30 30 1 19 8
M  V30 31 1 18 15
M  V30 32 1 3 29
M  V30 33 1 5 30
M  V30 34 1 9 31
M  V30 35 1 10 32
M  V30 36 1 14 33
M  V30 37 1 15 34
M  V30 38 1 16 35
M  V30 39 1 16 36
M  V30 40 1 17 37
M  V30 41 1 18 38
M  V30 42 1 18 39
M  V30 43 1 20 40
M  V30 44 1 21 41
M  V30 45 1 23 42
M  V30 46 1 24 43
M  V30 47 1 25 44
M  V30 48 1 26 45
M  V30 END BOND
M  V30 END CTAB
M  END
>  <Dataset>  (286) 
ChEMBL_Kinases

>  <Ligand_Instance>  (286) 
nan

>  <PDB_ID>  (286) 
nan

>  <Standardized_SMILES>  (286) 
O=C(Nc1cnn(-c2ccc(C(=O)NC3CNC3)s2)c1)Nc1ccccc1Cl

>  <Name>  (286) 
nan

>  <Pocket>  (286) 
nan

>  <ATP_Site>  (286) 
nan

>  <Peripheral>  (286) 
nan

>  <Num_H_Atoms_ProtBoundConf>  (286) 
nan

>  <Num_Resolved_Atoms>  (286) 
nan

>  <Num_Not_Resolved_Atoms>  (286) 
nan

$$$$
CHEMBL4744172
     RDKit          3D

  0  0  0  0  0  0  0  0  0  0999 V3000
M  V30 BEGIN CTAB
M  V30 COUNTS 39 42 0 0 0
M  V30 BEGIN ATOM
M  V30 1 O 1.979253 -2.460731 -0.927403 0
M  V30 2 C 1.788865 -2.302790 0.328695 0
M  V30 3 N 2.048146 -1.022959 0.887293 0
M  V30 4 C 2.496134 0.211199 0.353791 0
M  V30 5 C 3.841063 0.569982 0.221799 0
M  V30 6 N 3.899881 1.799402 -0.311732 0
M  V30 7 N 2.685968 2.226083 -0.519493 0
M  V30 8 C 1.775621 1.302532 -0.134470 0
M  V30 9 C 0.312260 1.405332 -0.193026 0
M  V30 10 C -0.285749 0.369486 -0.860565 0
M  V30 11 C -1.677789 0.322142 -1.001573 0
M  V30 12 Cl -2.541553 -0.937777 -1.826630 0
M  V30 13 C -2.416215 1.366151 -0.437515 0
M  V30 14 C -1.765624 2.378905 0.219309 0
M  V30 15 C -0.402559 2.469288 0.383114 0
M  V30 16 O 0.439056 3.372186 0.987863 0
M  V30 17 C -0.093088 4.507601 1.626110 0
M  V30 18 F 0.303911 5.653101 0.898716 0
M  V30 19 F 0.491470 4.696270 2.887424 0
M  V30 20 C 1.321242 -3.457485 1.072196 0
M  V30 21 C 1.924499 -4.611329 1.590655 0
M  V30 22 N 0.919314 -5.287592 2.175307 0
M  V30 23 N -0.227478 -4.677173 2.072030 0
M  V30 24 C -1.393589 -5.125689 2.562005 0
M  V30 25 C -2.533872 -4.341647 2.360232 0
M  V30 26 C -2.344113 -3.147557 1.655974 0
M  V30 27 N -1.127663 -2.787125 1.204457 0
M  V30 28 C -0.037881 -3.545406 1.402516 0
M  V30 29 H 1.884991 -0.924026 1.922356 0
M  V30 30 H 4.685825 -0.044958 0.506015 0
M  V30 31 H 4.774306 2.365287 -0.541902 0
M  V30 32 H 0.161801 -0.469538 -1.328987 0
M  V30 33 H -3.488324 1.465390 -0.470930 0
M  V30 34 H -2.289593 3.203636 0.668685 0
M  V30 35 H -1.202847 4.529917 1.676930 0
M  V30 36 H 2.984018 -4.754259 1.451893 0
M  V30 37 H -1.592960 -6.022445 3.100560 0
M  V30 38 H -3.562352 -4.499306 2.659470 0
M  V30 39 H -3.147410 -2.434904 1.424945 0
M  V30 END ATOM
M  V30 BEGIN BOND
M  V30 1 2 1 2
M  V30 2 1 2 3
M  V30 3 1 3 4
M  V30 4 2 4 5
M  V30 5 1 5 6
M  V30 6 1 6 7
M  V30 7 2 7 8
M  V30 8 1 8 9
M  V30 9 2 9 10
M  V30 10 1 10 11
M  V30 11 1 11 12
M  V30 12 2 11 13
M  V30 13 1 13 14
M  V30 14 2 14 15
M  V30 15 1 15 16
M  V30 16 1 16 17
M  V30 17 1 17 18
M  V30 18 1 17 19
M  V30 19 1 2 20
M  V30 20 1 20 21
M  V30 21 2 21 22
M  V30 22 1 22 23
M  V30 23 1 23 24
M  V30 24 2 24 25
M  V30 25 1 25 26
M  V30 26 2 26 27
M  V30 27 1 27 28
M  V30 28 1 8 4
M  V30 29 1 15 9
M  V30 30 2 28 20
M  V30 31 1 28 23
M  V30 32 1 3 29
M  V30 33 1 5 30
M  V30 34 1 6 31
M  V30 35 1 10 32
M  V30 36 1 13 33
M  V30 37 1 14 34
M  V30 38 1 17 35
M  V30 39 1 21 36
M  V30 40 1 24 37
M  V30 41 1 25 38
M  V30 42 1 26 39
M  V30 END BOND
M  V30 END CTAB
M  END
>  <Dataset>  (287) 
ChEMBL_Kinases

>  <Ligand_Instance>  (287) 
nan

>  <PDB_ID>  (287) 
nan

>  <Standardized_SMILES>  (287) 
O=C(Nc1c[nH]nc1-c1cc(Cl)ccc1OC(F)F)c1cnn2cccnc12

>  <Name>  (287) 
nan

>  <Pocket>  (287) 
nan

>  <ATP_Site>  (287) 
nan

>  <Peripheral>  (287) 
nan

>  <Num_H_Atoms_ProtBoundConf>  (287) 
nan

>  <Num_Resolved_Atoms>  (287) 
nan

>  <Num_Not_Resolved_Atoms>  (287) 
nan

$$$$
CHEMBL4457809
     RDKit          3D

  0  0  0  0  0  0  0  0  0  0999 V3000
M  V30 BEGIN CTAB
M  V30 COUNTS 80 84 0 0 0
M  V30 BEGIN ATOM
M  V30 1 C -1.570235 -0.826834 6.966505 0
M  V30 2 C -2.365998 -1.375613 5.760117 0
M  V30 3 O -1.835814 -1.015695 4.637114 0
M  V30 4 C -1.336956 -0.462664 3.574678 0
M  V30 5 C -1.314238 0.906510 3.483667 0
M  V30 6 C -0.810988 1.599076 2.406795 0
M  V30 7 C -0.828633 3.055038 2.408387 0
M  V30 8 O -1.274503 3.671306 3.399174 0
M  V30 9 N -0.352744 3.796519 1.313447 0
M  V30 10 C -0.291216 5.251172 1.139257 0
M  V30 11 C -1.149889 5.681555 -0.031402 0
M  V30 12 C -0.343657 6.457120 -1.053330 0
M  V30 13 N 0.394262 7.516807 -0.394120 0
M  V30 14 C 0.988252 8.376058 -1.397583 0
M  V30 15 C 1.438381 6.930119 0.385184 0
M  V30 16 C 1.150765 5.591331 0.966709 0
M  V30 17 C -0.310236 0.846091 1.380701 0
M  V30 18 C -0.322094 -0.524441 1.449205 0
M  V30 19 C -0.826505 -1.245012 2.529811 0
M  V30 20 N -0.841318 -2.661048 2.611366 0
M  V30 21 C -0.373613 -3.621304 1.673501 0
M  V30 22 N -0.490551 -4.907677 1.992184 0
M  V30 23 C -0.106063 -5.944872 1.239078 0
M  V30 24 C 0.457565 -5.619232 0.031576 0
M  V30 25 C 0.596134 -4.296397 -0.336914 0
M  V30 26 N 0.178631 -3.333591 0.490833 0
M  V30 27 N 1.174355 -3.977380 -1.596383 0
M  V30 28 C 0.770462 -2.810185 -2.323833 0
M  V30 29 C -0.664014 -2.783025 -2.702876 0
M  V30 30 C -1.008372 -3.387910 -3.911976 0
M  V30 31 C -2.300159 -3.425451 -4.374235 0
M  V30 32 C -3.339514 -2.852046 -3.644535 0
M  V30 33 C -3.008458 -2.250438 -2.445469 0
M  V30 34 C -1.720737 -2.229731 -2.015418 0
M  V30 35 C 2.190736 -4.885995 -2.123404 0 CFG=2
M  V30 36 C 2.726710 -4.495454 -3.460951 0
M  V30 37 C 3.773825 -5.542720 -3.862851 0
M  V30 38 C 1.529934 -6.218333 -2.135768 0
M  V30 39 O 1.406514 -7.061834 -3.060221 0
M  V30 40 N 0.933311 -6.606573 -0.886078 0
M  V30 41 C 0.762831 -8.002494 -0.455474 0
M  V30 42 H -0.570508 -1.263338 6.958847 0
M  V30 43 H -2.158968 -1.052497 7.876959 0
M  V30 44 H -1.508664 0.271500 6.835436 0
M  V30 45 H -2.411238 -2.499302 5.930488 0
M  V30 46 H -3.421151 -0.993492 5.885520 0
M  V30 47 H -1.713292 1.507360 4.300082 0
M  V30 48 H 0.033963 3.370210 0.447065 0
M  V30 49 H -0.663999 5.685249 2.081655 0
M  V30 50 H -1.931960 6.352638 0.353798 0
M  V30 51 H -1.628058 4.835795 -0.557567 0
M  V30 52 H 0.359650 5.832369 -1.626183 0
M  V30 53 H -1.003480 6.957494 -1.785339 0
M  V30 54 H 1.037662 7.807544 -2.350033 0
M  V30 55 H 0.446935 9.331706 -1.542475 0
M  V30 56 H 2.033541 8.595371 -1.120861 0
M  V30 57 H 2.354915 6.827809 -0.266351 0
M  V30 58 H 1.738879 7.677374 1.154318 0
M  V30 59 H 1.635663 5.565048 1.985761 0
M  V30 60 H 1.626772 4.754149 0.389219 0
M  V30 61 H 0.089979 1.347936 0.527492 0
M  V30 62 H 0.092285 -1.034504 0.597472 0
M  V30 63 H -1.264243 -3.020879 3.504596 0
M  V30 64 H -0.221782 -6.971703 1.542014 0
M  V30 65 H 0.920254 -1.947677 -1.621329 0
M  V30 66 H 1.348527 -2.676036 -3.256064 0
M  V30 67 H -0.343641 -3.874657 -4.597389 0
M  V30 68 H -2.634824 -3.875094 -5.297349 0
M  V30 69 H -4.375063 -2.839867 -3.938347 0
M  V30 70 H -3.766698 -1.784665 -1.826162 0
M  V30 71 H -1.464890 -1.754602 -1.080902 0
M  V30 72 H 3.030140 -4.942383 -1.402409 0
M  V30 73 H 3.216781 -3.529029 -3.497084 0
M  V30 74 H 1.920763 -4.535631 -4.207581 0
M  V30 75 H 3.961638 -6.275145 -3.049734 0
M  V30 76 H 4.779413 -5.063841 -4.029219 0
M  V30 77 H 3.515473 -6.022322 -4.831245 0
M  V30 78 H -0.333261 -8.248138 -0.380623 0
M  V30 79 H 1.144652 -8.640033 -1.279402 0
M  V30 80 H 1.213087 -8.218015 0.510265 0
M  V30 END ATOM
M  V30 BEGIN BOND
M  V30 1 1 1 2
M  V30 2 1 2 3
M  V30 3 1 3 4
M  V30 4 2 4 5
M  V30 5 1 5 6
M  V30 6 1 6 7
M  V30 7 2 7 8
M  V30 8 1 7 9
M  V30 9 1 9 10
M  V30 10 1 10 11
M  V30 11 1 11 12
M  V30 12 1 12 13
M  V30 13 1 13 14
M  V30 14 1 13 15
M  V30 15 1 15 16
M  V30 16 2 6 17
M  V30 17 1 17 18
M  V30 18 2 18 19
M  V30 19 1 19 20
M  V30 20 1 20 21
M  V30 21 2 21 22
M  V30 22 1 22 23
M  V30 23 2 23 24
M  V30 24 1 24 25
M  V30 25 2 25 26
M  V30 26 1 25 27
M  V30 27 1 27 28
M  V30 28 1 28 29
M  V30 29 2 29 30
M  V30 30 1 30 31
M  V30 31 2 31 32
M  V30 32 1 32 33
M  V30 33 2 33 34
M  V30 34 1 27 35
M  V30 35 1 35 36
M  V30 36 1 36 37
M  V30 37 1 35 38
M  V30 38 2 38 39
M  V30 39 1 38 40
M  V30 40 1 40 41
M  V30 41 1 19 4
M  V30 42 1 26 21
M  V30 43 1 34 29
M  V30 44 1 16 10
M  V30 45 1 40 24
M  V30 46 1 1 42
M  V30 47 1 1 43
M  V30 48 1 1 44
M  V30 49 1 2 45
M  V30 50 1 2 46
M  V30 51 1 5 47
M  V30 52 1 9 48
M  V30 53 1 10 49
M  V30 54 1 11 50
M  V30 55 1 11 51
M  V30 56 1 12 52
M  V30 57 1 12 53
M  V30 58 1 14 54
M  V30 59 1 14 55
M  V30 60 1 14 56
M  V30 61 1 15 57
M  V30 62 1 15 58
M  V30 63 1 16 59
M  V30 64 1 16 60
M  V30 65 1 17 61
M  V30 66 1 18 62
M  V30 67 1 20 63
M  V30 68 1 23 64
M  V30 69 1 28 65
M  V30 70 1 28 66
M  V30 71 1 30 67
M  V30 72 1 31 68
M  V30 73 1 32 69
M  V30 74 1 33 70
M  V30 75 1 34 71
M  V30 76 1 35 72 CFG=1
M  V30 77 1 36 73
M  V30 78 1 36 74
M  V30 79 1 37 75
M  V30 80 1 37 76
M  V30 81 1 37 77
M  V30 82 1 41 78
M  V30 83 1 41 79
M  V30 84 1 41 80
M  V30 END BOND
M  V30 END CTAB
M  END
>  <Dataset>  (288) 
ChEMBL_Kinases

>  <Ligand_Instance>  (288) 
nan

>  <PDB_ID>  (288) 
nan

>  <Standardized_SMILES>  (288) 
CCOc1cc(C(=O)NC2CCN(C)CC2)ccc1Nc1ncc2c(n1)N(Cc1ccccc1)[C@H](CC)C(=O)N2C

>  <Name>  (288) 
nan

>  <Pocket>  (288) 
nan

>  <ATP_Site>  (288) 
nan

>  <Peripheral>  (288) 
nan

>  <Num_H_Atoms_ProtBoundConf>  (288) 
nan

>  <Num_Resolved_Atoms>  (288) 
nan

>  <Num_Not_Resolved_Atoms>  (288) 
nan

$$$$
CHEMBL4744283
     RDKit          3D

  0  0  0  0  0  0  0  0  0  0999 V3000
M  V30 BEGIN CTAB
M  V30 COUNTS 38 40 0 0 0
M  V30 BEGIN ATOM
M  V30 1 C 0.195300 3.635362 0.280886 0
M  V30 2 S 0.293872 1.955225 0.885404 0
M  V30 3 O 0.067246 1.910923 2.348791 0
M  V30 4 O 1.705025 1.500192 0.626010 0
M  V30 5 N -0.763466 0.991412 -0.020099 0
M  V30 6 C -2.144178 1.329947 0.044322 0
M  V30 7 C -2.992462 0.422055 -0.787651 0
M  V30 8 C -2.977344 -1.028692 -0.398794 0
M  V30 9 N -1.675254 -1.643275 -0.424302 0
M  V30 10 C -1.202933 -2.152670 -1.577383 0
M  V30 11 O -1.924181 -2.046623 -2.614065 0
M  V30 12 C 0.021215 -2.779809 -1.679825 0
M  V30 13 C 0.418699 -3.268424 -2.901759 0
M  V30 14 C 1.658616 -3.874351 -2.884594 0
M  V30 15 F 2.118118 -4.385782 -4.074372 0
M  V30 16 C 2.459471 -4.000498 -1.767662 0
M  V30 17 C 1.981811 -3.480290 -0.578447 0
M  V30 18 C 0.761007 -2.866119 -0.521923 0
M  V30 19 N 0.286271 -2.358602 0.620982 0
M  V30 20 C 0.809789 -2.333252 1.850233 0
M  V30 21 S 2.206481 -2.877488 2.473528 0
M  V30 22 N -0.034787 -1.725296 2.684775 0
M  V30 23 N -1.104441 -1.355985 2.000548 0
M  V30 24 C -0.909253 -1.749826 0.705338 0
M  V30 25 H 0.159491 3.612020 -0.820411 0
M  V30 26 H 1.061418 4.189931 0.683329 0
M  V30 27 H -0.711872 4.081964 0.740910 0
M  V30 28 H -0.432177 0.621452 -0.908261 0
M  V30 29 H -2.528236 1.465054 1.068964 0
M  V30 30 H -2.229325 2.351224 -0.431824 0
M  V30 31 H -4.044882 0.804515 -0.887070 0
M  V30 32 H -2.609244 0.436207 -1.855262 0
M  V30 33 H -3.419444 -1.205340 0.606285 0
M  V30 34 H -3.589987 -1.555326 -1.188602 0
M  V30 35 H -0.188842 -3.182044 -3.787938 0
M  V30 36 H 3.424375 -4.497080 -1.858778 0
M  V30 37 H 2.656479 -3.615454 0.241181 0
M  V30 38 H -0.044493 -1.483954 3.712810 0
M  V30 END ATOM
M  V30 BEGIN BOND
M  V30 1 1 1 2
M  V30 2 2 2 3
M  V30 3 2 2 4
M  V30 4 1 2 5
M  V30 5 1 5 6
M  V30 6 1 6 7
M  V30 7 1 7 8
M  V30 8 1 8 9
M  V30 9 1 9 10
M  V30 10 2 10 11
M  V30 11 1 10 12
M  V30 12 2 12 13
M  V30 13 1 13 14
M  V30 14 1 14 15
M  V30 15 2 14 16
M  V30 16 1 16 17
M  V30 17 2 17 18
M  V30 18 1 18 19
M  V30 19 1 19 20
M  V30 20 2 20 21
M  V30 21 1 20 22
M  V30 22 1 22 23
M  V30 23 2 23 24
M  V30 24 1 24 9
M  V30 25 1 18 12
M  V30 26 1 24 19
M  V30 27 1 1 25
M  V30 28 1 1 26
M  V30 29 1 1 27
M  V30 30 1 5 28
M  V30 31 1 6 29
M  V30 32 1 6 30
M  V30 33 1 7 31
M  V30 34 1 7 32
M  V30 35 1 8 33
M  V30 36 1 8 34
M  V30 37 1 13 35
M  V30 38 1 16 36
M  V30 39 1 17 37
M  V30 40 1 22 38
M  V30 END BOND
M  V30 END CTAB
M  END
>  <Dataset>  (289) 
ChEMBL_Kinases

>  <Ligand_Instance>  (289) 
nan

>  <PDB_ID>  (289) 
nan

>  <Standardized_SMILES>  (289) 
CS(=O)(=O)NCCCn1c(=O)c2cc(F)ccc2n2c(=S)[nH]nc12

>  <Name>  (289) 
nan

>  <Pocket>  (289) 
nan

>  <ATP_Site>  (289) 
nan

>  <Peripheral>  (289) 
nan

>  <Num_H_Atoms_ProtBoundConf>  (289) 
nan

>  <Num_Resolved_Atoms>  (289) 
nan

>  <Num_Not_Resolved_Atoms>  (289) 
nan

$$$$
CHEMBL4457647
     RDKit          3D

  0  0  0  0  0  0  0  0  0  0999 V3000
M  V30 BEGIN CTAB
M  V30 COUNTS 51 54 0 0 0
M  V30 BEGIN ATOM
M  V30 1 O 1.470497 0.250716 -1.565565 0
M  V30 2 C 0.626261 -0.376342 -0.872463 0
M  V30 3 N 0.000090 -1.380156 -1.642554 0
M  V30 4 C 0.227251 -1.704097 -3.004016 0
M  V30 5 C 1.206968 -2.660998 -3.263508 0
M  V30 6 C 1.445136 -2.996007 -4.599726 0
M  V30 7 N 0.777518 -2.441432 -5.633983 0
M  V30 8 N -0.147237 -1.535056 -5.349233 0
M  V30 9 C -0.451530 -1.143190 -4.093383 0
M  V30 10 C 0.396329 -0.042697 0.519437 0
M  V30 11 C 1.153357 1.002998 1.041215 0
M  V30 12 C 1.035649 1.423197 2.342425 0
M  V30 13 N 1.838536 2.491405 2.800586 0
M  V30 14 C 2.733951 3.149378 1.867246 0
M  V30 15 C 3.632937 4.056256 2.681043 0
M  V30 16 O 4.215316 3.343418 3.718456 0
M  V30 17 C 3.308929 2.912215 4.652843 0
M  V30 18 C 1.863575 3.013719 4.149386 0
M  V30 19 C 0.144005 0.808117 3.189457 0
M  V30 20 C -0.623013 -0.230551 2.710412 0
M  V30 21 C -0.474683 -0.614475 1.416766 0
M  V30 22 O -1.236571 -1.643752 0.947985 0
M  V30 23 C -2.169690 -2.315797 1.766828 0
M  V30 24 C -2.843312 -3.388819 0.974964 0
M  V30 25 C -4.009098 -3.133999 0.258617 0
M  V30 26 C -4.675282 -4.086654 -0.491029 0
M  V30 27 C -4.100582 -5.340859 -0.487654 0
M  V30 28 C -2.948375 -5.665496 0.197699 0
M  V30 29 C -2.323428 -4.680404 0.929399 0
M  V30 30 H -0.715398 -1.969101 -1.194859 0
M  V30 31 H 1.768788 -3.135286 -2.477932 0
M  V30 32 H 2.211841 -3.742105 -4.775147 0
M  V30 33 H -1.196950 -0.411055 -3.856756 0
M  V30 34 H 1.865415 1.513501 0.406086 0
M  V30 35 H 2.182438 3.728542 1.101640 0
M  V30 36 H 3.404470 2.360265 1.419140 0
M  V30 37 H 3.058421 4.894083 3.138355 0
M  V30 38 H 4.441472 4.491699 2.056182 0
M  V30 39 H 3.524459 1.831003 4.867140 0
M  V30 40 H 3.343444 3.522410 5.590058 0
M  V30 41 H 1.533972 4.073724 4.202446 0
M  V30 42 H 1.267994 2.460611 4.876961 0
M  V30 43 H -0.014534 1.073244 4.224869 0
M  V30 44 H -1.343273 -0.746388 3.351003 0
M  V30 45 H -3.002970 -1.628180 2.094983 0
M  V30 46 H -1.715329 -2.807420 2.640987 0
M  V30 47 H -4.357180 -2.119710 0.334886 0
M  V30 48 H -5.579811 -3.845399 -1.034316 0
M  V30 49 H -4.560327 -6.143447 -1.049355 0
M  V30 50 H -2.521428 -6.662729 0.180132 0
M  V30 51 H -1.421319 -4.935604 1.466506 0
M  V30 END ATOM
M  V30 BEGIN BOND
M  V30 1 2 1 2
M  V30 2 1 2 3
M  V30 3 1 3 4
M  V30 4 2 4 5
M  V30 5 1 5 6
M  V30 6 2 6 7
M  V30 7 1 7 8
M  V30 8 2 8 9
M  V30 9 1 2 10
M  V30 10 2 10 11
M  V30 11 1 11 12
M  V30 12 1 12 13
M  V30 13 1 13 14
M  V30 14 1 14 15
M  V30 15 1 15 16
M  V30 16 1 16 17
M  V30 17 1 17 18
M  V30 18 2 12 19
M  V30 19 1 19 20
M  V30 20 2 20 21
M  V30 21 1 21 22
M  V30 22 1 22 23
M  V30 23 1 23 24
M  V30 24 2 24 25
M  V30 25 1 25 26
M  V30 26 2 26 27
M  V30 27 1 27 28
M  V30 28 2 28 29
M  V30 29 1 9 4
M  V30 30 1 21 10
M  V30 31 1 29 24
M  V30 32 1 18 13
M  V30 33 1 3 30
M  V30 34 1 5 31
M  V30 35 1 6 32
M  V30 36 1 9 33
M  V30 37 1 11 34
M  V30 38 1 14 35
M  V30 39 1 14 36
M  V30 40 1 15 37
M  V30 41 1 15 38
M  V30 42 1 17 39
M  V30 43 1 17 40
M  V30 44 1 18 41
M  V30 45 1 18 42
M  V30 46 1 19 43
M  V30 47 1 20 44
M  V30 48 1 23 45
M  V30 49 1 23 46
M  V30 50 1 25 47
M  V30 51 1 26 48
M  V30 52 1 27 49
M  V30 53 1 28 50
M  V30 54 1 29 51
M  V30 END BOND
M  V30 END CTAB
M  END
>  <Dataset>  (290) 
ChEMBL_Kinases

>  <Ligand_Instance>  (290) 
nan

>  <PDB_ID>  (290) 
nan

>  <Standardized_SMILES>  (290) 
O=C(Nc1ccnnc1)c1cc(N2CCOCC2)ccc1OCc1ccccc1

>  <Name>  (290) 
nan

>  <Pocket>  (290) 
nan

>  <ATP_Site>  (290) 
nan

>  <Peripheral>  (290) 
nan

>  <Num_H_Atoms_ProtBoundConf>  (290) 
nan

>  <Num_Resolved_Atoms>  (290) 
nan

>  <Num_Not_Resolved_Atoms>  (290) 
nan

$$$$
CHEMBL474433
     RDKit          3D

  0  0  0  0  0  0  0  0  0  0999 V3000
M  V30 BEGIN CTAB
M  V30 COUNTS 60 65 0 0 0
M  V30 BEGIN ATOM
M  V30 1 C 4.823767 -0.591959 6.639544 0
M  V30 2 N 4.114570 -0.959289 5.451357 0
M  V30 3 C 3.068306 -0.060520 5.071092 0
M  V30 4 C 3.635431 1.145832 4.384821 0
M  V30 5 N 4.394160 0.820366 3.189713 0
M  V30 6 C 4.340924 1.147193 1.785548 0
M  V30 7 C 5.390628 1.778947 1.171893 0
M  V30 8 C 5.284251 2.068823 -0.177550 0
M  V30 9 C 4.144225 1.728564 -0.890642 0
M  V30 10 C 3.112447 1.102165 -0.265875 0
M  V30 11 N 1.901041 0.635467 -0.604834 0
M  V30 12 C 1.223171 0.080045 0.379069 0
M  V30 13 C -0.067070 -0.551499 0.556055 0
M  V30 14 N -0.550741 -1.064543 1.723811 0
M  V30 15 N -1.744341 -1.569443 1.570152 0
M  V30 16 C -2.161459 -1.440412 0.297970 0
M  V30 17 C -3.307747 -1.790335 -0.388475 0
M  V30 18 C -3.426407 -1.507484 -1.732643 0
M  V30 19 C -4.639761 -1.881113 -2.446829 0
M  V30 20 C -5.123604 -1.158655 -3.513441 0
M  V30 21 C -6.286353 -1.512021 -4.202164 0
M  V30 22 C -6.996986 -2.642582 -3.802582 0
M  V30 23 C -8.235666 -3.074556 -4.486031 0
M  V30 24 N -7.929426 -3.987689 -5.576059 0
M  V30 25 C -6.530809 -3.392102 -2.726969 0
M  V30 26 C -5.374265 -3.002355 -2.076257 0
M  V30 27 C -2.381258 -0.872914 -2.365557 0
M  V30 28 C -1.256190 -0.541634 -1.643195 0
M  V30 29 C -1.100550 -0.804083 -0.313304 0
M  V30 30 N 2.088352 0.212814 1.421178 0
M  V30 31 C 3.211293 0.810343 1.077701 0
M  V30 32 C 5.458392 -0.064142 3.606146 0
M  V30 33 C 4.927744 -1.284625 4.324392 0
M  V30 34 H 4.803941 0.485444 6.878327 0
M  V30 35 H 5.872513 -0.935112 6.656105 0
M  V30 36 H 4.323995 -1.089251 7.510767 0
M  V30 37 H 2.439867 -0.588375 4.311651 0
M  V30 38 H 2.451194 0.294832 5.903163 0
M  V30 39 H 4.306926 1.734684 5.065369 0
M  V30 40 H 2.779731 1.819883 4.165807 0
M  V30 41 H 6.280122 2.048483 1.712338 0
M  V30 42 H 6.085400 2.566422 -0.707437 0
M  V30 43 H 4.010465 1.936684 -1.963541 0
M  V30 44 H 1.560262 0.722260 -1.569986 0
M  V30 45 H -2.265128 -2.004725 2.360595 0
M  V30 46 H -4.090585 -2.290930 0.186759 0
M  V30 47 H -4.597420 -0.267891 -3.857435 0
M  V30 48 H -6.646267 -0.923330 -5.041653 0
M  V30 49 H -8.972752 -3.511653 -3.770846 0
M  V30 50 H -8.746451 -2.182314 -4.942933 0
M  V30 51 H -7.024098 -3.685546 -5.996562 0
M  V30 52 H -7.874216 -4.971489 -5.242836 0
M  V30 53 H -7.022400 -4.282510 -2.353429 0
M  V30 54 H -4.983353 -3.559882 -1.238008 0
M  V30 55 H -2.519853 -0.673386 -3.413442 0
M  V30 56 H -0.480686 -0.050544 -2.193693 0
M  V30 57 H 6.104324 0.488238 4.344983 0
M  V30 58 H 6.119478 -0.365881 2.779953 0
M  V30 59 H 4.285527 -1.874750 3.615850 0
M  V30 60 H 5.750070 -1.960928 4.626966 0
M  V30 END ATOM
M  V30 BEGIN BOND
M  V30 1 1 1 2
M  V30 2 1 2 3
M  V30 3 1 3 4
M  V30 4 1 4 5
M  V30 5 1 5 6
M  V30 6 2 6 7
M  V30 7 1 7 8
M  V30 8 2 8 9
M  V30 9 1 9 10
M  V30 10 1 10 11
M  V30 11 1 11 12
M  V30 12 1 12 13
M  V30 13 2 13 14
M  V30 14 1 14 15
M  V30 15 1 15 16
M  V30 16 2 16 17
M  V30 17 1 17 18
M  V30 18 1 18 19
M  V30 19 2 19 20
M  V30 20 1 20 21
M  V30 21 2 21 22
M  V30 22 1 22 23
M  V30 23 1 23 24
M  V30 24 1 22 25
M  V30 25 2 25 26
M  V30 26 2 18 27
M  V30 27 1 27 28
M  V30 28 2 28 29
M  V30 29 2 12 30
M  V30 30 1 30 31
M  V30 31 1 5 32
M  V30 32 1 32 33
M  V30 33 1 33 2
M  V30 34 1 31 6
M  V30 35 2 31 10
M  V30 36 1 29 13
M  V30 37 1 29 16
M  V30 38 1 26 19
M  V30 39 1 1 34
M  V30 40 1 1 35
M  V30 41 1 1 36
M  V30 42 1 3 37
M  V30 43 1 3 38
M  V30 44 1 4 39
M  V30 45 1 4 40
M  V30 46 1 7 41
M  V30 47 1 8 42
M  V30 48 1 9 43
M  V30 49 1 11 44
M  V30 50 1 15 45
M  V30 51 1 17 46
M  V30 52 1 20 47
M  V30 53 1 21 48
M  V30 54 1 23 49
M  V30 55 1 23 50
M  V30 56 1 24 51
M  V30 57 1 24 52
M  V30 58 1 25 53
M  V30 59 1 26 54
M  V30 60 1 27 55
M  V30 61 1 28 56
M  V30 62 1 32 57
M  V30 63 1 32 58
M  V30 64 1 33 59
M  V30 65 1 33 60
M  V30 END BOND
M  V30 END CTAB
M  END
>  <Dataset>  (291) 
ChEMBL_Kinases

>  <Ligand_Instance>  (291) 
nan

>  <PDB_ID>  (291) 
nan

>  <Standardized_SMILES>  (291) 
CN1CCN(c2cccc3[nH]c(-c4n[nH]c5cc(-c6ccc(CN)cc6)ccc45)nc23)CC1

>  <Name>  (291) 
nan

>  <Pocket>  (291) 
nan

>  <ATP_Site>  (291) 
nan

>  <Peripheral>  (291) 
nan

>  <Num_H_Atoms_ProtBoundConf>  (291) 
nan

>  <Num_Resolved_Atoms>  (291) 
nan

>  <Num_Not_Resolved_Atoms>  (291) 
nan

$$$$
CHEMBL4457608
     RDKit          3D

  0  0  0  0  0  0  0  0  0  0999 V3000
M  V30 BEGIN CTAB
M  V30 COUNTS 35 38 0 0 0
M  V30 BEGIN ATOM
M  V30 1 O -1.248897 -1.770522 3.902781 0
M  V30 2 C -0.192871 -1.856406 3.230360 0
M  V30 3 N 0.923040 -2.633567 3.647865 0
M  V30 4 C 1.906411 -2.459382 2.604010 0
M  V30 5 C 3.145593 -3.067010 2.647925 0
M  V30 6 C 4.012473 -2.838399 1.604368 0
M  V30 7 C 3.579810 -2.002869 0.564569 0
M  V30 8 N 4.558795 -1.826355 -0.479722 0 CHG=1 VAL=4
M  V30 9 O 4.376524 -1.125250 -1.491540 0
M  V30 10 O 5.797830 -2.404834 -0.483574 0 CHG=-1 VAL=1
M  V30 11 C 2.323389 -1.451480 0.626359 0
M  V30 12 C 1.443505 -1.636071 1.607585 0
M  V30 13 C 0.134900 -1.235777 1.957886 0
M  V30 14 C -0.627575 -0.450910 1.255410 0
M  V30 15 N -1.924230 -0.072947 1.633187 0
M  V30 16 C -2.545047 0.792586 0.688965 0
M  V30 17 C -3.812006 1.385657 0.690320 0
M  V30 18 C -4.104781 2.182964 -0.394505 0
M  V30 19 C -3.217332 2.395068 -1.426795 0
M  V30 20 O -3.603873 3.215734 -2.477776 0
M  V30 21 C -1.991275 1.777353 -1.356137 0
M  V30 22 C -1.602259 0.956078 -0.306067 0
M  V30 23 C -0.401817 0.207361 -0.000380 0
M  V30 24 N 0.562548 0.225018 -0.772360 0
M  V30 25 O 0.632952 0.895613 -1.928721 0
M  V30 26 H 0.963220 -3.191700 4.534159 0
M  V30 27 H 3.493778 -3.711148 3.438264 0
M  V30 28 H 4.987098 -3.299920 1.611977 0
M  V30 29 H 2.217747 -0.878471 -0.233932 0
M  V30 30 H -2.416641 -0.370367 2.501363 0
M  V30 31 H -4.505870 1.218518 1.499579 0
M  V30 32 H -5.086839 2.626049 -0.366129 0
M  V30 33 H -3.337313 3.035512 -3.439875 0
M  V30 34 H -1.360819 1.997883 -2.204290 0
M  V30 35 H 0.813991 0.500537 -2.855840 0
M  V30 END ATOM
M  V30 BEGIN BOND
M  V30 1 2 1 2
M  V30 2 1 2 3
M  V30 3 1 3 4
M  V30 4 2 4 5
M  V30 5 1 5 6
M  V30 6 2 6 7
M  V30 7 1 7 8
M  V30 8 2 8 9
M  V30 9 1 8 10
M  V30 10 1 7 11
M  V30 11 2 11 12
M  V30 12 1 12 13
M  V30 13 2 13 14
M  V30 14 1 14 15
M  V30 15 1 15 16
M  V30 16 2 16 17
M  V30 17 1 17 18
M  V30 18 2 18 19
M  V30 19 1 19 20
M  V30 20 1 19 21
M  V30 21 2 21 22
M  V30 22 1 22 23
M  V30 23 2 23 24
M  V30 24 1 24 25
M  V30 25 1 13 2
M  V30 26 1 23 14
M  V30 27 1 12 4
M  V30 28 1 22 16
M  V30 29 1 3 26
M  V30 30 1 5 27
M  V30 31 1 6 28
M  V30 32 1 11 29
M  V30 33 1 15 30
M  V30 34 1 17 31
M  V30 35 1 18 32
M  V30 36 1 20 33
M  V30 37 1 21 34
M  V30 38 1 25 35
M  V30 END BOND
M  V30 END CTAB
M  END
>  <Dataset>  (292) 
ChEMBL_Kinases

>  <Ligand_Instance>  (292) 
nan

>  <PDB_ID>  (292) 
nan

>  <Standardized_SMILES>  (292) 
O=C1Nc2ccc([N+](=O)[O-])cc2/C1=C1/Nc2ccc(O)cc2/C1=N\O

>  <Name>  (292) 
nan

>  <Pocket>  (292) 
nan

>  <ATP_Site>  (292) 
nan

>  <Peripheral>  (292) 
nan

>  <Num_H_Atoms_ProtBoundConf>  (292) 
nan

>  <Num_Resolved_Atoms>  (292) 
nan

>  <Num_Not_Resolved_Atoms>  (292) 
nan

$$$$
CHEMBL474441
     RDKit          3D

  0  0  0  0  0  0  0  0  0  0999 V3000
M  V30 BEGIN CTAB
M  V30 COUNTS 60 65 0 0 0
M  V30 BEGIN ATOM
M  V30 1 C 4.722356 -1.462892 8.167387 0
M  V30 2 N 5.076222 -2.249460 7.005161 0
M  V30 3 C 4.530048 -2.090717 5.702771 0
M  V30 4 C 3.578795 -1.126282 5.450521 0
M  V30 5 C 3.028786 -0.953833 4.175045 0
M  V30 6 C 3.511543 -1.822361 3.191552 0
M  V30 7 C 3.024575 -1.751482 1.825067 0
M  V30 8 C 1.696194 -1.350193 1.678346 0
M  V30 9 C 1.187558 -1.269534 0.383029 0
M  V30 10 C 1.957352 -1.571447 -0.710903 0
M  V30 11 C 1.676065 -1.564527 -2.062406 0
M  V30 12 C 0.432860 -1.222165 -2.749741 0
M  V30 13 N -0.729848 -0.830328 -2.198092 0
M  V30 14 C -1.650074 -0.603266 -3.155985 0
M  V30 15 C -2.969410 -0.195407 -3.146419 0
M  V30 16 N -3.578817 0.068585 -1.889922 0
M  V30 17 C -2.967627 1.114155 -1.084311 0
M  V30 18 C -4.107328 2.031512 -0.671642 0
M  V30 19 N -5.025763 1.328939 0.169772 0
M  V30 20 C -6.390989 1.794241 0.030072 0
M  V30 21 C -4.914536 -0.097509 0.090085 0
M  V30 22 C -4.745156 -0.595030 -1.327436 0
M  V30 23 C -3.655485 -0.055701 -4.352878 0
M  V30 24 C -2.981573 -0.333689 -5.525234 0
M  V30 25 C -1.661994 -0.742089 -5.544142 0
M  V30 26 C -0.979083 -0.881173 -4.342157 0
M  V30 27 N 0.302859 -1.261736 -4.085213 0
M  V30 28 N 2.801634 -1.949080 -2.692958 0
M  V30 29 N 3.768867 -2.195269 -1.808639 0
M  V30 30 C 3.273312 -1.969327 -0.571712 0
M  V30 31 C 3.780369 -2.050326 0.710823 0
M  V30 32 C 4.463340 -2.792488 3.428798 0
M  V30 33 C 4.974728 -2.922700 4.702961 0
M  V30 34 H 3.775202 -0.930079 8.089593 0
M  V30 35 H 4.619939 -2.143655 9.059793 0
M  V30 36 H 5.574406 -0.757831 8.389867 0
M  V30 37 H 5.795817 -2.972816 7.211935 0
M  V30 38 H 3.206047 -0.461911 6.191475 0
M  V30 39 H 2.280176 -0.206256 3.943232 0
M  V30 40 H 1.033586 -1.097840 2.493829 0
M  V30 41 H 0.163119 -0.960757 0.256598 0
M  V30 42 H -2.592811 0.643944 -0.149543 0
M  V30 43 H -2.200695 1.690642 -1.621772 0
M  V30 44 H -4.606566 2.361730 -1.618543 0
M  V30 45 H -3.743640 2.969901 -0.207709 0
M  V30 46 H -6.512739 2.838602 0.380305 0
M  V30 47 H -6.789292 1.655517 -0.991070 0
M  V30 48 H -6.998231 1.173072 0.744051 0
M  V30 49 H -4.088006 -0.461938 0.716477 0
M  V30 50 H -5.844673 -0.557749 0.487823 0
M  V30 51 H -4.495163 -1.673841 -1.271725 0
M  V30 52 H -5.652693 -0.477386 -1.927162 0
M  V30 53 H -4.693279 0.267783 -4.300679 0
M  V30 54 H -3.592941 -0.198281 -6.413373 0
M  V30 55 H -1.188732 -0.945847 -6.510839 0
M  V30 56 H 0.974305 -1.514808 -4.852602 0
M  V30 57 H 4.736776 -2.506630 -2.021681 0
M  V30 58 H 4.822976 -2.362836 0.867780 0
M  V30 59 H 4.820116 -3.451896 2.651325 0
M  V30 60 H 5.723891 -3.691222 4.875886 0
M  V30 END ATOM
M  V30 BEGIN BOND
M  V30 1 1 1 2
M  V30 2 1 2 3
M  V30 3 2 3 4
M  V30 4 1 4 5
M  V30 5 2 5 6
M  V30 6 1 6 7
M  V30 7 2 7 8
M  V30 8 1 8 9
M  V30 9 2 9 10
M  V30 10 1 10 11
M  V30 11 1 11 12
M  V30 12 2 12 13
M  V30 13 1 13 14
M  V30 14 2 14 15
M  V30 15 1 15 16
M  V30 16 1 16 17
M  V30 17 1 17 18
M  V30 18 1 18 19
M  V30 19 1 19 20
M  V30 20 1 19 21
M  V30 21 1 21 22
M  V30 22 1 15 23
M  V30 23 2 23 24
M  V30 24 1 24 25
M  V30 25 2 25 26
M  V30 26 1 26 27
M  V30 27 2 11 28
M  V30 28 1 28 29
M  V30 29 1 29 30
M  V30 30 2 30 31
M  V30 31 1 6 32
M  V30 32 2 32 33
M  V30 33 1 33 3
M  V30 34 1 31 7
M  V30 35 1 30 10
M  V30 36 1 27 12
M  V30 37 1 26 14
M  V30 38 1 22 16
M  V30 39 1 1 34
M  V30 40 1 1 35
M  V30 41 1 1 36
M  V30 42 1 2 37
M  V30 43 1 4 38
M  V30 44 1 5 39
M  V30 45 1 8 40
M  V30 46 1 9 41
M  V30 47 1 17 42
M  V30 48 1 17 43
M  V30 49 1 18 44
M  V30 50 1 18 45
M  V30 51 1 20 46
M  V30 52 1 20 47
M  V30 53 1 20 48
M  V30 54 1 21 49
M  V30 55 1 21 50
M  V30 56 1 22 51
M  V30 57 1 22 52
M  V30 58 1 23 53
M  V30 59 1 24 54
M  V30 60 1 25 55
M  V30 61 1 27 56
M  V30 62 1 29 57
M  V30 63 1 31 58
M  V30 64 1 32 59
M  V30 65 1 33 60
M  V30 END BOND
M  V30 END CTAB
M  END
>  <Dataset>  (293) 
ChEMBL_Kinases

>  <Ligand_Instance>  (293) 
nan

>  <PDB_ID>  (293) 
nan

>  <Standardized_SMILES>  (293) 
CNc1ccc(-c2ccc3c(-c4nc5c(N6CCN(C)CC6)cccc5[nH]4)n[nH]c3c2)cc1

>  <Name>  (293) 
nan

>  <Pocket>  (293) 
nan

>  <ATP_Site>  (293) 
nan

>  <Peripheral>  (293) 
nan

>  <Num_H_Atoms_ProtBoundConf>  (293) 
nan

>  <Num_Resolved_Atoms>  (293) 
nan

>  <Num_Not_Resolved_Atoms>  (293) 
nan

$$$$
CHEMBL4457508
     RDKit          3D

  0  0  0  0  0  0  0  0  0  0999 V3000
M  V30 BEGIN CTAB
M  V30 COUNTS 41 44 0 0 0
M  V30 BEGIN ATOM
M  V30 1 C -1.414243 -4.265891 3.457274 0
M  V30 2 C -0.171459 -3.731726 2.779515 0
M  V30 3 O 0.681906 -3.227116 3.724629 0
M  V30 4 C -0.570841 -2.629643 1.875557 0
M  V30 5 C -0.884350 -1.740076 1.124116 0
M  V30 6 C -1.234944 -0.670533 0.231844 0
M  V30 7 C -0.289574 0.279716 -0.087049 0
M  V30 8 C -0.500984 1.357891 -0.932984 0
M  V30 9 N 0.570926 2.283895 -1.186935 0
M  V30 10 C 1.111399 2.762824 -2.322760 0
M  V30 11 C 2.130691 3.636756 -2.009399 0
M  V30 12 C 2.218607 3.696029 -0.632338 0
M  V30 13 C 3.057787 4.408684 0.199641 0
M  V30 14 N 2.903959 4.260302 1.534463 0
M  V30 15 C 1.948698 3.431915 2.024828 0
M  V30 16 N 1.686962 3.190115 3.401718 0
M  V30 17 N 1.146413 2.751074 1.188974 0
M  V30 18 C 1.239357 2.847243 -0.163493 0
M  V30 19 C -1.766378 1.471697 -1.490939 0
M  V30 20 F -1.995422 2.522307 -2.323927 0
M  V30 21 C -2.733750 0.523057 -1.181485 0
M  V30 22 C -2.487554 -0.540262 -0.332993 0
M  V30 23 F -3.417219 -1.453092 -0.034771 0
M  V30 24 C 0.444392 -4.844116 1.956227 0
M  V30 25 N 0.422352 -5.321307 0.877519 0
M  V30 26 C 1.124209 -6.349652 0.454278 0
M  V30 27 C 1.986671 -6.938898 1.379684 0
M  V30 28 S 1.673894 -5.864851 2.888114 0
M  V30 29 H -1.288063 -4.300320 4.565155 0
M  V30 30 H -2.327659 -3.699822 3.176337 0
M  V30 31 H -1.607504 -5.321671 3.153259 0
M  V30 32 H 1.083205 -3.902685 4.302002 0
M  V30 33 H 0.692103 0.190764 0.346274 0
M  V30 34 H 0.749539 2.462648 -3.278811 0
M  V30 35 H 2.748011 4.176627 -2.707091 0
M  V30 36 H 3.834392 5.081693 -0.161276 0
M  V30 37 H 1.098358 3.740714 4.087639 0
M  V30 38 H 1.968776 2.457767 4.105753 0
M  V30 39 H -3.724202 0.621569 -1.624913 0
M  V30 40 H 0.884529 -6.559766 -0.604221 0
M  V30 41 H 2.559842 -7.889911 0.795669 0
M  V30 END ATOM
M  V30 BEGIN BOND
M  V30 1 1 1 2
M  V30 2 1 2 3
M  V30 3 1 2 4
M  V30 4 3 4 5
M  V30 5 1 5 6
M  V30 6 2 6 7
M  V30 7 1 7 8
M  V30 8 1 8 9
M  V30 9 1 9 10
M  V30 10 2 10 11
M  V30 11 1 11 12
M  V30 12 2 12 13
M  V30 13 1 13 14
M  V30 14 2 14 15
M  V30 15 1 15 16
M  V30 16 1 15 17
M  V30 17 2 17 18
M  V30 18 2 8 19
M  V30 19 1 19 20
M  V30 20 1 19 21
M  V30 21 2 21 22
M  V30 22 1 22 23
M  V30 23 1 2 24
M  V30 24 2 24 25
M  V30 25 1 25 26
M  V30 26 2 26 27
M  V30 27 1 27 28
M  V30 28 1 22 6
M  V30 29 1 28 24
M  V30 30 1 18 9
M  V30 31 1 18 12
M  V30 32 1 1 29
M  V30 33 1 1 30
M  V30 34 1 1 31
M  V30 35 1 3 32
M  V30 36 1 7 33
M  V30 37 1 10 34
M  V30 38 1 11 35
M  V30 39 1 13 36
M  V30 40 1 16 37
M  V30 41 1 16 38
M  V30 42 1 21 39
M  V30 43 1 26 40
M  V30 44 1 27 41
M  V30 END BOND
M  V30 END CTAB
M  END
>  <Dataset>  (294) 
ChEMBL_Kinases

>  <Ligand_Instance>  (294) 
nan

>  <PDB_ID>  (294) 
nan

>  <Standardized_SMILES>  (294) 
CC(O)(C#Cc1cc(-n2ccc3cnc(N)nc32)c(F)cc1F)c1nccs1

>  <Name>  (294) 
nan

>  <Pocket>  (294) 
nan

>  <ATP_Site>  (294) 
nan

>  <Peripheral>  (294) 
nan

>  <Num_H_Atoms_ProtBoundConf>  (294) 
nan

>  <Num_Resolved_Atoms>  (294) 
nan

>  <Num_Not_Resolved_Atoms>  (294) 
nan

$$$$
CHEMBL4457492
     RDKit          3D

  0  0  0  0  0  0  0  0  0  0999 V3000
M  V30 BEGIN CTAB
M  V30 COUNTS 39 43 0 0 0
M  V30 BEGIN ATOM
M  V30 1 C -0.894049 -4.702276 1.962698 0
M  V30 2 C 0.285620 -4.031895 1.377551 0
M  V30 3 C 1.122867 -4.731109 0.522021 0
M  V30 4 C 2.252314 -4.157076 -0.064052 0
M  V30 5 C 2.504988 -2.838513 0.250286 0
M  V30 6 C 1.648152 -2.150030 1.115612 0
M  V30 7 C 1.881226 -0.755938 1.473065 0
M  V30 8 N 2.998290 -0.316954 2.118078 0
M  V30 9 C 2.897777 1.012707 2.294785 0
M  V30 10 N 1.743146 1.432645 1.777860 0
M  V30 11 C 1.113798 0.372779 1.275097 0
M  V30 12 C -0.180119 0.376822 0.615401 0
M  V30 13 C -0.565775 1.021911 -0.523716 0
M  V30 14 C -1.848510 0.895518 -0.984767 0
M  V30 15 C -2.482492 1.427730 -2.083562 0
M  V30 16 N -3.747377 1.146990 -2.308951 0
M  V30 17 C -4.576909 0.384336 -1.609523 0
M  V30 18 C -4.029023 -0.194743 -0.485708 0
M  V30 19 C -2.686145 0.091932 -0.229613 0
M  V30 20 S -1.613829 -0.488508 1.160445 0
M  V30 21 C 1.566767 2.882442 1.936834 0
M  V30 22 C 2.788761 3.338509 2.678184 0
M  V30 23 N 3.573789 2.132498 2.831666 0
M  V30 24 N 0.564217 -2.745932 1.661330 0
M  V30 25 H -0.874913 -4.479966 3.050324 0
M  V30 26 H -1.851437 -4.343373 1.574573 0
M  V30 27 H -0.827405 -5.800592 1.792323 0
M  V30 28 H 0.937439 -5.775494 0.262743 0
M  V30 29 H 2.888290 -4.708916 -0.721197 0
M  V30 30 H 3.368828 -2.313448 -0.165863 0
M  V30 31 H 0.178745 1.636102 -1.047789 0
M  V30 32 H -1.955353 2.078482 -2.771598 0
M  V30 33 H -5.613415 0.169826 -1.817030 0
M  V30 34 H -4.538064 -0.845756 0.211649 0
M  V30 35 H 0.691053 3.100236 2.586975 0
M  V30 36 H 1.511821 3.294709 0.931374 0
M  V30 37 H 3.276603 4.128616 2.109150 0
M  V30 38 H 2.546560 3.730041 3.703982 0
M  V30 39 H 4.530730 2.084883 3.285478 0
M  V30 END ATOM
M  V30 BEGIN BOND
M  V30 1 1 1 2
M  V30 2 2 2 3
M  V30 3 1 3 4
M  V30 4 2 4 5
M  V30 5 1 5 6
M  V30 6 1 6 7
M  V30 7 1 7 8
M  V30 8 2 8 9
M  V30 9 1 9 10
M  V30 10 1 10 11
M  V30 11 1 11 12
M  V30 12 2 12 13
M  V30 13 1 13 14
M  V30 14 2 14 15
M  V30 15 1 15 16
M  V30 16 2 16 17
M  V30 17 1 17 18
M  V30 18 2 18 19
M  V30 19 1 19 20
M  V30 20 1 10 21
M  V30 21 1 21 22
M  V30 22 1 22 23
M  V30 23 2 6 24
M  V30 24 1 24 2
M  V30 25 2 11 7
M  V30 26 1 20 12
M  V30 27 1 23 9
M  V30 28 1 19 14
M  V30 29 1 1 25
M  V30 30 1 1 26
M  V30 31 1 1 27
M  V30 32 1 3 28
M  V30 33 1 4 29
M  V30 34 1 5 30
M  V30 35 1 13 31
M  V30 36 1 15 32
M  V30 37 1 17 33
M  V30 38 1 18 34
M  V30 39 1 21 35
M  V30 40 1 21 36
M  V30 41 1 22 37
M  V30 42 1 22 38
M  V30 43 1 23 39
M  V30 END BOND
M  V30 END CTAB
M  END
>  <Dataset>  (295) 
ChEMBL_Kinases

>  <Ligand_Instance>  (295) 
nan

>  <PDB_ID>  (295) 
nan

>  <Standardized_SMILES>  (295) 
Cc1cccc(-c2nc3n(c2-c2cc4cnccc4s2)CCN3)n1

>  <Name>  (295) 
nan

>  <Pocket>  (295) 
nan

>  <ATP_Site>  (295) 
nan

>  <Peripheral>  (295) 
nan

>  <Num_H_Atoms_ProtBoundConf>  (295) 
nan

>  <Num_Resolved_Atoms>  (295) 
nan

>  <Num_Not_Resolved_Atoms>  (295) 
nan

$$$$
CHEMBL4457417
     RDKit          3D

  0  0  0  0  0  0  0  0  0  0999 V3000
M  V30 BEGIN CTAB
M  V30 COUNTS 61 65 0 0 0
M  V30 BEGIN ATOM
M  V30 1 C 4.750243 0.312139 6.606391 0
M  V30 2 O 5.504853 -0.018066 5.466167 0
M  V30 3 C 4.984461 -0.270175 4.226136 0
M  V30 4 C 3.598796 -0.188884 4.102487 0
M  V30 5 C 2.912952 -0.414853 2.917066 0
M  V30 6 C 3.679322 -0.741975 1.793867 0
M  V30 7 C 2.900785 -0.967130 0.580913 0
M  V30 8 N 2.154043 0.069372 0.103632 0
M  V30 9 N 1.524492 -0.332679 -0.997576 0
M  V30 10 C 0.654561 0.525056 -1.745028 0
M  V30 11 C 0.890117 1.005919 -3.033073 0
M  V30 12 C -0.038635 1.825786 -3.630590 0
M  V30 13 C -1.194503 2.194986 -3.013300 0
M  V30 14 C -1.488533 1.746219 -1.722071 0
M  V30 15 N -2.672191 2.068178 -0.972475 0
M  V30 16 C -3.835568 1.254112 -1.059951 0
M  V30 17 O -3.766272 0.237902 -1.831112 0
M  V30 18 N -5.049371 1.499094 -0.353242 0
M  V30 19 C -6.076924 0.545819 -0.601391 0
M  V30 20 C -7.046107 0.591956 -1.581987 0
M  V30 21 C -7.980949 -0.415494 -1.697114 0
M  V30 22 C -7.996995 -1.506079 -0.851500 0
M  V30 23 Cl -9.215896 -2.748327 -1.057960 0
M  V30 24 C -7.028764 -1.554323 0.129837 0
M  V30 25 C -7.044639 -2.728560 1.041680 0
M  V30 26 F -6.878845 -3.858346 0.260101 0
M  V30 27 F -5.971815 -2.713522 1.910810 0
M  V30 28 F -8.231323 -2.873252 1.714649 0
M  V30 29 C -6.084507 -0.555342 0.260820 0
M  V30 30 C -0.522889 0.913647 -1.142346 0
M  V30 31 C 1.810584 -1.591382 -1.286645 0
M  V30 32 C 2.679359 -2.007181 -0.298615 0
M  V30 33 C 3.352867 -3.276666 -0.051542 0
M  V30 34 C 4.197841 -3.623818 -1.095618 0
M  V30 35 C 4.929016 -4.801062 -1.045642 0
M  V30 36 N 4.801554 -5.594725 0.031795 0
M  V30 37 C 3.988276 -5.283197 1.061294 0
M  V30 38 C 3.240912 -4.123113 1.057205 0
M  V30 39 C 5.053802 -0.832650 1.874116 0
M  V30 40 C 5.678458 -0.597172 3.079063 0
M  V30 41 Cl 7.416077 -0.701642 3.223488 0
M  V30 42 H 5.475157 0.389730 7.449693 0
M  V30 43 H 3.939933 -0.404307 6.832692 0
M  V30 44 H 4.287715 1.330757 6.532838 0
M  V30 45 H 2.985616 0.066135 4.972842 0
M  V30 46 H 1.835848 -0.335046 2.891146 0
M  V30 47 H 1.819969 0.685773 -3.481277 0
M  V30 48 H 0.169065 2.188622 -4.638535 0
M  V30 49 H -1.943200 2.838154 -3.457830 0
M  V30 50 H -2.781864 2.896430 -0.320878 0
M  V30 51 H -5.034001 2.347982 0.259142 0
M  V30 52 H -6.996323 1.470665 -2.227380 0
M  V30 53 H -8.730294 -0.336769 -2.489292 0
M  V30 54 H -5.370199 -0.699575 1.070607 0
M  V30 55 H -0.745300 0.558986 -0.133849 0
M  V30 56 H 1.490865 -2.221333 -2.079141 0
M  V30 57 H 4.368679 -3.057271 -1.999100 0
M  V30 58 H 5.608615 -5.112222 -1.850668 0
M  V30 59 H 3.857273 -5.900944 1.953374 0
M  V30 60 H 2.560741 -3.749965 1.795804 0
M  V30 61 H 5.595248 -1.086990 0.982499 0
M  V30 END ATOM
M  V30 BEGIN BOND
M  V30 1 1 1 2
M  V30 2 1 2 3
M  V30 3 2 3 4
M  V30 4 1 4 5
M  V30 5 2 5 6
M  V30 6 1 6 7
M  V30 7 2 7 8
M  V30 8 1 8 9
M  V30 9 1 9 10
M  V30 10 2 10 11
M  V30 11 1 11 12
M  V30 12 2 12 13
M  V30 13 1 13 14
M  V30 14 1 14 15
M  V30 15 1 15 16
M  V30 16 2 16 17
M  V30 17 1 16 18
M  V30 18 1 18 19
M  V30 19 2 19 20
M  V30 20 1 20 21
M  V30 21 2 21 22
M  V30 22 1 22 23
M  V30 23 1 22 24
M  V30 24 1 24 25
M  V30 25 1 25 26
M  V30 26 1 25 27
M  V30 27 1 25 28
M  V30 28 2 24 29
M  V30 29 2 14 30
M  V30 30 1 9 31
M  V30 31 2 31 32
M  V30 32 1 32 33
M  V30 33 2 33 34
M  V30 34 1 34 35
M  V30 35 2 35 36
M  V30 36 1 36 37
M  V30 37 2 37 38
M  V30 38 1 6 39
M  V30 39 2 39 40
M  V30 40 1 40 41
M  V30 41 1 40 3
M  V30 42 1 32 7
M  V30 43 1 38 33
M  V30 44 1 30 10
M  V30 45 1 29 19
M  V30 46 1 1 42
M  V30 47 1 1 43
M  V30 48 1 1 44
M  V30 49 1 4 45
M  V30 50 1 5 46
M  V30 51 1 11 47
M  V30 52 1 12 48
M  V30 53 1 13 49
M  V30 54 1 15 50
M  V30 55 1 18 51
M  V30 56 1 20 52
M  V30 57 1 21 53
M  V30 58 1 29 54
M  V30 59 1 30 55
M  V30 60 1 31 56
M  V30 61 1 34 57
M  V30 62 1 35 58
M  V30 63 1 37 59
M  V30 64 1 38 60
M  V30 65 1 39 61
M  V30 END BOND
M  V30 END CTAB
M  END
>  <Dataset>  (296) 
ChEMBL_Kinases

>  <Ligand_Instance>  (296) 
nan

>  <PDB_ID>  (296) 
nan

>  <Standardized_SMILES>  (296) 
COc1ccc(-c2nn(-c3cccc(NC(=O)Nc4ccc(Cl)c(C(F)(F)F)c4)c3)cc2-c2ccncc2)cc1Cl

>  <Name>  (296) 
nan

>  <Pocket>  (296) 
nan

>  <ATP_Site>  (296) 
nan

>  <Peripheral>  (296) 
nan

>  <Num_H_Atoms_ProtBoundConf>  (296) 
nan

>  <Num_Resolved_Atoms>  (296) 
nan

>  <Num_Not_Resolved_Atoms>  (296) 
nan

$$$$
CHEMBL4457925
     RDKit          3D

  0  0  0  0  0  0  0  0  0  0999 V3000
M  V30 BEGIN CTAB
M  V30 COUNTS 56 59 0 0 0
M  V30 BEGIN ATOM
M  V30 1 N 0.786291 -4.716318 1.946803 0
M  V30 2 C 0.654690 -3.934626 3.118706 0
M  V30 3 C 1.650165 -2.849063 3.345404 0
M  V30 4 S 1.756883 -1.575132 2.165217 0
M  V30 5 O 0.427130 -0.828259 2.202282 0
M  V30 6 O 2.761674 -0.561384 2.736538 0
M  V30 7 N 2.193208 -1.903794 0.606259 0
M  V30 8 C 3.421556 -1.371004 0.166991 0
M  V30 9 C 3.403580 -0.813469 -1.219390 0
M  V30 10 C 1.974174 -0.658745 -1.764213 0
M  V30 11 C 1.347927 0.467194 -1.100525 0
M  V30 12 C 2.103938 1.619112 -0.842863 0
M  V30 13 N 1.318972 2.507366 -0.191221 0
M  V30 14 C 0.094664 2.026825 0.001508 0
M  V30 15 C -1.087908 2.428816 0.555679 0
M  V30 16 C -1.215521 3.730674 1.165231 0
M  V30 17 N -0.224936 4.732063 1.304569 0
M  V30 18 O -2.149316 4.337896 1.714458 0
M  V30 19 C -2.251326 1.675833 0.591485 0
M  V30 20 C -2.206186 0.398441 0.009922 0
M  V30 21 C -3.362091 -0.503824 -0.019473 0
M  V30 22 C -4.380853 -0.646380 0.890405 0
M  V30 23 C -5.419702 -1.537834 0.730062 0
M  V30 24 C -5.440393 -2.319993 -0.385570 0
M  V30 25 C -4.458032 -2.244916 -1.354296 0
M  V30 26 C -3.424126 -1.333269 -1.160257 0
M  V30 27 C -1.015360 -0.012395 -0.550052 0
M  V30 28 C 0.119035 0.758998 -0.567109 0
M  V30 29 C 1.393370 -1.998881 -1.649829 0
M  V30 30 C 1.311343 -2.494559 -0.260973 0
M  V30 31 H 0.917322 -5.710345 2.160083 0
M  V30 32 H -0.068937 -4.619627 1.348831 0
M  V30 33 H 0.654768 -4.605364 4.044133 0
M  V30 34 H -0.379746 -3.462555 3.116495 0
M  V30 35 H 1.322137 -2.340394 4.309416 0
M  V30 36 H 2.659161 -3.258941 3.651108 0
M  V30 37 H 4.207459 -2.153583 0.213184 0
M  V30 38 H 3.737879 -0.575358 0.868823 0
M  V30 39 H 3.911372 -1.486584 -1.940936 0
M  V30 40 H 3.903956 0.162265 -1.286437 0
M  V30 41 H 2.058266 -0.443194 -2.889774 0
M  V30 42 H 3.132709 1.982160 -1.022723 0
M  V30 43 H 1.528436 3.471503 0.167299 0
M  V30 44 H 0.515940 5.415184 1.031547 0
M  V30 45 H 0.194473 5.270815 2.111646 0
M  V30 46 H -3.156758 2.048354 1.044151 0
M  V30 47 H -4.280881 0.016542 1.744641 0
M  V30 48 H -6.178523 -1.578405 1.514913 0
M  V30 49 H -6.280323 -3.022709 -0.479912 0
M  V30 50 H -4.551682 -2.902804 -2.209989 0
M  V30 51 H -2.724446 -1.374841 -1.984773 0
M  V30 52 H -1.019639 -0.977637 -0.992092 0
M  V30 53 H 2.163103 -2.691864 -2.168121 0
M  V30 54 H 0.492012 -2.223108 -2.267719 0
M  V30 55 H 1.503710 -3.625638 -0.339428 0
M  V30 56 H 0.278890 -2.499107 0.192729 0
M  V30 END ATOM
M  V30 BEGIN BOND
M  V30 1 1 1 2
M  V30 2 1 2 3
M  V30 3 1 3 4
M  V30 4 2 4 5
M  V30 5 2 4 6
M  V30 6 1 4 7
M  V30 7 1 7 8
M  V30 8 1 8 9
M  V30 9 1 9 10
M  V30 10 1 10 11
M  V30 11 2 11 12
M  V30 12 1 12 13
M  V30 13 1 13 14
M  V30 14 2 14 15
M  V30 15 1 15 16
M  V30 16 1 16 17
M  V30 17 2 16 18
M  V30 18 1 15 19
M  V30 19 2 19 20
M  V30 20 1 20 21
M  V30 21 2 21 22
M  V30 22 1 22 23
M  V30 23 2 23 24
M  V30 24 1 24 25
M  V30 25 2 25 26
M  V30 26 1 20 27
M  V30 27 2 27 28
M  V30 28 1 10 29
M  V30 29 1 29 30
M  V30 30 1 30 7
M  V30 31 1 28 11
M  V30 32 1 28 14
M  V30 33 1 26 21
M  V30 34 1 1 31
M  V30 35 1 1 32
M  V30 36 1 2 33
M  V30 37 1 2 34
M  V30 38 1 3 35
M  V30 39 1 3 36
M  V30 40 1 8 37
M  V30 41 1 8 38
M  V30 42 1 9 39
M  V30 43 1 9 40
M  V30 44 1 10 41
M  V30 45 1 12 42
M  V30 46 1 13 43
M  V30 47 1 17 44
M  V30 48 1 17 45
M  V30 49 1 19 46
M  V30 50 1 22 47
M  V30 51 1 23 48
M  V30 52 1 24 49
M  V30 53 1 25 50
M  V30 54 1 26 51
M  V30 55 1 27 52
M  V30 56 1 29 53
M  V30 57 1 29 54
M  V30 58 1 30 55
M  V30 59 1 30 56
M  V30 END BOND
M  V30 END CTAB
M  END
>  <Dataset>  (297) 
ChEMBL_Kinases

>  <Ligand_Instance>  (297) 
nan

>  <PDB_ID>  (297) 
nan

>  <Standardized_SMILES>  (297) 
NCCS(=O)(=O)N1CCC(c2c[nH]c3c(C(N)=O)cc(-c4ccccc4)cc23)CC1

>  <Name>  (297) 
nan

>  <Pocket>  (297) 
nan

>  <ATP_Site>  (297) 
nan

>  <Peripheral>  (297) 
nan

>  <Num_H_Atoms_ProtBoundConf>  (297) 
nan

>  <Num_Resolved_Atoms>  (297) 
nan

>  <Num_Not_Resolved_Atoms>  (297) 
nan

$$$$
CHEMBL4459087
     RDKit          3D

  0  0  0  0  0  0  0  0  0  0999 V3000
M  V30 BEGIN CTAB
M  V30 COUNTS 61 63 0 0 0
M  V30 BEGIN ATOM
M  V30 1 C 4.933273 -2.038923 3.567156 0
M  V30 2 C 5.938104 -2.881412 2.867182 0
M  V30 3 C 5.537195 -4.330159 3.046970 0
M  V30 4 C 6.272799 -2.519230 1.474796 0
M  V30 5 C 5.199074 -2.525426 0.461134 0 CFG=2
M  V30 6 N 4.089860 -1.655740 0.676256 0
M  V30 7 C 3.761529 -0.563091 -0.172722 0
M  V30 8 O 4.495193 -0.336926 -1.188771 0
M  V30 9 C 2.637932 0.342022 0.015864 0
M  V30 10 C 2.450127 1.352731 -0.898956 0
M  V30 11 C 1.385875 2.253748 -0.772672 0
M  V30 12 C 0.479230 2.163072 0.279078 0
M  V30 13 C -0.627352 3.136929 0.369159 0
M  V30 14 N -1.828475 2.724120 -0.321534 0
M  V30 15 C -2.771029 1.764661 0.106936 0
M  V30 16 O -2.611992 1.163387 1.199604 0
M  V30 17 C -3.953786 1.421500 -0.669502 0
M  V30 18 C -4.430385 1.872658 -1.881892 0
M  V30 19 N -5.590372 1.222109 -2.162849 0
M  V30 20 N -5.871586 0.378720 -1.184114 0
M  V30 21 C -7.038658 -0.451354 -1.198389 0
M  V30 22 C -8.173477 0.151528 -0.713604 0
M  V30 23 C -9.411853 -0.482930 -0.641780 0
M  V30 24 C -9.431847 -1.795821 -1.101435 0
M  V30 25 C -8.315360 -2.434963 -1.594707 0
M  V30 26 C -7.111448 -1.765603 -1.645940 0
M  V30 27 C -4.895340 0.485442 -0.274599 0
M  V30 28 N -4.933432 -0.315720 0.907873 0
M  V30 29 C 0.671154 1.144283 1.198510 0
M  V30 30 C 1.731175 0.276196 1.040531 0
M  V30 31 C 4.733656 -3.898725 0.100897 0
M  V30 32 N 5.884276 -4.719786 -0.102419 0
M  V30 33 O 3.644746 -4.507151 -0.066095 0
M  V30 34 H 5.230414 -1.938277 4.655271 0
M  V30 35 H 3.946721 -2.568227 3.640087 0
M  V30 36 H 4.854537 -0.994634 3.222174 0
M  V30 37 H 6.908896 -2.798021 3.441340 0
M  V30 38 H 4.575980 -4.553307 2.540304 0
M  V30 39 H 5.328337 -4.456800 4.143986 0
M  V30 40 H 6.366351 -4.997275 2.803550 0
M  V30 41 H 6.790847 -1.530807 1.510334 0
M  V30 42 H 7.067896 -3.226956 1.134455 0
M  V30 43 H 5.679696 -2.159249 -0.498859 0
M  V30 44 H 3.414747 -1.734601 1.465934 0
M  V30 45 H 3.074863 1.541193 -1.762197 0
M  V30 46 H 1.231345 3.059269 -1.496925 0
M  V30 47 H -0.277398 4.090492 -0.053500 0
M  V30 48 H -0.836719 3.330493 1.459617 0
M  V30 49 H -2.067385 3.165091 -1.257845 0
M  V30 50 H -3.877887 2.635336 -2.440055 0
M  V30 51 H -8.203176 1.184497 -0.341256 0
M  V30 52 H -10.301567 0.009196 -0.254687 0
M  V30 53 H -10.363396 -2.366532 -1.080185 0
M  V30 54 H -8.318700 -3.455157 -1.954809 0
M  V30 55 H -6.179705 -2.180845 -2.015748 0
M  V30 56 H -4.325277 -1.097101 1.197202 0
M  V30 57 H -5.560625 -0.326811 1.763967 0
M  V30 58 H 0.005542 1.033118 2.020391 0
M  V30 59 H 1.838479 -0.499160 1.780937 0
M  V30 60 H 5.895265 -5.761360 0.105860 0
M  V30 61 H 6.225293 -5.694330 -0.013881 0
M  V30 END ATOM
M  V30 BEGIN BOND
M  V30 1 1 1 2
M  V30 2 1 2 3
M  V30 3 1 2 4
M  V30 4 1 4 5
M  V30 5 1 5 6
M  V30 6 1 6 7
M  V30 7 2 7 8
M  V30 8 1 7 9
M  V30 9 2 9 10
M  V30 10 1 10 11
M  V30 11 2 11 12
M  V30 12 1 12 13
M  V30 13 1 13 14
M  V30 14 1 14 15
M  V30 15 2 15 16
M  V30 16 1 15 17
M  V30 17 1 17 18
M  V30 18 2 18 19
M  V30 19 1 19 20
M  V30 20 1 20 21
M  V30 21 2 21 22
M  V30 22 1 22 23
M  V30 23 2 23 24
M  V30 24 1 24 25
M  V30 25 2 25 26
M  V30 26 1 20 27
M  V30 27 1 27 28
M  V30 28 1 12 29
M  V30 29 2 29 30
M  V30 30 1 5 31
M  V30 31 1 31 32
M  V30 32 2 31 33
M  V30 33 1 30 9
M  V30 34 2 27 17
M  V30 35 1 26 21
M  V30 36 1 1 34
M  V30 37 1 1 35
M  V30 38 1 1 36
M  V30 39 1 2 37
M  V30 40 1 3 38
M  V30 41 1 3 39
M  V30 42 1 3 40
M  V30 43 1 4 41
M  V30 44 1 4 42
M  V30 45 1 5 43 CFG=3
M  V30 46 1 6 44
M  V30 47 1 10 45
M  V30 48 1 11 46
M  V30 49 1 13 47
M  V30 50 1 13 48
M  V30 51 1 14 49
M  V30 52 1 18 50
M  V30 53 1 22 51
M  V30 54 1 23 52
M  V30 55 1 24 53
M  V30 56 1 25 54
M  V30 57 1 26 55
M  V30 58 1 28 56
M  V30 59 1 28 57
M  V30 60 1 29 58
M  V30 61 1 30 59
M  V30 62 1 32 60
M  V30 63 1 32 61
M  V30 END BOND
M  V30 END CTAB
M  END
>  <Dataset>  (298) 
ChEMBL_Kinases

>  <Ligand_Instance>  (298) 
nan

>  <PDB_ID>  (298) 
nan

>  <Standardized_SMILES>  (298) 
CC(C)C[C@H](NC(=O)c1ccc(CNC(=O)c2cnn(-c3ccccc3)c2N)cc1)C(N)=O

>  <Name>  (298) 
nan

>  <Pocket>  (298) 
nan

>  <ATP_Site>  (298) 
nan

>  <Peripheral>  (298) 
nan

>  <Num_H_Atoms_ProtBoundConf>  (298) 
nan

>  <Num_Resolved_Atoms>  (298) 
nan

>  <Num_Not_Resolved_Atoms>  (298) 
nan

$$$$
CHEMBL4458991
     RDKit          3D

  0  0  0  0  0  0  0  0  0  0999 V3000
M  V30 BEGIN CTAB
M  V30 COUNTS 47 49 0 0 0
M  V30 BEGIN ATOM
M  V30 1 C 1.694988 -3.925110 0.511444 0
M  V30 2 C 1.138878 -2.506618 0.439810 0
M  V30 3 C 1.058456 -2.052565 -0.993988 0
M  V30 4 C 1.995232 -1.562944 1.252393 0
M  V30 5 C 3.417692 -1.496554 0.786227 0
M  V30 6 S 4.389504 -0.381428 1.767062 0
M  V30 7 C 3.767001 1.263261 1.720781 0
M  V30 8 O 4.447666 -0.863074 3.199889 0
M  V30 9 O 5.814297 -0.354018 1.293136 0
M  V30 10 N -0.217200 -2.564936 0.949447 0
M  V30 11 C -1.130460 -1.484487 1.007943 0
M  V30 12 N -0.810999 -0.237590 0.553060 0
M  V30 13 C -1.678666 0.785016 0.600404 0
M  V30 14 C -1.434078 2.136927 0.126834 0
M  V30 15 C -2.372285 3.157587 0.270866 0
M  V30 16 C -2.180698 4.442009 -0.168557 0
M  V30 17 N -1.043151 4.781228 -0.776264 0
M  V30 18 C -0.059811 3.855030 -0.966859 0
M  V30 19 C -0.296209 2.578851 -0.509595 0
M  V30 20 Cl 0.991245 1.457746 -0.798949 0
M  V30 21 N -2.903054 0.596477 1.107341 0
M  V30 22 C -3.296722 -0.595893 1.575104 0
M  V30 23 C -4.564616 -0.763158 2.092433 0
M  V30 24 N -4.988689 -1.968161 2.575032 0
M  V30 25 C -4.119907 -3.020444 2.534927 0
M  V30 26 C -2.859525 -2.818763 2.011120 0
M  V30 27 C -2.399877 -1.639223 1.522113 0
M  V30 28 H 2.700395 -4.023333 0.078657 0
M  V30 29 H 1.599529 -4.262615 1.557025 0
M  V30 30 H 1.014722 -4.552126 -0.110176 0
M  V30 31 H 1.835111 -1.355997 -1.311915 0
M  V30 32 H 1.008415 -2.961496 -1.667307 0
M  V30 33 H 0.075965 -1.544968 -1.201793 0
M  V30 34 H 2.043813 -1.888010 2.323711 0
M  V30 35 H 1.561689 -0.550651 1.286713 0
M  V30 36 H 3.542535 -1.164647 -0.255902 0
M  V30 37 H 3.845263 -2.520688 0.954592 0
M  V30 38 H 2.711877 1.313134 2.072672 0
M  V30 39 H 3.874948 1.661632 0.676649 0
M  V30 40 H 4.424376 1.878684 2.367821 0
M  V30 41 H -0.533825 -3.484013 1.298968 0
M  V30 42 H -3.329658 2.949780 0.760961 0
M  V30 43 H -2.940276 5.183402 -0.028605 0
M  V30 44 H 0.841798 4.159236 -1.458226 0
M  V30 45 H -5.270472 0.057476 2.134270 0
M  V30 46 H -4.496744 -3.956326 2.927431 0
M  V30 47 H -2.278384 -3.701909 2.032898 0
M  V30 END ATOM
M  V30 BEGIN BOND
M  V30 1 1 1 2
M  V30 2 1 2 3
M  V30 3 1 2 4
M  V30 4 1 4 5
M  V30 5 1 5 6
M  V30 6 1 6 7
M  V30 7 2 6 8
M  V30 8 2 6 9
M  V30 9 1 2 10
M  V30 10 1 10 11
M  V30 11 2 11 12
M  V30 12 1 12 13
M  V30 13 1 13 14
M  V30 14 2 14 15
M  V30 15 1 15 16
M  V30 16 2 16 17
M  V30 17 1 17 18
M  V30 18 2 18 19
M  V30 19 1 19 20
M  V30 20 2 13 21
M  V30 21 1 21 22
M  V30 22 2 22 23
M  V30 23 1 23 24
M  V30 24 2 24 25
M  V30 25 1 25 26
M  V30 26 2 26 27
M  V30 27 1 27 11
M  V30 28 1 19 14
M  V30 29 1 27 22
M  V30 30 1 1 28
M  V30 31 1 1 29
M  V30 32 1 1 30
M  V30 33 1 3 31
M  V30 34 1 3 32
M  V30 35 1 3 33
M  V30 36 1 4 34
M  V30 37 1 4 35
M  V30 38 1 5 36
M  V30 39 1 5 37
M  V30 40 1 7 38
M  V30 41 1 7 39
M  V30 42 1 7 40
M  V30 43 1 10 41
M  V30 44 1 15 42
M  V30 45 1 16 43
M  V30 46 1 18 44
M  V30 47 1 23 45
M  V30 48 1 25 46
M  V30 49 1 26 47
M  V30 END BOND
M  V30 END CTAB
M  END
>  <Dataset>  (299) 
ChEMBL_Kinases

>  <Ligand_Instance>  (299) 
nan

>  <PDB_ID>  (299) 
nan

>  <Standardized_SMILES>  (299) 
CC(C)(CCS(C)(=O)=O)Nc1nc(-c2ccncc2Cl)nc2cnccc12

>  <Name>  (299) 
nan

>  <Pocket>  (299) 
nan

>  <ATP_Site>  (299) 
nan

>  <Peripheral>  (299) 
nan

>  <Num_H_Atoms_ProtBoundConf>  (299) 
nan

>  <Num_Resolved_Atoms>  (299) 
nan

>  <Num_Not_Resolved_Atoms>  (299) 
nan

$$$$
CHEMBL4458873
     RDKit          3D

  0  0  0  0  0  0  0  0  0  0999 V3000
M  V30 BEGIN CTAB
M  V30 COUNTS 52 55 0 0 0
M  V30 BEGIN ATOM
M  V30 1 C -3.752208 -2.517731 4.251456 0
M  V30 2 C -2.661042 -1.968714 3.424201 0
M  V30 3 C -1.720209 -1.054371 3.866917 0
M  V30 4 C -0.709226 -0.566249 3.047099 0
M  V30 5 O 0.070174 0.336587 3.794930 0
M  V30 6 C -0.628456 -1.010592 1.714995 0
M  V30 7 C 0.515354 -0.300626 1.213583 0
M  V30 8 C 1.868053 -0.727076 1.251227 0
M  V30 9 C 2.884322 0.094734 0.811609 0
M  V30 10 C 2.535661 1.340609 0.336531 0
M  V30 11 C 3.671054 2.200402 -0.130812 0 CFG=1
M  V30 12 C 3.540996 2.518510 -1.601872 0
M  V30 13 C 3.744618 3.423983 0.734440 0
M  V30 14 N 4.850864 4.234440 0.258579 0
M  V30 15 C 1.244809 1.821158 0.270465 0
M  V30 16 C 0.224643 0.994152 0.712571 0
M  V30 17 C -1.562241 -1.904429 1.310598 0
M  V30 18 C -2.550735 -2.376874 2.125275 0
M  V30 19 N -3.419983 -3.262274 1.611604 0
M  V30 20 C -3.372577 -3.708121 0.345627 0
M  V30 21 O -4.247138 -4.527959 0.015073 0
M  V30 22 C -2.361538 -3.210272 -0.450535 0
M  V30 23 C -2.309627 -3.662813 -1.750812 0
M  V30 24 C -3.300051 -4.640482 -2.253605 0
M  V30 25 C -1.301308 -3.162969 -2.543698 0
M  V30 26 C -0.335675 -2.237702 -2.127190 0
M  V30 27 C -0.499059 -1.869558 -0.815775 0
M  V30 28 C -1.452760 -2.307328 0.027050 0
M  V30 29 H -3.658964 -2.141205 5.284776 0
M  V30 30 H -3.705748 -3.643258 4.266680 0
M  V30 31 H -4.711300 -2.242947 3.756206 0
M  V30 32 H -1.897067 -0.794491 4.915019 0
M  V30 33 H 1.073224 0.275577 3.666491 0
M  V30 34 H 1.981747 -1.719158 1.646123 0
M  V30 35 H 3.884079 -0.282679 0.864853 0
M  V30 36 H 4.622308 1.647894 -0.004731 0
M  V30 37 H 2.552039 2.904394 -1.884328 0
M  V30 38 H 3.829089 1.574032 -2.146999 0
M  V30 39 H 4.331149 3.265423 -1.839257 0
M  V30 40 H 2.793760 4.001618 0.739605 0
M  V30 41 H 4.004826 3.088766 1.756651 0
M  V30 42 H 5.729014 3.882292 0.704177 0
M  V30 43 H 4.722801 5.217160 0.544494 0
M  V30 44 H 1.057039 2.813162 -0.116944 0
M  V30 45 H -0.788201 1.368876 0.661681 0
M  V30 46 H -4.166499 -3.607287 2.258225 0
M  V30 47 H -4.338712 -4.250317 -2.293842 0
M  V30 48 H -3.056451 -4.853419 -3.337019 0
M  V30 49 H -3.197183 -5.619392 -1.753051 0
M  V30 50 H -1.305136 -3.553105 -3.563419 0
M  V30 51 H 0.360954 -1.979858 -2.905688 0
M  V30 52 H 0.280860 -1.197055 -0.685545 0
M  V30 END ATOM
M  V30 BEGIN BOND
M  V30 1 1 1 2
M  V30 2 2 2 3
M  V30 3 1 3 4
M  V30 4 1 4 5
M  V30 5 2 4 6
M  V30 6 1 6 7
M  V30 7 2 7 8
M  V30 8 1 8 9
M  V30 9 2 9 10
M  V30 10 1 10 11
M  V30 11 1 11 12
M  V30 12 1 11 13
M  V30 13 1 13 14
M  V30 14 1 10 15
M  V30 15 2 15 16
M  V30 16 1 6 17
M  V30 17 2 17 18
M  V30 18 1 18 19
M  V30 19 1 19 20
M  V30 20 2 20 21
M  V30 21 1 20 22
M  V30 22 2 22 23
M  V30 23 1 23 24
M  V30 24 1 23 25
M  V30 25 2 25 26
M  V30 26 1 26 27
M  V30 27 2 27 28
M  V30 28 1 18 2
M  V30 29 1 28 22
M  V30 30 1 16 7
M  V30 31 1 28 17
M  V30 32 1 1 29
M  V30 33 1 1 30
M  V30 34 1 1 31
M  V30 35 1 3 32
M  V30 36 1 5 33
M  V30 37 1 8 34
M  V30 38 1 9 35
M  V30 39 1 11 36 CFG=3
M  V30 40 1 12 37
M  V30 41 1 12 38
M  V30 42 1 12 39
M  V30 43 1 13 40
M  V30 44 1 13 41
M  V30 45 1 14 42
M  V30 46 1 14 43
M  V30 47 1 15 44
M  V30 48 1 16 45
M  V30 49 1 19 46
M  V30 50 1 24 47
M  V30 51 1 24 48
M  V30 52 1 24 49
M  V30 53 1 25 50
M  V30 54 1 26 51
M  V30 55 1 27 52
M  V30 END BOND
M  V30 END CTAB
M  END
>  <Dataset>  (300) 
ChEMBL_Kinases

>  <Ligand_Instance>  (300) 
nan

>  <PDB_ID>  (300) 
nan

>  <Standardized_SMILES>  (300) 
Cc1cc(O)c(-c2ccc([C@@H](C)CN)cc2)c2c1[nH]c(=O)c1c(C)cccc12

>  <Name>  (300) 
nan

>  <Pocket>  (300) 
nan

>  <ATP_Site>  (300) 
nan

>  <Peripheral>  (300) 
nan

>  <Num_H_Atoms_ProtBoundConf>  (300) 
nan

>  <Num_Resolved_Atoms>  (300) 
nan

>  <Num_Not_Resolved_Atoms>  (300) 
nan

$$$$
CHEMBL4458845
     RDKit          3D

  0  0  0  0  0  0  0  0  0  0999 V3000
M  V30 BEGIN CTAB
M  V30 COUNTS 45 48 0 0 0
M  V30 BEGIN ATOM
M  V30 1 C -0.034895 -4.875770 3.238598 0
M  V30 2 N 0.923897 -4.208519 2.391961 0
M  V30 3 C 0.828950 -2.900331 2.078231 0
M  V30 4 C 1.897029 -2.595206 1.261847 0
M  V30 5 C 2.168441 -1.277379 0.695558 0
M  V30 6 C 3.266579 -1.071000 -0.112721 0
M  V30 7 C 3.441476 0.207209 -0.601735 0
M  V30 8 N 4.491323 0.498859 -1.401768 0
M  V30 9 C 4.709320 1.730568 -1.906713 0
M  V30 10 C 3.810914 2.695580 -1.573477 0
M  V30 11 N 2.765967 2.448141 -0.789575 0
M  V30 12 C 2.546242 1.202549 -0.279435 0
M  V30 13 C 1.433792 0.985488 0.541694 0
M  V30 14 N 0.520587 2.025100 0.864584 0
M  V30 15 C -0.637190 1.818255 1.712959 0
M  V30 16 C -1.575215 0.804128 1.142678 0 CFG=1
M  V30 17 C -2.790585 0.574686 2.013728 0
M  V30 18 C -3.782299 -0.243630 1.212157 0
M  V30 19 C -3.013221 -1.028686 0.154483 0
M  V30 20 N -2.445614 -0.152133 -0.854051 0
M  V30 21 C -2.025801 1.105282 -0.248638 0
M  V30 22 N 1.318507 -0.278465 0.985948 0
M  V30 23 C 2.632554 -3.750647 1.094705 0
M  V30 24 N 2.005405 -4.691275 1.794357 0
M  V30 25 H -0.162325 -4.363659 4.210618 0
M  V30 26 H -1.031339 -4.896744 2.739412 0
M  V30 27 H 0.246066 -5.920109 3.425967 0
M  V30 28 H 0.061212 -2.211822 2.402419 0
M  V30 29 H 3.953694 -1.849449 -0.355896 0
M  V30 30 H 5.588519 1.847909 -2.539987 0
M  V30 31 H 3.984132 3.689737 -1.979173 0
M  V30 32 H 0.716509 2.966074 0.460199 0
M  V30 33 H -1.109531 2.755220 2.011208 0
M  V30 34 H -0.217811 1.387008 2.669742 0
M  V30 35 H -1.049951 -0.169999 1.100477 0
M  V30 36 H -2.482162 -0.039367 2.891407 0
M  V30 37 H -3.256927 1.540377 2.329553 0
M  V30 38 H -4.514843 0.378335 0.680108 0
M  V30 39 H -4.278238 -1.011679 1.840137 0
M  V30 40 H -3.730629 -1.699991 -0.387072 0
M  V30 41 H -2.275842 -1.723071 0.603025 0
M  V30 42 H -1.563566 -0.613478 -1.180362 0
M  V30 43 H -1.145874 1.510539 -0.804822 0
M  V30 44 H -2.886779 1.792777 -0.300207 0
M  V30 45 H 3.528355 -3.764418 0.488015 0
M  V30 END ATOM
M  V30 BEGIN BOND
M  V30 1 1 1 2
M  V30 2 1 2 3
M  V30 3 2 3 4
M  V30 4 1 4 5
M  V30 5 2 5 6
M  V30 6 1 6 7
M  V30 7 2 7 8
M  V30 8 1 8 9
M  V30 9 2 9 10
M  V30 10 1 10 11
M  V30 11 2 11 12
M  V30 12 1 12 13
M  V30 13 1 13 14
M  V30 14 1 14 15
M  V30 15 1 15 16
M  V30 16 1 16 17
M  V30 17 1 17 18
M  V30 18 1 18 19
M  V30 19 1 19 20
M  V30 20 1 20 21
M  V30 21 2 13 22
M  V30 22 1 4 23
M  V30 23 2 23 24
M  V30 24 1 24 2
M  V30 25 1 22 5
M  V30 26 1 12 7
M  V30 27 1 21 16
M  V30 28 1 1 25
M  V30 29 1 1 26
M  V30 30 1 1 27
M  V30 31 1 3 28
M  V30 32 1 6 29
M  V30 33 1 9 30
M  V30 34 1 10 31
M  V30 35 1 14 32
M  V30 36 1 15 33
M  V30 37 1 15 34
M  V30 38 1 16 35 CFG=3
M  V30 39 1 17 36
M  V30 40 1 17 37
M  V30 41 1 18 38
M  V30 42 1 18 39
M  V30 43 1 19 40
M  V30 44 1 19 41
M  V30 45 1 20 42
M  V30 46 1 21 43
M  V30 47 1 21 44
M  V30 48 1 23 45
M  V30 END BOND
M  V30 END CTAB
M  END
>  <Dataset>  (301) 
ChEMBL_Kinases

>  <Ligand_Instance>  (301) 
nan

>  <PDB_ID>  (301) 
nan

>  <Standardized_SMILES>  (301) 
Cn1cc(-c2cc3nccnc3c(NC[C@H]3CCCNC3)n2)cn1

>  <Name>  (301) 
nan

>  <Pocket>  (301) 
nan

>  <ATP_Site>  (301) 
nan

>  <Peripheral>  (301) 
nan

>  <Num_H_Atoms_ProtBoundConf>  (301) 
nan

>  <Num_Resolved_Atoms>  (301) 
nan

>  <Num_Not_Resolved_Atoms>  (301) 
nan

$$$$
CHEMBL4458703
     RDKit          3D

  0  0  0  0  0  0  0  0  0  0999 V3000
M  V30 BEGIN CTAB
M  V30 COUNTS 60 63 0 0 0
M  V30 BEGIN ATOM
M  V30 1 C 2.386343 -2.920280 6.672140 0
M  V30 2 C 1.618748 -3.106901 5.413192 0
M  V30 3 C 2.214453 -3.070732 4.146312 0
M  V30 4 O 3.554842 -2.849632 4.201949 0
M  V30 5 C 4.472635 -2.742520 3.166090 0
M  V30 6 C 4.277262 -1.637137 2.216257 0
M  V30 7 O 5.129713 -1.572074 1.274908 0
M  V30 8 N 3.259437 -0.683512 2.269606 0
M  V30 9 C 2.785863 0.451162 1.568678 0
M  V30 10 C 3.235008 1.714256 1.883717 0
M  V30 11 C 2.737043 2.787456 1.167866 0
M  V30 12 C 1.808008 2.523621 0.168026 0
M  V30 13 C 1.337413 1.297879 -0.176537 0
M  V30 14 N 0.403954 1.004301 -1.173801 0
M  V30 15 C -0.286936 1.856099 -2.055192 0
M  V30 16 O -0.076226 3.075237 -1.983433 0
M  V30 17 C -1.247282 1.430817 -3.065279 0
M  V30 18 C -1.856120 2.395957 -3.841288 0
M  V30 19 C -2.786868 2.055331 -4.830233 0
M  V30 20 C -3.135567 0.742640 -5.071291 0
M  V30 21 N -4.077818 0.359832 -6.065516 0
M  V30 22 C -4.388131 -1.065518 -6.254746 0
M  V30 23 C -4.724426 1.369385 -6.882150 0
M  V30 24 C -2.526096 -0.221809 -4.294691 0
M  V30 25 C -1.611044 0.125854 -3.324165 0
M  V30 26 C 1.865113 0.265365 0.566552 0
M  V30 27 C 1.384158 -3.261605 3.033888 0
M  V30 28 C 0.028210 -3.479956 3.131918 0
M  V30 29 C -0.524860 -3.509411 4.393433 0
M  V30 30 C -1.886047 -3.730658 4.445609 0
M  V30 31 O -2.642548 -3.903560 3.455831 0
M  V30 32 C -2.448256 -3.760482 5.725090 0
M  V30 33 C -1.629666 -3.571524 6.833485 0
M  V30 34 O -0.321082 -3.361466 6.731098 0
M  V30 35 C 0.239830 -3.328228 5.527445 0
M  V30 36 H 2.422103 -1.882065 7.017582 0
M  V30 37 H 3.396760 -3.370396 6.586855 0
M  V30 38 H 1.872444 -3.517967 7.452313 0
M  V30 39 H 4.432039 -3.737309 2.623907 0
M  V30 40 H 5.527546 -2.691704 3.516299 0
M  V30 41 H 2.554657 -0.684770 3.028620 0
M  V30 42 H 3.957365 1.888055 2.666350 0
M  V30 43 H 3.076175 3.774102 1.400131 0
M  V30 44 H 1.467839 3.393788 -0.341438 0
M  V30 45 H 0.128303 -0.004920 -1.343533 0
M  V30 46 H -1.675716 3.469271 -3.760018 0
M  V30 47 H -3.268465 2.805177 -5.443383 0
M  V30 48 H -3.459690 -1.520833 -6.666059 0
M  V30 49 H -5.182271 -1.203273 -6.984145 0
M  V30 50 H -4.630869 -1.568417 -5.300612 0
M  V30 51 H -5.499942 1.919447 -6.309198 0
M  V30 52 H -5.220352 0.887310 -7.762899 0
M  V30 53 H -3.952365 2.050645 -7.285346 0
M  V30 54 H -2.789144 -1.262224 -4.471937 0
M  V30 55 H -1.166977 -0.652885 -2.750134 0
M  V30 56 H 1.538900 -0.765609 0.354891 0
M  V30 57 H 1.956743 -3.212475 2.115019 0
M  V30 58 H -0.523396 -3.615505 2.211067 0
M  V30 59 H -3.522339 -3.928814 5.895815 0
M  V30 60 H -2.051735 -3.591777 7.839954 0
M  V30 END ATOM
M  V30 BEGIN BOND
M  V30 1 1 1 2
M  V30 2 2 2 3
M  V30 3 1 3 4
M  V30 4 1 4 5
M  V30 5 1 5 6
M  V30 6 2 6 7
M  V30 7 1 6 8
M  V30 8 1 8 9
M  V30 9 2 9 10
M  V30 10 1 10 11
M  V30 11 2 11 12
M  V30 12 1 12 13
M  V30 13 1 13 14
M  V30 14 1 14 15
M  V30 15 2 15 16
M  V30 16 1 15 17
M  V30 17 2 17 18
M  V30 18 1 18 19
M  V30 19 2 19 20
M  V30 20 1 20 21
M  V30 21 1 21 22
M  V30 22 1 21 23
M  V30 23 1 20 24
M  V30 24 2 24 25
M  V30 25 2 13 26
M  V30 26 1 3 27
M  V30 27 2 27 28
M  V30 28 1 28 29
M  V30 29 1 29 30
M  V30 30 2 30 31
M  V30 31 1 30 32
M  V30 32 2 32 33
M  V30 33 1 33 34
M  V30 34 1 34 35
M  V30 35 1 35 2
M  V30 36 1 26 9
M  V30 37 2 35 29
M  V30 38 1 25 17
M  V30 39 1 1 36
M  V30 40 1 1 37
M  V30 41 1 1 38
M  V30 42 1 5 39
M  V30 43 1 5 40
M  V30 44 1 8 41
M  V30 45 1 10 42
M  V30 46 1 11 43
M  V30 47 1 12 44
M  V30 48 1 14 45
M  V30 49 1 18 46
M  V30 50 1 19 47
M  V30 51 1 22 48
M  V30 52 1 22 49
M  V30 53 1 22 50
M  V30 54 1 23 51
M  V30 55 1 23 52
M  V30 56 1 23 53
M  V30 57 1 24 54
M  V30 58 1 25 55
M  V30 59 1 26 56
M  V30 60 1 27 57
M  V30 61 1 28 58
M  V30 62 1 32 59
M  V30 63 1 33 60
M  V30 END BOND
M  V30 END CTAB
M  END
>  <Dataset>  (302) 
ChEMBL_Kinases

>  <Ligand_Instance>  (302) 
nan

>  <PDB_ID>  (302) 
nan

>  <Standardized_SMILES>  (302) 
Cc1c(OCC(=O)Nc2cccc(NC(=O)c3ccc(N(C)C)cc3)c2)ccc2c(=O)ccoc12

>  <Name>  (302) 
nan

>  <Pocket>  (302) 
nan

>  <ATP_Site>  (302) 
nan

>  <Peripheral>  (302) 
nan

>  <Num_H_Atoms_ProtBoundConf>  (302) 
nan

>  <Num_Resolved_Atoms>  (302) 
nan

>  <Num_Not_Resolved_Atoms>  (302) 
nan

$$$$
CHEMBL4458609
     RDKit          3D

  0  0  0  0  0  0  0  0  0  0999 V3000
M  V30 BEGIN CTAB
M  V30 COUNTS 140 145 0 0 0
M  V30 BEGIN ATOM
M  V30 1 C 0.617549 6.339052 2.455815 0
M  V30 2 C -0.459298 5.545271 1.803425 0
M  V30 3 N -1.593685 6.120372 1.485680 0
M  V30 4 C -2.538219 5.534604 0.945183 0
M  V30 5 S -1.812344 3.793796 0.793600 0
M  V30 6 C -0.263456 4.188666 1.532650 0
M  V30 7 C 0.738445 3.233953 1.708475 0
M  V30 8 C 0.449201 1.922305 1.313001 0
M  V30 9 C 1.399209 0.904593 1.455060 0
M  V30 10 C 2.653769 1.136552 1.985140 0
M  V30 11 C 3.563272 -0.017826 2.111804 0 CFG=2
M  V30 12 C 3.643150 -0.315602 3.612211 0
M  V30 13 N 4.869486 0.309704 1.591432 0
M  V30 14 C 5.637020 -0.476880 0.626592 0
M  V30 15 O 4.905240 -1.439576 0.386488 0
M  V30 16 C 6.904039 0.199829 0.377290 0 CFG=2
M  V30 17 C 6.796471 1.393524 -0.568028 0
M  V30 18 C 8.282253 1.601834 -0.913082 0 CFG=1
M  V30 19 O 8.721786 2.845070 -0.517721 0
M  V30 20 C 8.986559 0.455583 -0.181540 0
M  V30 21 N 7.918575 -0.561995 -0.303443 0
M  V30 22 C 7.952202 -1.851239 -0.886138 0
M  V30 23 O 6.885475 -2.546071 -0.925318 0
M  V30 24 C 8.529838 -3.005778 -1.544830 0 CFG=1
M  V30 25 N 7.505211 -3.959876 -1.888607 0
M  V30 26 C 7.031566 -5.235337 -1.600874 0
M  V30 27 O 7.773823 -5.745862 -0.702612 0
M  V30 28 C 6.024490 -6.205208 -1.927766 0
M  V30 29 O 5.087126 -5.925828 -2.858562 0
M  V30 30 C 4.210888 -4.899022 -2.651184 0
M  V30 31 C 3.404411 -5.074281 -1.357016 0
M  V30 32 O 2.578570 -3.936536 -1.311502 0
M  V30 33 C 1.836249 -3.920595 -0.131025 0
M  V30 34 C 1.066747 -2.644705 -0.122164 0
M  V30 35 O 0.179537 -2.423466 -1.112754 0
M  V30 36 C 0.562621 -2.449458 -2.419318 0
M  V30 37 C -0.633771 -2.026596 -3.308119 0
M  V30 38 N -1.036893 -0.667184 -2.961386 0
M  V30 39 C -2.135968 0.155528 -3.431573 0
M  V30 40 O -2.839440 -0.458187 -4.272886 0
M  V30 41 C -2.066582 1.467920 -2.749833 0
M  V30 42 O -3.063888 2.371115 -3.068094 0
M  V30 43 C -4.404136 2.202020 -2.817720 0
M  V30 44 C -5.445477 3.049072 -3.097866 0
M  V30 45 C -6.759739 2.770425 -2.790639 0
M  V30 46 C -7.112701 1.577794 -2.160383 0
M  V30 47 S -8.681148 1.054962 -1.657385 0
M  V30 48 O -9.779525 1.707231 -2.479411 0
M  V30 49 O -8.800976 -0.422660 -1.857681 0
M  V30 50 N -8.988354 1.375589 0.039938 0
M  V30 51 C -8.143700 0.755645 1.014861 0
M  V30 52 C -6.831428 1.127853 1.206558 0
M  V30 53 C -5.965955 0.579285 2.124622 0
M  V30 54 C -4.549686 1.048235 2.270843 0
M  V30 55 C -6.468637 -0.439600 2.924148 0
M  V30 56 O -5.666736 -0.951087 3.774275 0
M  V30 57 N -7.751638 -0.845054 2.779051 0
M  V30 58 C -8.124424 -1.915955 3.640429 0
M  V30 59 C -8.579841 -0.272633 1.855366 0
M  V30 60 N -9.937851 -0.730067 1.744498 0
M  V30 61 C -11.031890 0.019286 2.290474 0
M  V30 62 C -11.971728 0.394700 1.323703 0
M  V30 63 C -13.078519 1.129480 1.686229 0
M  V30 64 C -13.323594 1.533756 3.000177 0
M  V30 65 I -14.951549 2.650992 3.697639 0
M  V30 66 C -12.383647 1.152073 3.933553 0
M  V30 67 C -11.285897 0.422081 3.570135 0
M  V30 68 F -10.384427 0.067378 4.499363 0
M  V30 69 C -6.048538 0.711293 -1.876426 0
M  V30 70 C -4.743353 1.001029 -2.187277 0
M  V30 71 C 9.312205 -2.741371 -2.800773 0
M  V30 72 C 10.494190 -1.841246 -2.632592 0
M  V30 73 C 9.896686 -4.111348 -3.203774 0
M  V30 74 C 8.484057 -2.304247 -3.963741 0
M  V30 75 C 2.974955 2.421262 2.386368 0
M  V30 76 C 2.003976 3.379462 2.223640 0
M  V30 77 H 1.536498 6.418513 1.831805 0
M  V30 78 H 0.324668 7.415506 2.622439 0
M  V30 79 H 0.835547 5.952601 3.470175 0
M  V30 80 H -3.509943 5.861842 0.630424 0
M  V30 81 H -0.498260 1.566184 0.871708 0
M  V30 82 H 1.145067 -0.086393 1.150119 0
M  V30 83 H 3.148083 -0.897746 1.574354 0
M  V30 84 H 2.614943 -0.247214 4.016805 0
M  V30 85 H 4.244581 0.452963 4.096545 0
M  V30 86 H 3.994820 -1.354916 3.774746 0
M  V30 87 H 5.158113 1.225688 2.047797 0
M  V30 88 H 7.375294 0.564295 1.319160 0
M  V30 89 H 6.353480 2.266860 -0.089683 0
M  V30 90 H 6.233046 1.112215 -1.476013 0
M  V30 91 H 8.484946 1.414840 -1.988608 0
M  V30 92 H 8.318427 3.499357 -1.173808 0
M  V30 93 H 9.914580 0.160169 -0.654368 0
M  V30 94 H 9.072077 0.663732 0.904181 0
M  V30 95 H 9.253256 -3.489166 -0.825166 0
M  V30 96 H 6.926977 -3.508402 -2.629159 0
M  V30 97 H 5.455028 -6.431269 -0.964014 0
M  V30 98 H 6.518402 -7.175672 -2.252687 0
M  V30 99 H 4.712798 -3.933425 -2.635313 0
M  V30 100 H 3.449791 -4.922664 -3.499351 0
M  V30 101 H 4.048897 -5.093940 -0.465757 0
M  V30 102 H 2.759957 -5.964418 -1.443532 0
M  V30 103 H 1.255139 -4.829953 0.050894 0
M  V30 104 H 2.603404 -3.894305 0.696961 0
M  V30 105 H 0.634227 -2.423417 0.894339 0
M  V30 106 H 1.865705 -1.830250 -0.222115 0
M  V30 107 H 1.382556 -1.744105 -2.617421 0
M  V30 108 H 0.824424 -3.460991 -2.790605 0
M  V30 109 H -1.421529 -2.779934 -3.137247 0
M  V30 110 H -0.290288 -2.065571 -4.348477 0
M  V30 111 H -0.360048 -0.275833 -2.227843 0
M  V30 112 H -1.055532 1.915596 -2.980080 0
M  V30 113 H -2.053303 1.352487 -1.640904 0
M  V30 114 H -5.183665 3.975418 -3.586588 0
M  V30 115 H -7.586765 3.426251 -3.001028 0
M  V30 116 H -9.658082 1.934115 0.606849 0
M  V30 117 H -6.393941 1.928657 0.626837 0
M  V30 118 H -4.493636 1.921798 2.953349 0
M  V30 119 H -3.894587 0.265120 2.687762 0
M  V30 120 H -4.113928 1.317268 1.286662 0
M  V30 121 H -7.795116 -1.749580 4.693671 0
M  V30 122 H -7.573838 -2.840410 3.294130 0
M  V30 123 H -9.201121 -2.165299 3.559413 0
M  V30 124 H -10.040765 -1.645581 1.234378 0
M  V30 125 H -11.984951 0.190860 0.249994 0
M  V30 126 H -13.863512 1.469491 0.996724 0
M  V30 127 H -12.492696 1.422185 4.980846 0
M  V30 128 H -6.264395 -0.250718 -1.380228 0
M  V30 129 H -4.004421 0.236277 -1.901777 0
M  V30 130 H 10.205246 -0.850923 -3.063325 0
M  V30 131 H 11.331284 -2.179667 -3.309577 0
M  V30 132 H 10.906980 -1.793851 -1.621269 0
M  V30 133 H 10.778234 -3.999507 -3.850317 0
M  V30 134 H 9.098460 -4.654027 -3.717959 0
M  V30 135 H 10.254628 -4.649476 -2.299012 0
M  V30 136 H 9.222832 -2.060742 -4.786077 0
M  V30 137 H 7.922552 -3.175513 -4.368921 0
M  V30 138 H 7.880986 -1.410431 -3.809208 0
M  V30 139 H 3.939913 2.630490 2.804954 0
M  V30 140 H 2.294038 4.348957 2.548891 0
M  V30 END ATOM
M  V30 BEGIN BOND
M  V30 1 1 1 2
M  V30 2 1 2 3
M  V30 3 2 3 4
M  V30 4 1 4 5
M  V30 5 1 5 6
M  V30 6 1 6 7
M  V30 7 2 7 8
M  V30 8 1 8 9
M  V30 9 2 9 10
M  V30 10 1 10 11
M  V30 11 1 11 12
M  V30 12 1 11 13
M  V30 13 1 13 14
M  V30 14 2 14 15
M  V30 15 1 14 16
M  V30 16 1 16 17
M  V30 17 1 17 18
M  V30 18 1 18 19
M  V30 19 1 18 20
M  V30 20 1 20 21
M  V30 21 1 21 22
M  V30 22 2 22 23
M  V30 23 1 22 24
M  V30 24 1 24 25
M  V30 25 1 25 26
M  V30 26 2 26 27
M  V30 27 1 26 28
M  V30 28 1 28 29
M  V30 29 1 29 30
M  V30 30 1 30 31
M  V30 31 1 31 32
M  V30 32 1 32 33
M  V30 33 1 33 34
M  V30 34 1 34 35
M  V30 35 1 35 36
M  V30 36 1 36 37
M  V30 37 1 37 38
M  V30 38 1 38 39
M  V30 39 2 39 40
M  V30 40 1 39 41
M  V30 41 1 41 42
M  V30 42 1 42 43
M  V30 43 2 43 44
M  V30 44 1 44 45
M  V30 45 2 45 46
M  V30 46 1 46 47
M  V30 47 2 47 48
M  V30 48 2 47 49
M  V30 49 1 47 50
M  V30 50 1 50 51
M  V30 51 1 51 52
M  V30 52 2 52 53
M  V30 53 1 53 54
M  V30 54 1 53 55
M  V30 55 2 55 56
M  V30 56 1 55 57
M  V30 57 1 57 58
M  V30 58 1 57 59
M  V30 59 1 59 60
M  V30 60 1 60 61
M  V30 61 2 61 62
M  V30 62 1 62 63
M  V30 63 2 63 64
M  V30 64 1 64 65
M  V30 65 1 64 66
M  V30 66 2 66 67
M  V30 67 1 67 68
M  V30 68 1 46 69
M  V30 69 2 69 70
M  V30 70 1 24 71
M  V30 71 1 71 72
M  V30 72 1 71 73
M  V30 73 1 71 74
M  V30 74 1 10 75
M  V30 75 2 75 76
M  V30 76 2 6 2
M  V30 77 1 76 7
M  V30 78 1 21 16
M  V30 79 1 70 43
M  V30 80 2 59 51
M  V30 81 1 67 61
M  V30 82 1 1 77
M  V30 83 1 1 78
M  V30 84 1 1 79
M  V30 85 1 4 80
M  V30 86 1 8 81
M  V30 87 1 9 82
M  V30 88 1 11 83 CFG=3
M  V30 89 1 12 84
M  V30 90 1 12 85
M  V30 91 1 12 86
M  V30 92 1 13 87
M  V30 93 1 16 88 CFG=1
M  V30 94 1 17 89
M  V30 95 1 17 90
M  V30 96 1 18 91 CFG=3
M  V30 97 1 19 92
M  V30 98 1 20 93
M  V30 99 1 20 94
M  V30 100 1 24 95 CFG=1
M  V30 101 1 25 96
M  V30 102 1 28 97
M  V30 103 1 28 98
M  V30 104 1 30 99
M  V30 105 1 30 100
M  V30 106 1 31 101
M  V30 107 1 31 102
M  V30 108 1 33 103
M  V30 109 1 33 104
M  V30 110 1 34 105
M  V30 111 1 34 106
M  V30 112 1 36 107
M  V30 113 1 36 108
M  V30 114 1 37 109
M  V30 115 1 37 110
M  V30 116 1 38 111
M  V30 117 1 41 112
M  V30 118 1 41 113
M  V30 119 1 44 114
M  V30 120 1 45 115
M  V30 121 1 50 116
M  V30 122 1 52 117
M  V30 123 1 54 118
M  V30 124 1 54 119
M  V30 125 1 54 120
M  V30 126 1 58 121
M  V30 127 1 58 122
M  V30 128 1 58 123
M  V30 129 1 60 124
M  V30 130 1 62 125
M  V30 131 1 63 126
M  V30 132 1 66 127
M  V30 133 1 69 128
M  V30 134 1 70 129
M  V30 135 1 72 130
M  V30 136 1 72 131
M  V30 137 1 72 132
M  V30 138 1 73 133
M  V30 139 1 73 134
M  V30 140 1 73 135
M  V30 141 1 74 136
M  V30 142 1 74 137
M  V30 143 1 74 138
M  V30 144 1 75 139
M  V30 145 1 76 140
M  V30 END BOND
M  V30 END CTAB
M  END
>  <Dataset>  (303) 
ChEMBL_Kinases

>  <Ligand_Instance>  (303) 
nan

>  <PDB_ID>  (303) 
nan

>  <Standardized_SMILES>  (303) 
Cc1ncsc1-c1ccc([C@H](C)NC(=O)[C@@H]2C[C@@H](O)CN2C(=O)[C@@H](NC(=O)COCCOCCOCCNC(=O)COc2ccc(S(=O)(=O)Nc3cc(C)c(=O)n(C)c3Nc3ccc(I)cc3F)cc2)C(C)(C)C)cc1

>  <Name>  (303) 
nan

>  <Pocket>  (303) 
nan

>  <ATP_Site>  (303) 
nan

>  <Peripheral>  (303) 
nan

>  <Num_H_Atoms_ProtBoundConf>  (303) 
nan

>  <Num_Resolved_Atoms>  (303) 
nan

>  <Num_Not_Resolved_Atoms>  (303) 
nan

$$$$
CHEMBL4743506
     RDKit          3D

  0  0  0  0  0  0  0  0  0  0999 V3000
M  V30 BEGIN CTAB
M  V30 COUNTS 48 52 0 0 0
M  V30 BEGIN ATOM
M  V30 1 C 3.053319 -1.071389 -2.387919 0
M  V30 2 O 2.607300 -0.082268 -1.450231 0
M  V30 3 C 3.410036 0.096088 -0.331198 0
M  V30 4 C 4.562648 -0.580737 -0.061325 0
M  V30 5 C 5.318050 -0.361213 1.065800 0
M  V30 6 C 4.844854 0.605027 1.941469 0
M  V30 7 C 3.680809 1.317696 1.710663 0
M  V30 8 F 3.305889 2.252031 2.646346 0
M  V30 9 C 2.949842 1.054674 0.547492 0
M  V30 10 C 1.750727 1.877749 0.437199 0
M  V30 11 C 0.631262 1.308578 1.011081 0
M  V30 12 C -0.580232 1.975315 0.983051 0
M  V30 13 C -0.573844 3.206507 0.358396 0
M  V30 14 C 0.539436 3.789369 -0.220834 0
M  V30 15 N 1.673346 3.100882 -0.161988 0
M  V30 16 C -1.875477 3.660072 0.461255 0
M  V30 17 N -2.579624 2.734326 1.109517 0
M  V30 18 N -1.820032 1.702024 1.437930 0
M  V30 19 C -2.125831 0.482134 2.133319 0
M  V30 20 C -2.481075 0.322058 3.473314 0
M  V30 21 C -2.731846 -0.947823 3.929462 0
M  V30 22 C -2.645107 -2.043725 3.121773 0
M  V30 23 C -2.291474 -1.853515 1.800921 0
M  V30 24 N -2.190144 -2.969100 0.927034 0
M  V30 25 C -2.371264 -4.403799 1.037533 0
M  V30 26 C -2.693443 -4.419490 -0.440803 0
M  V30 27 N -4.080091 -4.204872 -0.771529 0
M  V30 28 C -1.858285 -3.161964 -0.470014 0
M  V30 29 N -2.041001 -0.617337 1.331694 0
M  V30 30 H 4.117695 -0.975240 -2.640929 0
M  V30 31 H 2.372030 -1.154171 -3.246184 0
M  V30 32 H 2.953547 -2.042080 -1.820400 0
M  V30 33 H 4.891105 -1.334128 -0.787664 0
M  V30 34 H 6.237273 -0.911797 1.265542 0
M  V30 35 H 5.415791 0.806193 2.843863 0
M  V30 36 H 0.632654 0.332694 1.504560 0
M  V30 37 H 0.503234 4.753168 -0.699300 0
M  V30 38 H -2.281652 4.590083 0.094363 0
M  V30 39 H -2.514943 1.263192 4.005938 0
M  V30 40 H -3.005098 -0.998551 4.990800 0
M  V30 41 H -2.846936 -3.026548 3.505501 0
M  V30 42 H -3.305973 -4.650185 1.604916 0
M  V30 43 H -1.491340 -4.988894 1.310657 0
M  V30 44 H -2.248126 -5.292575 -0.978610 0
M  V30 45 H -4.622463 -5.065332 -0.600325 0
M  V30 46 H -4.442055 -3.423183 -0.211730 0
M  V30 47 H -0.789652 -3.456483 -0.664162 0
M  V30 48 H -2.219813 -2.360669 -1.151519 0
M  V30 END ATOM
M  V30 BEGIN BOND
M  V30 1 1 1 2
M  V30 2 1 2 3
M  V30 3 2 3 4
M  V30 4 1 4 5
M  V30 5 2 5 6
M  V30 6 1 6 7
M  V30 7 1 7 8
M  V30 8 2 7 9
M  V30 9 1 9 10
M  V30 10 2 10 11
M  V30 11 1 11 12
M  V30 12 2 12 13
M  V30 13 1 13 14
M  V30 14 2 14 15
M  V30 15 1 13 16
M  V30 16 2 16 17
M  V30 17 1 17 18
M  V30 18 1 18 19
M  V30 19 2 19 20
M  V30 20 1 20 21
M  V30 21 2 21 22
M  V30 22 1 22 23
M  V30 23 1 23 24
M  V30 24 1 24 25
M  V30 25 1 25 26
M  V30 26 1 26 27
M  V30 27 1 26 28
M  V30 28 2 23 29
M  V30 29 1 9 3
M  V30 30 1 15 10
M  V30 31 1 29 19
M  V30 32 1 18 12
M  V30 33 1 28 24
M  V30 34 1 1 30
M  V30 35 1 1 31
M  V30 36 1 1 32
M  V30 37 1 4 33
M  V30 38 1 5 34
M  V30 39 1 6 35
M  V30 40 1 11 36
M  V30 41 1 14 37
M  V30 42 1 16 38
M  V30 43 1 20 39
M  V30 44 1 21 40
M  V30 45 1 22 41
M  V30 46 1 25 42
M  V30 47 1 25 43
M  V30 48 1 26 44
M  V30 49 1 27 45
M  V30 50 1 27 46
M  V30 51 1 28 47
M  V30 52 1 28 48
M  V30 END BOND
M  V30 END CTAB
M  END
>  <Dataset>  (304) 
ChEMBL_Kinases

>  <Ligand_Instance>  (304) 
nan

>  <PDB_ID>  (304) 
nan

>  <Standardized_SMILES>  (304) 
COc1cccc(F)c1-c1cc2c(cn1)cnn2-c1cccc(N2CC(N)C2)n1

>  <Name>  (304) 
nan

>  <Pocket>  (304) 
nan

>  <ATP_Site>  (304) 
nan

>  <Peripheral>  (304) 
nan

>  <Num_H_Atoms_ProtBoundConf>  (304) 
nan

>  <Num_Resolved_Atoms>  (304) 
nan

>  <Num_Not_Resolved_Atoms>  (304) 
nan

$$$$
CHEMBL4743541
     RDKit          3D

  0  0  0  0  0  0  0  0  0  0999 V3000
M  V30 BEGIN CTAB
M  V30 COUNTS 54 58 0 0 0
M  V30 BEGIN ATOM
M  V30 1 O 0.208905 1.291374 1.556742 0
M  V30 2 C 0.839088 0.710806 0.635131 0
M  V30 3 C 2.246274 0.348475 0.925732 0
M  V30 4 C 2.688389 0.825962 2.291151 0
M  V30 5 N 4.010857 0.468060 2.534295 0
M  V30 6 C 4.417726 -0.848687 2.719465 0
M  V30 7 C 5.065068 -0.999788 4.060799 0
M  V30 8 O 5.948949 -0.071710 4.446384 0
M  V30 9 C 5.988088 1.154513 3.854273 0
M  V30 10 C 5.019454 1.411245 2.742583 0
M  V30 11 N 0.332597 0.376610 -0.639230 0
M  V30 12 C -0.982182 0.647298 -1.080042 0
M  V30 13 C -1.091257 1.928483 -1.638145 0
M  V30 14 C -2.292560 2.393053 -2.128369 0
M  V30 15 C -3.457992 1.625612 -2.099746 0
M  V30 16 C -3.277606 0.389354 -1.545404 0
M  V30 17 C -2.118622 -0.127645 -1.041258 0
M  V30 18 C -4.565998 -0.266635 -1.577234 0
M  V30 19 C -4.859970 -1.494919 -1.264885 0
M  V30 20 C -4.018973 -2.577965 -0.811102 0
M  V30 21 C -3.079030 -2.956021 -1.795877 0
M  V30 22 C -2.185581 -3.961916 -1.594760 0
M  V30 23 C -2.147910 -4.674681 -0.408377 0
M  V30 24 N -1.425220 -5.694887 0.113593 0
M  V30 25 N -1.860074 -5.960777 1.341521 0
M  V30 26 C -2.879412 -5.118752 1.651532 0
M  V30 27 C -3.060702 -4.308836 0.548999 0
M  V30 28 C -3.970592 -3.294657 0.362721 0
M  V30 29 C -5.561229 0.617484 -2.169062 0
M  V30 30 O -6.778759 0.399201 -2.357922 0
M  V30 31 N -4.812687 1.796897 -2.482546 0
M  V30 32 H 2.312224 -0.762125 0.833378 0
M  V30 33 H 2.924203 0.799555 0.168054 0
M  V30 34 H 1.942398 0.459923 3.035541 0
M  V30 35 H 2.634065 1.946413 2.251837 0
M  V30 36 H 3.605112 -1.606849 2.669988 0
M  V30 37 H 5.157541 -1.149900 1.943239 0
M  V30 38 H 5.520373 -2.015594 4.074620 0
M  V30 39 H 4.221628 -1.044255 4.808299 0
M  V30 40 H 5.794795 1.899055 4.659625 0
M  V30 41 H 7.031211 1.346200 3.516218 0
M  V30 42 H 5.616062 1.481572 1.779849 0
M  V30 43 H 4.625210 2.468091 2.845625 0
M  V30 44 H 0.940378 -0.113183 -1.349758 0
M  V30 45 H -0.279333 2.633806 -1.730448 0
M  V30 46 H -2.395703 3.383803 -2.565549 0
M  V30 47 H -1.843089 -1.030380 -0.563893 0
M  V30 48 H -5.813333 -2.003985 -1.267855 0
M  V30 49 H -2.987625 -2.481428 -2.786451 0
M  V30 50 H -1.454196 -4.269493 -2.334079 0
M  V30 51 H -0.666355 -6.119391 -0.468503 0
M  V30 52 H -3.440118 -5.099504 2.600011 0
M  V30 53 H -4.724439 -2.943330 1.063770 0
M  V30 54 H -5.169089 2.670993 -2.925780 0
M  V30 END ATOM
M  V30 BEGIN BOND
M  V30 1 2 1 2
M  V30 2 1 2 3
M  V30 3 1 3 4
M  V30 4 1 4 5
M  V30 5 1 5 6
M  V30 6 1 6 7
M  V30 7 1 7 8
M  V30 8 1 8 9
M  V30 9 1 9 10
M  V30 10 1 2 11
M  V30 11 1 11 12
M  V30 12 2 12 13
M  V30 13 1 13 14
M  V30 14 2 14 15
M  V30 15 1 15 16
M  V30 16 2 16 17
M  V30 17 1 16 18
M  V30 18 2 18 19
M  V30 19 1 19 20
M  V30 20 2 20 21
M  V30 21 1 21 22
M  V30 22 2 22 23
M  V30 23 1 23 24
M  V30 24 1 24 25
M  V30 25 2 25 26
M  V30 26 1 26 27
M  V30 27 2 27 28
M  V30 28 1 18 29
M  V30 29 2 29 30
M  V30 30 1 29 31
M  V30 31 1 10 5
M  V30 32 1 17 12
M  V30 33 1 28 20
M  V30 34 1 31 15
M  V30 35 1 27 23
M  V30 36 1 3 32
M  V30 37 1 3 33
M  V30 38 1 4 34
M  V30 39 1 4 35
M  V30 40 1 6 36
M  V30 41 1 6 37
M  V30 42 1 7 38
M  V30 43 1 7 39
M  V30 44 1 9 40
M  V30 45 1 9 41
M  V30 46 1 10 42
M  V30 47 1 10 43
M  V30 48 1 11 44
M  V30 49 1 13 45
M  V30 50 1 14 46
M  V30 51 1 17 47
M  V30 52 1 19 48
M  V30 53 1 21 49
M  V30 54 1 22 50
M  V30 55 1 24 51
M  V30 56 1 26 52
M  V30 57 1 28 53
M  V30 58 1 31 54
M  V30 END BOND
M  V30 END CTAB
M  END
>  <Dataset>  (305) 
ChEMBL_Kinases

>  <Ligand_Instance>  (305) 
nan

>  <PDB_ID>  (305) 
nan

>  <Standardized_SMILES>  (305) 
O=C(CCN1CCOCC1)Nc1ccc2c(c1)/C(=C\c1ccc3[nH]ncc3c1)C(=O)N2

>  <Name>  (305) 
nan

>  <Pocket>  (305) 
nan

>  <ATP_Site>  (305) 
nan

>  <Peripheral>  (305) 
nan

>  <Num_H_Atoms_ProtBoundConf>  (305) 
nan

>  <Num_Resolved_Atoms>  (305) 
nan

>  <Num_Not_Resolved_Atoms>  (305) 
nan

$$$$
CHEMBL4743605
     RDKit          3D

  0  0  0  0  0  0  0  0  0  0999 V3000
M  V30 BEGIN CTAB
M  V30 COUNTS 22 23 0 0 0
M  V30 BEGIN ATOM
M  V30 1 C 0.404429 -2.449604 5.062377 0
M  V30 2 C 0.262483 -1.500330 3.926719 0
M  V30 3 O -0.758232 -0.781322 3.676317 0
M  V30 4 N 1.325953 -1.353379 3.026133 0
M  V30 5 C 1.117523 -0.381508 1.905608 0
M  V30 6 N 0.682753 -0.600493 0.887601 0
M  V30 7 C 0.452246 0.156074 -0.164721 0
M  V30 8 C -0.084855 -0.155936 -1.398000 0
M  V30 9 C -0.233330 0.815809 -2.360371 0
M  V30 10 C 0.121976 2.138553 -2.200257 0
M  V30 11 O 0.006592 3.172764 -3.112056 0
M  V30 12 C 0.659366 2.453511 -0.967959 0
M  V30 13 C 0.801247 1.446810 -0.002441 0
M  V30 14 S 1.443701 1.499203 1.661158 0
M  V30 15 H 0.134052 -3.484995 4.793281 0
M  V30 16 H 1.367589 -2.342412 5.587090 0
M  V30 17 H -0.368214 -2.123007 5.816218 0
M  V30 18 H 2.222253 -1.849702 3.070968 0
M  V30 19 H -0.419265 -1.141859 -1.700837 0
M  V30 20 H -0.659160 0.583485 -3.346941 0
M  V30 21 H -0.597936 3.974386 -3.022610 0
M  V30 22 H 1.005357 3.416371 -0.621019 0
M  V30 END ATOM
M  V30 BEGIN BOND
M  V30 1 1 1 2
M  V30 2 2 2 3
M  V30 3 1 2 4
M  V30 4 1 4 5
M  V30 5 2 5 6
M  V30 6 1 6 7
M  V30 7 2 7 8
M  V30 8 1 8 9
M  V30 9 2 9 10
M  V30 10 1 10 11
M  V30 11 1 10 12
M  V30 12 2 12 13
M  V30 13 1 13 14
M  V30 14 1 14 5
M  V30 15 1 13 7
M  V30 16 1 1 15
M  V30 17 1 1 16
M  V30 18 1 1 17
M  V30 19 1 4 18
M  V30 20 1 8 19
M  V30 21 1 9 20
M  V30 22 1 11 21
M  V30 23 1 12 22
M  V30 END BOND
M  V30 END CTAB
M  END
>  <Dataset>  (306) 
ChEMBL_Kinases

>  <Ligand_Instance>  (306) 
nan

>  <PDB_ID>  (306) 
nan

>  <Standardized_SMILES>  (306) 
CC(=O)Nc1nc2ccc(O)cc2s1

>  <Name>  (306) 
nan

>  <Pocket>  (306) 
nan

>  <ATP_Site>  (306) 
nan

>  <Peripheral>  (306) 
nan

>  <Num_H_Atoms_ProtBoundConf>  (306) 
nan

>  <Num_Resolved_Atoms>  (306) 
nan

>  <Num_Not_Resolved_Atoms>  (306) 
nan

$$$$
CHEMBL4458562
     RDKit          3D

  0  0  0  0  0  0  0  0  0  0999 V3000
M  V30 BEGIN CTAB
M  V30 COUNTS 53 57 0 0 0
M  V30 BEGIN ATOM
M  V30 1 C 0.868157 -0.830194 4.238161 0
M  V30 2 C 1.649003 0.260973 3.597597 0
M  V30 3 C 2.810671 0.757474 4.149830 0
M  V30 4 N 3.431044 1.748152 3.483392 0
M  V30 5 C 2.966138 2.256785 2.325524 0
M  V30 6 N 3.586782 3.295268 1.578761 0
M  V30 7 C 4.456792 3.153412 0.465203 0
M  V30 8 C 5.045212 4.231597 -0.206394 0
M  V30 9 C 5.802859 3.702510 -1.219649 0
M  V30 10 N 5.663284 2.377358 -1.142940 0
M  V30 11 N 4.870693 2.035937 -0.151961 0
M  V30 12 C 4.506443 0.682329 0.203147 0
M  V30 13 N 1.817855 1.753625 1.796006 0
M  V30 14 C 1.132544 0.748026 2.413551 0
M  V30 15 C -0.082098 0.252131 1.774632 0
M  V30 16 C -0.010122 0.023361 0.392287 0
M  V30 17 N -1.192155 -0.435703 -0.059094 0
M  V30 18 C -2.012897 -0.503383 1.006552 0
M  V30 19 N -1.342719 -0.085587 2.122954 0
M  V30 20 C -3.396953 -0.970054 0.951354 0
M  V30 21 O -4.159991 -1.032977 1.936418 0
M  V30 22 N -3.831847 -1.362716 -0.349861 0
M  V30 23 C -4.940401 -2.320149 -0.486044 0
M  V30 24 C -4.343926 -3.703685 -0.513213 0
M  V30 25 C -4.156180 -4.375814 0.666208 0
M  V30 26 C -3.611826 -5.642540 0.710020 0
M  V30 27 C -3.260427 -6.207942 -0.513309 0
M  V30 28 F -2.722985 -7.462644 -0.440463 0
M  V30 29 C -3.418889 -5.595147 -1.737208 0
M  V30 30 F -3.059927 -6.189874 -2.895110 0
M  V30 31 C -3.972935 -4.325323 -1.683955 0
M  V30 32 C -3.154506 -0.804024 -1.494991 0
M  V30 33 C -1.661641 -0.820863 -1.368888 0
M  V30 34 H 0.652689 -1.614088 3.461529 0
M  V30 35 H 1.443474 -1.313987 5.050694 0
M  V30 36 H -0.051092 -0.426521 4.676140 0
M  V30 37 H 3.192879 0.364178 5.068603 0
M  V30 38 H 3.325257 4.214352 1.950508 0
M  V30 39 H 4.969326 5.293210 -0.026182 0
M  V30 40 H 6.421465 4.104353 -1.982883 0
M  V30 41 H 4.618426 0.488259 1.290456 0
M  V30 42 H 5.125596 -0.041778 -0.387096 0
M  V30 43 H 3.461167 0.494569 -0.102032 0
M  V30 44 H 0.827972 0.161417 -0.313336 0
M  V30 45 H -5.518842 -2.140133 -1.420663 0
M  V30 46 H -5.638419 -2.291012 0.347327 0
M  V30 47 H -4.441931 -3.908382 1.620017 0
M  V30 48 H -3.479267 -6.136897 1.650114 0
M  V30 49 H -4.114657 -3.808187 -2.641963 0
M  V30 50 H -3.500856 0.241321 -1.615102 0
M  V30 51 H -3.485806 -1.364480 -2.392232 0
M  V30 52 H -1.298804 -1.832772 -1.638576 0
M  V30 53 H -1.197559 -0.107725 -2.076237 0
M  V30 END ATOM
M  V30 BEGIN BOND
M  V30 1 1 1 2
M  V30 2 2 2 3
M  V30 3 1 3 4
M  V30 4 2 4 5
M  V30 5 1 5 6
M  V30 6 1 6 7
M  V30 7 2 7 8
M  V30 8 1 8 9
M  V30 9 2 9 10
M  V30 10 1 10 11
M  V30 11 1 11 12
M  V30 12 1 5 13
M  V30 13 2 13 14
M  V30 14 1 14 15
M  V30 15 2 15 16
M  V30 16 1 16 17
M  V30 17 1 17 18
M  V30 18 2 18 19
M  V30 19 1 18 20
M  V30 20 2 20 21
M  V30 21 1 20 22
M  V30 22 1 22 23
M  V30 23 1 23 24
M  V30 24 2 24 25
M  V30 25 1 25 26
M  V30 26 2 26 27
M  V30 27 1 27 28
M  V30 28 1 27 29
M  V30 29 1 29 30
M  V30 30 2 29 31
M  V30 31 1 22 32
M  V30 32 1 32 33
M  V30 33 1 14 2
M  V30 34 1 19 15
M  V30 35 1 31 24
M  V30 36 1 11 7
M  V30 37 1 33 17
M  V30 38 1 1 34
M  V30 39 1 1 35
M  V30 40 1 1 36
M  V30 41 1 3 37
M  V30 42 1 6 38
M  V30 43 1 8 39
M  V30 44 1 9 40
M  V30 45 1 12 41
M  V30 46 1 12 42
M  V30 47 1 12 43
M  V30 48 1 16 44
M  V30 49 1 23 45
M  V30 50 1 23 46
M  V30 51 1 25 47
M  V30 52 1 26 48
M  V30 53 1 31 49
M  V30 54 1 32 50
M  V30 55 1 32 51
M  V30 56 1 33 52
M  V30 57 1 33 53
M  V30 END BOND
M  V30 END CTAB
M  END
>  <Dataset>  (307) 
ChEMBL_Kinases

>  <Ligand_Instance>  (307) 
nan

>  <PDB_ID>  (307) 
nan

>  <Standardized_SMILES>  (307) 
Cc1cnc(Nc2ccnn2C)nc1-c1cn2c(n1)C(=O)N(Cc1ccc(F)c(F)c1)CC2

>  <Name>  (307) 
nan

>  <Pocket>  (307) 
nan

>  <ATP_Site>  (307) 
nan

>  <Peripheral>  (307) 
nan

>  <Num_H_Atoms_ProtBoundConf>  (307) 
nan

>  <Num_Resolved_Atoms>  (307) 
nan

>  <Num_Not_Resolved_Atoms>  (307) 
nan

$$$$
CHEMBL4743649
     RDKit          3D

  0  0  0  0  0  0  0  0  0  0999 V3000
M  V30 BEGIN CTAB
M  V30 COUNTS 46 48 0 0 0
M  V30 BEGIN ATOM
M  V30 1 C 0.782241 -4.425077 -1.381536 0
M  V30 2 C 0.993761 -4.416551 0.124659 0
M  V30 3 C 0.044528 -3.452987 0.757018 0
M  V30 4 N 2.382308 -4.191627 0.456546 0
M  V30 5 C 3.332840 -5.015706 0.981354 0
M  V30 6 N 4.464991 -4.295713 1.088663 0
M  V30 7 N 4.263388 -3.072270 0.658249 0
M  V30 8 C 2.964130 -2.994268 0.259931 0
M  V30 9 C 2.492702 -1.719044 -0.264035 0
M  V30 10 C 2.706292 -1.392405 -1.586397 0
M  V30 11 C 2.229189 -0.167646 -2.003401 0
M  V30 12 C 1.586435 0.615616 -1.070279 0
M  V30 13 C 1.371822 0.294716 0.245825 0
M  V30 14 N 0.720818 1.061552 1.235799 0
M  V30 15 C 0.131279 2.340951 1.121223 0
M  V30 16 O 0.155314 2.934051 0.015426 0
M  V30 17 C -0.547265 3.138823 2.151807 0
M  V30 18 C -1.889480 3.545484 1.567764 0
M  V30 19 N -2.910965 2.560458 1.704987 0
M  V30 20 C -2.796119 1.414097 0.861038 0
M  V30 21 C -3.022209 2.250756 3.116548 0
M  V30 22 C -1.694768 1.749006 3.640528 0
M  V30 23 O -0.624331 2.538881 3.373539 0
M  V30 24 N 1.856373 -0.906674 0.596054 0
M  V30 25 H -0.090993 -5.072532 -1.646220 0
M  V30 26 H 0.630911 -3.409007 -1.776985 0
M  V30 27 H 1.725358 -4.814001 -1.829964 0
M  V30 28 H 0.733275 -5.463993 0.455172 0
M  V30 29 H -0.913382 -4.005508 0.958965 0
M  V30 30 H 0.409105 -3.037545 1.699837 0
M  V30 31 H -0.224544 -2.689209 -0.008317 0
M  V30 32 H 3.110120 -6.050455 1.232014 0
M  V30 33 H 3.220938 -2.059526 -2.264582 0
M  V30 34 H 2.352036 0.170498 -3.023183 0
M  V30 35 H 1.227393 1.564292 -1.430617 0
M  V30 36 H 0.629179 0.695029 2.204937 0
M  V30 37 H 0.038651 4.103325 2.312444 0
M  V30 38 H -2.250207 4.455143 2.118448 0
M  V30 39 H -1.816394 3.839504 0.521795 0
M  V30 40 H -3.852576 1.094692 0.621739 0
M  V30 41 H -2.333931 0.526778 1.306170 0
M  V30 42 H -2.299155 1.681483 -0.092216 0
M  V30 43 H -3.843868 1.549798 3.313704 0
M  V30 44 H -3.250234 3.197135 3.647915 0
M  V30 45 H -1.758647 1.529522 4.741039 0
M  V30 46 H -1.548015 0.753686 3.174500 0
M  V30 END ATOM
M  V30 BEGIN BOND
M  V30 1 1 1 2
M  V30 2 1 2 3
M  V30 3 1 2 4
M  V30 4 1 4 5
M  V30 5 2 5 6
M  V30 6 1 6 7
M  V30 7 2 7 8
M  V30 8 1 8 9
M  V30 9 2 9 10
M  V30 10 1 10 11
M  V30 11 2 11 12
M  V30 12 1 12 13
M  V30 13 1 13 14
M  V30 14 1 14 15
M  V30 15 2 15 16
M  V30 16 1 15 17
M  V30 17 1 17 18
M  V30 18 1 18 19
M  V30 19 1 19 20
M  V30 20 1 19 21
M  V30 21 1 21 22
M  V30 22 1 22 23
M  V30 23 2 13 24
M  V30 24 1 8 4
M  V30 25 1 24 9
M  V30 26 1 23 17
M  V30 27 1 1 25
M  V30 28 1 1 26
M  V30 29 1 1 27
M  V30 30 1 2 28
M  V30 31 1 3 29
M  V30 32 1 3 30
M  V30 33 1 3 31
M  V30 34 1 5 32
M  V30 35 1 10 33
M  V30 36 1 11 34
M  V30 37 1 12 35
M  V30 38 1 14 36
M  V30 39 1 17 37
M  V30 40 1 18 38
M  V30 41 1 18 39
M  V30 42 1 20 40
M  V30 43 1 20 41
M  V30 44 1 20 42
M  V30 45 1 21 43
M  V30 46 1 21 44
M  V30 47 1 22 45
M  V30 48 1 22 46
M  V30 END BOND
M  V30 END CTAB
M  END
>  <Dataset>  (308) 
ChEMBL_Kinases

>  <Ligand_Instance>  (308) 
nan

>  <PDB_ID>  (308) 
nan

>  <Standardized_SMILES>  (308) 
CC(C)n1cnnc1-c1cccc(NC(=O)C2CN(C)CCO2)n1

>  <Name>  (308) 
nan

>  <Pocket>  (308) 
nan

>  <ATP_Site>  (308) 
nan

>  <Peripheral>  (308) 
nan

>  <Num_H_Atoms_ProtBoundConf>  (308) 
nan

>  <Num_Resolved_Atoms>  (308) 
nan

>  <Num_Not_Resolved_Atoms>  (308) 
nan

$$$$
CHEMBL4458191
     RDKit          3D

  0  0  0  0  0  0  0  0  0  0999 V3000
M  V30 BEGIN CTAB
M  V30 COUNTS 58 61 0 0 0
M  V30 BEGIN ATOM
M  V30 1 C 3.755210 -4.406957 2.515182 0
M  V30 2 N 4.186257 -3.044955 2.852067 0
M  V30 3 C 3.594621 -2.090567 1.984561 0
M  V30 4 O 2.872943 -2.695162 1.179573 0
M  V30 5 C 3.871622 -0.671835 2.124319 0
M  V30 6 C 4.729571 -0.241867 3.100559 0
M  V30 7 C 5.020571 1.092851 3.269933 0
M  V30 8 C 4.455824 2.058794 2.457376 0
M  V30 9 C 3.583936 1.654837 1.461007 0
M  V30 10 C 3.327405 0.307212 1.334977 0
M  V30 11 N 2.432789 -0.037962 0.309970 0
M  V30 12 C 1.732929 0.799734 -0.619347 0
M  V30 13 N 0.496213 1.266545 -0.390211 0
M  V30 14 C -0.209272 2.044755 -1.229544 0
M  V30 15 N -1.474764 2.316499 -0.582015 0
M  V30 16 C -2.377289 1.230066 -0.424035 0
M  V30 17 C -3.563790 1.428661 0.272142 0
M  V30 18 C -4.414409 0.358414 0.438273 0
M  V30 19 C -4.151186 -0.898972 -0.050125 0
M  V30 20 N -4.983040 -2.031115 0.128161 0
M  V30 21 C -6.135439 -2.119743 1.035853 0
M  V30 22 C -5.614751 -3.048397 2.152762 0
M  V30 23 O -4.465405 -3.709645 1.802926 0
M  V30 24 C -4.497890 -4.300464 0.532007 0
M  V30 25 C -4.808552 -3.291537 -0.562057 0
M  V30 26 C -2.972198 -1.074295 -0.738113 0
M  V30 27 C -2.083154 -0.026211 -0.930911 0
M  V30 28 N 0.351500 2.392638 -2.392231 0
M  V30 29 C 1.585766 1.953988 -2.670658 0
M  V30 30 C 2.350108 1.144944 -1.825384 0
M  V30 31 O 3.621573 0.720967 -2.161974 0
M  V30 32 C 4.185787 1.114716 -3.412997 0
M  V30 33 H 2.645545 -4.408168 2.572544 0
M  V30 34 H 4.059574 -4.680397 1.501053 0
M  V30 35 H 4.177898 -5.088968 3.286616 0
M  V30 36 H 4.851918 -2.805158 3.639501 0
M  V30 37 H 5.250227 -0.852417 3.812642 0
M  V30 38 H 5.683329 1.491661 4.015625 0
M  V30 39 H 4.671679 3.132459 2.571630 0
M  V30 40 H 3.128499 2.402049 0.808345 0
M  V30 41 H 2.032729 -0.932270 -0.061712 0
M  V30 42 H -1.728418 3.267758 -0.240285 0
M  V30 43 H -3.769336 2.411268 0.654008 0
M  V30 44 H -5.322783 0.535922 0.977194 0
M  V30 45 H -6.970206 -2.614622 0.531889 0
M  V30 46 H -6.393664 -1.121295 1.410017 0
M  V30 47 H -5.325776 -2.335890 2.985660 0
M  V30 48 H -6.398043 -3.693186 2.553135 0
M  V30 49 H -5.155407 -5.190012 0.491977 0
M  V30 50 H -3.456424 -4.662312 0.332901 0
M  V30 51 H -5.813165 -3.605612 -0.972076 0
M  V30 52 H -4.103981 -3.284948 -1.389303 0
M  V30 53 H -2.607736 -1.970448 -1.181705 0
M  V30 54 H -1.143632 -0.107875 -1.461693 0
M  V30 55 H 1.973625 2.272043 -3.620237 0
M  V30 56 H 5.086308 0.479577 -3.614966 0
M  V30 57 H 4.509446 2.162570 -3.429381 0
M  V30 58 H 3.458915 0.964483 -4.248159 0
M  V30 END ATOM
M  V30 BEGIN BOND
M  V30 1 1 1 2
M  V30 2 1 2 3
M  V30 3 2 3 4
M  V30 4 1 3 5
M  V30 5 2 5 6
M  V30 6 1 6 7
M  V30 7 2 7 8
M  V30 8 1 8 9
M  V30 9 2 9 10
M  V30 10 1 10 11
M  V30 11 1 11 12
M  V30 12 2 12 13
M  V30 13 1 13 14
M  V30 14 1 14 15
M  V30 15 1 15 16
M  V30 16 2 16 17
M  V30 17 1 17 18
M  V30 18 2 18 19
M  V30 19 1 19 20
M  V30 20 1 20 21
M  V30 21 1 21 22
M  V30 22 1 22 23
M  V30 23 1 23 24
M  V30 24 1 24 25
M  V30 25 1 19 26
M  V30 26 2 26 27
M  V30 27 2 14 28
M  V30 28 1 28 29
M  V30 29 2 29 30
M  V30 30 1 30 31
M  V30 31 1 31 32
M  V30 32 1 10 5
M  V30 33 1 30 12
M  V30 34 1 27 16
M  V30 35 1 25 20
M  V30 36 1 1 33
M  V30 37 1 1 34
M  V30 38 1 1 35
M  V30 39 1 2 36
M  V30 40 1 6 37
M  V30 41 1 7 38
M  V30 42 1 8 39
M  V30 43 1 9 40
M  V30 44 1 11 41
M  V30 45 1 15 42
M  V30 46 1 17 43
M  V30 47 1 18 44
M  V30 48 1 21 45
M  V30 49 1 21 46
M  V30 50 1 22 47
M  V30 51 1 22 48
M  V30 52 1 24 49
M  V30 53 1 24 50
M  V30 54 1 25 51
M  V30 55 1 25 52
M  V30 56 1 26 53
M  V30 57 1 27 54
M  V30 58 1 29 55
M  V30 59 1 32 56
M  V30 60 1 32 57
M  V30 61 1 32 58
M  V30 END BOND
M  V30 END CTAB
M  END
>  <Dataset>  (309) 
ChEMBL_Kinases

>  <Ligand_Instance>  (309) 
nan

>  <PDB_ID>  (309) 
nan

>  <Standardized_SMILES>  (309) 
CNC(=O)c1ccccc1Nc1nc(Nc2ccc(N3CCOCC3)cc2)ncc1OC

>  <Name>  (309) 
nan

>  <Pocket>  (309) 
nan

>  <ATP_Site>  (309) 
nan

>  <Peripheral>  (309) 
nan

>  <Num_H_Atoms_ProtBoundConf>  (309) 
nan

>  <Num_Resolved_Atoms>  (309) 
nan

>  <Num_Not_Resolved_Atoms>  (309) 
nan

$$$$
CHEMBL4743699
     RDKit          3D

  0  0  0  0  0  0  0  0  0  0999 V3000
M  V30 BEGIN CTAB
M  V30 COUNTS 47 50 0 0 0
M  V30 BEGIN ATOM
M  V30 1 C -0.457829 -7.890044 2.448829 0
M  V30 2 O -0.663108 -6.528251 2.214788 0
M  V30 3 C -0.573157 -5.895417 0.982477 0
M  V30 4 C -0.264711 -6.526982 -0.201710 0
M  V30 5 C -0.182041 -5.872998 -1.412826 0
M  V30 6 O 0.131594 -6.538185 -2.591941 0
M  V30 7 C -0.424008 -4.495376 -1.441571 0
M  V30 8 C -0.732222 -3.871912 -0.250007 0
M  V30 9 C -0.992866 -2.431675 -0.233581 0
M  V30 10 N -0.243392 -1.572284 0.482977 0
M  V30 11 C -0.693734 -0.314074 0.323462 0
M  V30 12 N -0.313868 0.885409 0.803327 0
M  V30 13 C -0.929002 2.041879 0.499588 0
M  V30 14 N -0.505771 3.295812 1.021655 0
M  V30 15 C 0.612245 3.410916 1.910255 0
M  V30 16 C 0.767992 4.890483 2.275229 0
M  V30 17 C 1.889733 4.969333 3.287683 0
M  V30 18 C 3.159874 4.644018 2.523560 0
M  V30 19 C 3.134604 3.273830 1.941637 0
M  V30 20 C 1.856455 2.857993 1.299487 0
M  V30 21 N -1.975767 1.924973 -0.335734 0
M  V30 22 C -2.384326 0.744631 -0.835085 0
M  V30 23 N -3.505673 0.694399 -1.718465 0
M  V30 24 N -1.746274 -0.394879 -0.510854 0
M  V30 25 N -1.928815 -1.668440 -0.847931 0
M  V30 26 C -0.818984 -4.522930 0.982706 0
M  V30 27 H 0.112798 -8.418165 1.657423 0
M  V30 28 H -1.470112 -8.376068 2.480164 0
M  V30 29 H 0.013976 -8.090422 3.440694 0
M  V30 30 H -0.078795 -7.575597 -0.190370 0
M  V30 31 H 1.087197 -6.664890 -2.920066 0
M  V30 32 H -0.374172 -3.926380 -2.361381 0
M  V30 33 H -1.067290 4.142416 0.714104 0
M  V30 34 H 0.462413 2.884013 2.881472 0
M  V30 35 H 1.039841 5.488517 1.404149 0
M  V30 36 H -0.197228 5.207976 2.715183 0
M  V30 37 H 1.722309 4.245655 4.107401 0
M  V30 38 H 2.000069 5.974294 3.715204 0
M  V30 39 H 4.026136 4.717140 3.205198 0
M  V30 40 H 3.298481 5.450409 1.776311 0
M  V30 41 H 3.496033 2.536957 2.707479 0
M  V30 42 H 3.935493 3.232580 1.148442 0
M  V30 43 H 1.894126 3.025098 0.191818 0
M  V30 44 H 1.816993 1.733749 1.406685 0
M  V30 45 H -3.751975 0.811107 -2.725912 0
M  V30 46 H -4.529152 0.522862 -1.724389 0
M  V30 47 H -1.064002 -3.975752 1.874033 0
M  V30 END ATOM
M  V30 BEGIN BOND
M  V30 1 1 1 2
M  V30 2 1 2 3
M  V30 3 2 3 4
M  V30 4 1 4 5
M  V30 5 1 5 6
M  V30 6 2 5 7
M  V30 7 1 7 8
M  V30 8 1 8 9
M  V30 9 1 9 10
M  V30 10 2 10 11
M  V30 11 1 11 12
M  V30 12 2 12 13
M  V30 13 1 13 14
M  V30 14 1 14 15
M  V30 15 1 15 16
M  V30 16 1 16 17
M  V30 17 1 17 18
M  V30 18 1 18 19
M  V30 19 1 19 20
M  V30 20 1 13 21
M  V30 21 2 21 22
M  V30 22 1 22 23
M  V30 23 1 22 24
M  V30 24 1 24 25
M  V30 25 2 8 26
M  V30 26 1 26 3
M  V30 27 2 25 9
M  V30 28 1 24 11
M  V30 29 1 20 15
M  V30 30 1 1 27
M  V30 31 1 1 28
M  V30 32 1 1 29
M  V30 33 1 4 30
M  V30 34 1 6 31
M  V30 35 1 7 32
M  V30 36 1 14 33
M  V30 37 1 15 34
M  V30 38 1 16 35
M  V30 39 1 16 36
M  V30 40 1 17 37
M  V30 41 1 17 38
M  V30 42 1 18 39
M  V30 43 1 18 40
M  V30 44 1 19 41
M  V30 45 1 19 42
M  V30 46 1 20 43
M  V30 47 1 20 44
M  V30 48 1 23 45
M  V30 49 1 23 46
M  V30 50 1 26 47
M  V30 END BOND
M  V30 END CTAB
M  END
>  <Dataset>  (310) 
ChEMBL_Kinases

>  <Ligand_Instance>  (310) 
nan

>  <PDB_ID>  (310) 
nan

>  <Standardized_SMILES>  (310) 
COc1cc(O)cc(-c2nc3nc(NC4CCCCC4)nc(N)n3n2)c1

>  <Name>  (310) 
nan

>  <Pocket>  (310) 
nan

>  <ATP_Site>  (310) 
nan

>  <Peripheral>  (310) 
nan

>  <Num_H_Atoms_ProtBoundConf>  (310) 
nan

>  <Num_Resolved_Atoms>  (310) 
nan

>  <Num_Not_Resolved_Atoms>  (310) 
nan

$$$$
CHEMBL4743703
     RDKit          3D

  0  0  0  0  0  0  0  0  0  0999 V3000
M  V30 BEGIN CTAB
M  V30 COUNTS 50 54 0 0 0
M  V30 BEGIN ATOM
M  V30 1 C 0.360983 -1.091969 -3.719928 0
M  V30 2 C 1.798832 -0.757338 -3.707820 0
M  V30 3 C 2.589120 -0.992658 -4.810351 0
M  V30 4 N 3.904741 -0.743203 -4.947978 0
M  V30 5 C 4.535918 -0.208990 -3.915032 0
M  V30 6 C 3.761399 0.048878 -2.762516 0
M  V30 7 S 4.266576 0.783908 -1.123053 0
M  V30 8 C 2.671550 0.685005 -0.415584 0
M  V30 9 N 2.326809 1.096524 0.900084 0
M  V30 10 C 1.890432 2.402540 1.196875 0
M  V30 11 O 1.714188 3.433629 0.464187 0
M  V30 12 C 1.449401 3.254471 2.295952 0
M  V30 13 C 2.168242 3.108992 3.596293 0
M  V30 14 C 0.664461 2.879261 3.458647 0
M  V30 15 C 0.133582 1.600819 3.835678 0
M  V30 16 C -0.185784 0.447692 3.229789 0
M  V30 17 C -0.671494 -0.656436 3.870464 0
M  V30 18 C -1.015498 -1.899914 3.207302 0
M  V30 19 O -1.434454 -2.874771 3.874569 0
M  V30 20 N -0.894924 -2.060293 1.804111 0
M  V30 21 C -1.257885 -3.331860 1.215619 0
M  V30 22 C -2.714059 -3.549581 1.121088 0
M  V30 23 N -3.278833 -4.151999 2.178897 0
M  V30 24 C -4.601720 -4.380033 2.157051 0
M  V30 25 C -5.395449 -4.010021 1.073534 0
M  V30 26 C -4.784252 -3.393217 0.004386 0
M  V30 27 N -3.458669 -3.172697 0.042706 0
M  V30 28 C -0.820092 -0.480755 5.295440 0
M  V30 29 S -0.226914 1.295724 5.539515 0
M  V30 30 C 1.899333 0.153707 -1.355202 0
M  V30 31 C 2.378567 -0.201291 -2.586873 0
M  V30 32 H -0.253845 -0.345087 -4.253548 0
M  V30 33 H 0.045838 -1.223285 -2.664676 0
M  V30 34 H 0.135978 -2.065404 -4.221841 0
M  V30 35 H 2.070472 -1.439121 -5.675078 0
M  V30 36 H 5.570320 0.053195 -3.847046 0
M  V30 37 H 2.318111 0.617014 1.821514 0
M  V30 38 H 1.300142 4.324267 1.923160 0
M  V30 39 H 2.839059 2.227210 3.687441 0
M  V30 40 H 2.566338 3.996352 4.082533 0
M  V30 41 H 0.134725 3.738468 3.998982 0
M  V30 42 H -0.031501 0.473396 2.161431 0
M  V30 43 H -0.547968 -1.261693 1.226163 0
M  V30 44 H -0.799647 -4.205711 1.680946 0
M  V30 45 H -0.874949 -3.319032 0.152870 0
M  V30 46 H -5.125996 -4.864753 2.982047 0
M  V30 47 H -6.457041 -4.204881 1.080334 0
M  V30 48 H -5.391910 -3.101456 -0.841969 0
M  V30 49 H -1.202084 -1.267407 5.994352 0
M  V30 50 H 0.831374 -0.007635 -1.136201 0
M  V30 END ATOM
M  V30 BEGIN BOND
M  V30 1 1 1 2
M  V30 2 2 2 3
M  V30 3 1 3 4
M  V30 4 2 4 5
M  V30 5 1 5 6
M  V30 6 1 6 7
M  V30 7 1 7 8
M  V30 8 1 8 9
M  V30 9 1 9 10
M  V30 10 2 10 11
M  V30 11 1 10 12
M  V30 12 1 12 13
M  V30 13 1 13 14
M  V30 14 1 14 15
M  V30 15 2 15 16
M  V30 16 1 16 17
M  V30 17 1 17 18
M  V30 18 2 18 19
M  V30 19 1 18 20
M  V30 20 1 20 21
M  V30 21 1 21 22
M  V30 22 2 22 23
M  V30 23 1 23 24
M  V30 24 2 24 25
M  V30 25 1 25 26
M  V30 26 2 26 27
M  V30 27 2 17 28
M  V30 28 1 28 29
M  V30 29 2 8 30
M  V30 30 1 30 31
M  V30 31 1 31 2
M  V30 32 2 31 6
M  V30 33 1 14 12
M  V30 34 1 29 15
M  V30 35 1 27 22
M  V30 36 1 1 32
M  V30 37 1 1 33
M  V30 38 1 1 34
M  V30 39 1 3 35
M  V30 40 1 5 36
M  V30 41 1 9 37
M  V30 42 1 12 38
M  V30 43 1 13 39
M  V30 44 1 13 40
M  V30 45 1 14 41
M  V30 46 1 16 42
M  V30 47 1 20 43
M  V30 48 1 21 44
M  V30 49 1 21 45
M  V30 50 1 24 46
M  V30 51 1 25 47
M  V30 52 1 26 48
M  V30 53 1 28 49
M  V30 54 1 30 50
M  V30 END BOND
M  V30 END CTAB
M  END
>  <Dataset>  (311) 
ChEMBL_Kinases

>  <Ligand_Instance>  (311) 
nan

>  <PDB_ID>  (311) 
nan

>  <Standardized_SMILES>  (311) 
Cc1cncc2sc(NC(=O)C3CC3c3cc(C(=O)NCc4ncccn4)cs3)cc12

>  <Name>  (311) 
nan

>  <Pocket>  (311) 
nan

>  <ATP_Site>  (311) 
nan

>  <Peripheral>  (311) 
nan

>  <Num_H_Atoms_ProtBoundConf>  (311) 
nan

>  <Num_Resolved_Atoms>  (311) 
nan

>  <Num_Not_Resolved_Atoms>  (311) 
nan

$$$$
CHEMBL4458400
     RDKit          3D

  0  0  0  0  0  0  0  0  0  0999 V3000
M  V30 BEGIN CTAB
M  V30 COUNTS 61 65 0 0 0
M  V30 BEGIN ATOM
M  V30 1 O 0.634968 -4.963825 -0.577553 0
M  V30 2 C -0.192310 -4.246575 0.034407 0
M  V30 3 C 0.202224 -2.872803 0.316852 0
M  V30 4 C 1.284196 -2.051591 0.077771 0
M  V30 5 C 1.314276 -0.735045 0.486414 0
M  V30 6 C 2.444146 0.152266 0.246366 0
M  V30 7 C 3.593501 -0.231396 -0.410607 0
M  V30 8 C 4.674121 0.591534 -0.648343 0
M  V30 9 N 4.555213 1.862987 -0.185028 0
M  V30 10 C 3.462066 2.287228 0.458818 0
M  V30 11 N 3.349473 3.634637 0.943715 0
M  V30 12 C 2.217489 4.156976 1.636649 0
M  V30 13 C 2.390024 5.613855 2.025580 0
M  V30 14 C 1.294992 5.881015 3.057825 0
M  V30 15 C -0.070258 5.719405 2.413309 0
M  V30 16 O -0.259871 6.680781 1.438569 0
M  V30 17 C -0.199385 4.363842 1.793148 0
M  V30 18 C 0.929375 4.119539 0.812204 0
M  V30 19 N 2.442557 1.432849 0.658118 0
M  V30 20 C 0.222941 -0.224427 1.157388 0
M  V30 21 C -0.893612 -1.026277 1.419332 0
M  V30 22 C -0.865993 -2.321399 0.991275 0
M  V30 23 C -1.928636 -3.313184 1.199588 0
M  V30 24 N -1.494953 -4.549853 0.522104 0
M  V30 25 C -2.239655 -5.757887 0.375215 0
M  V30 26 C -1.623990 -6.997615 0.904525 0
M  V30 27 O -0.416934 -7.330519 0.343138 0
M  V30 28 C -2.824520 -5.974095 -0.991373 0
M  V30 29 C -2.310690 -5.742834 -2.243973 0
M  V30 30 C -2.959616 -6.002188 -3.424422 0
M  V30 31 C -4.211488 -6.529378 -3.414037 0
M  V30 32 C -4.825650 -6.801830 -2.231510 0
M  V30 33 Cl -6.420471 -7.473627 -2.179389 0
M  V30 34 C -4.121413 -6.518814 -1.090682 0
M  V30 35 H 2.113653 -2.476212 -0.443812 0
M  V30 36 H 3.688762 -1.238237 -0.778032 0
M  V30 37 H 5.556712 0.244131 -1.169784 0
M  V30 38 H 4.158420 4.278287 0.775103 0
M  V30 39 H 1.988502 3.599711 2.577611 0
M  V30 40 H 3.360266 5.808986 2.497628 0
M  V30 41 H 2.284821 6.301419 1.167757 0
M  V30 42 H 1.385519 6.855258 3.538506 0
M  V30 43 H 1.392106 5.033043 3.782164 0
M  V30 44 H -0.825147 5.851429 3.207913 0
M  V30 45 H -0.569020 6.280079 0.606479 0
M  V30 46 H -0.121238 3.559871 2.571139 0
M  V30 47 H -1.193094 4.256534 1.325779 0
M  V30 48 H 0.836400 3.155378 0.315387 0
M  V30 49 H 0.916363 4.970754 0.083275 0
M  V30 50 H 0.235729 0.803521 1.481027 0
M  V30 51 H -1.703251 -0.539693 1.951722 0
M  V30 52 H -2.907168 -3.018620 0.742804 0
M  V30 53 H -2.100617 -3.500353 2.270656 0
M  V30 54 H -3.189833 -5.574926 0.996962 0
M  V30 55 H -2.316085 -7.832349 0.666941 0
M  V30 56 H -1.578520 -6.970028 2.011801 0
M  V30 57 H -0.500736 -7.777818 -0.535615 0
M  V30 58 H -1.329606 -5.324737 -2.278747 0
M  V30 59 H -2.429500 -5.768160 -4.346194 0
M  V30 60 H -4.687320 -6.718752 -4.346526 0
M  V30 61 H -4.646049 -6.750882 -0.151904 0
M  V30 END ATOM
M  V30 BEGIN BOND
M  V30 1 2 1 2
M  V30 2 1 2 3
M  V30 3 2 3 4
M  V30 4 1 4 5
M  V30 5 1 5 6
M  V30 6 2 6 7
M  V30 7 1 7 8
M  V30 8 2 8 9
M  V30 9 1 9 10
M  V30 10 1 10 11
M  V30 11 1 11 12
M  V30 12 1 12 13
M  V30 13 1 13 14
M  V30 14 1 14 15
M  V30 15 1 15 16
M  V30 16 1 15 17
M  V30 17 1 17 18
M  V30 18 2 10 19
M  V30 19 2 5 20
M  V30 20 1 20 21
M  V30 21 2 21 22
M  V30 22 1 22 23
M  V30 23 1 23 24
M  V30 24 1 24 25
M  V30 25 1 25 26
M  V30 26 1 26 27
M  V30 27 1 25 28
M  V30 28 2 28 29
M  V30 29 1 29 30
M  V30 30 2 30 31
M  V30 31 1 31 32
M  V30 32 1 32 33
M  V30 33 2 32 34
M  V30 34 1 24 2
M  V30 35 1 34 28
M  V30 36 1 22 3
M  V30 37 1 19 6
M  V30 38 1 18 12
M  V30 39 1 4 35
M  V30 40 1 7 36
M  V30 41 1 8 37
M  V30 42 1 11 38
M  V30 43 1 12 39
M  V30 44 1 13 40
M  V30 45 1 13 41
M  V30 46 1 14 42
M  V30 47 1 14 43
M  V30 48 1 15 44
M  V30 49 1 16 45
M  V30 50 1 17 46
M  V30 51 1 17 47
M  V30 52 1 18 48
M  V30 53 1 18 49
M  V30 54 1 20 50
M  V30 55 1 21 51
M  V30 56 1 23 52
M  V30 57 1 23 53
M  V30 58 1 25 54
M  V30 59 1 26 55
M  V30 60 1 26 56
M  V30 61 1 27 57
M  V30 62 1 29 58
M  V30 63 1 30 59
M  V30 64 1 31 60
M  V30 65 1 34 61
M  V30 END BOND
M  V30 END CTAB
M  END
>  <Dataset>  (312) 
ChEMBL_Kinases

>  <Ligand_Instance>  (312) 
nan

>  <PDB_ID>  (312) 
nan

>  <Standardized_SMILES>  (312) 
O=C1c2cc(-c3ccnc(NC4CCC(O)CC4)n3)ccc2CN1C(CO)c1cccc(Cl)c1

>  <Name>  (312) 
nan

>  <Pocket>  (312) 
nan

>  <ATP_Site>  (312) 
nan

>  <Peripheral>  (312) 
nan

>  <Num_H_Atoms_ProtBoundConf>  (312) 
nan

>  <Num_Resolved_Atoms>  (312) 
nan

>  <Num_Not_Resolved_Atoms>  (312) 
nan

$$$$
CHEMBL4458376
     RDKit          3D

  0  0  0  0  0  0  0  0  0  0999 V3000
M  V30 BEGIN CTAB
M  V30 COUNTS 40 43 0 0 0
M  V30 BEGIN ATOM
M  V30 1 C 2.750374 -3.966669 3.420462 0
M  V30 2 C 1.448669 -3.242307 3.146529 0
M  V30 3 O 1.027195 -2.788334 4.418291 0
M  V30 4 C 1.785200 -2.083271 2.291590 0
M  V30 5 C 2.046834 -1.140171 1.582707 0
M  V30 6 C 2.353050 -0.008977 0.750196 0
M  V30 7 C 3.608398 0.220276 0.223332 0
M  V30 8 N 3.840784 1.296575 -0.551091 0
M  V30 9 C 2.865574 2.180243 -0.836959 0
M  V30 10 C 1.589898 2.015578 -0.346279 0
M  V30 11 N 0.494269 2.892763 -0.591747 0
M  V30 12 C 0.412528 4.246042 -0.669854 0
M  V30 13 C -0.896674 4.603715 -0.931111 0
M  V30 14 C -1.636901 3.448438 -1.015799 0
M  V30 15 C -2.982373 3.213238 -1.256308 0
M  V30 16 N -3.420850 1.927666 -1.278560 0
M  V30 17 C -2.564655 0.906375 -1.071145 0
M  V30 18 N -2.919348 -0.468181 -1.073614 0
M  V30 19 N -1.275503 1.177673 -0.842834 0
M  V30 20 C -0.763754 2.418235 -0.804801 0
M  V30 21 C 1.369175 0.896098 0.452916 0
M  V30 22 C 0.433326 -4.095455 2.488590 0
M  V30 23 N 0.073831 -4.411365 1.387724 0
M  V30 24 C -0.923493 -5.240813 1.136210 0
M  V30 25 C -1.638649 -5.813043 2.301347 0
M  V30 26 S -0.713831 -5.024712 3.679448 0
M  V30 27 H 3.149672 -4.474614 2.524037 0
M  V30 28 H 3.443560 -3.187285 3.817548 0
M  V30 29 H 2.554417 -4.657619 4.259625 0
M  V30 30 H 0.129846 -2.401599 4.282357 0
M  V30 31 H 4.371625 -0.519052 0.478318 0
M  V30 32 H 3.022642 3.052792 -1.455378 0
M  V30 33 H 1.296633 4.851548 -0.532754 0
M  V30 34 H -1.232731 5.605635 -1.040432 0
M  V30 35 H -3.677877 4.033162 -1.424346 0
M  V30 36 H -2.671122 -1.006602 -0.209076 0
M  V30 37 H -3.379811 -1.129172 -1.722870 0
M  V30 38 H 0.387545 0.725746 0.859063 0
M  V30 39 H -1.057997 -5.370339 0.048494 0
M  V30 40 H -2.495997 -6.530661 1.811998 0
M  V30 END ATOM
M  V30 BEGIN BOND
M  V30 1 1 1 2
M  V30 2 1 2 3
M  V30 3 1 2 4
M  V30 4 3 4 5
M  V30 5 1 5 6
M  V30 6 2 6 7
M  V30 7 1 7 8
M  V30 8 2 8 9
M  V30 9 1 9 10
M  V30 10 1 10 11
M  V30 11 1 11 12
M  V30 12 2 12 13
M  V30 13 1 13 14
M  V30 14 2 14 15
M  V30 15 1 15 16
M  V30 16 2 16 17
M  V30 17 1 17 18
M  V30 18 1 17 19
M  V30 19 2 19 20
M  V30 20 2 10 21
M  V30 21 1 2 22
M  V30 22 2 22 23
M  V30 23 1 23 24
M  V30 24 2 24 25
M  V30 25 1 25 26
M  V30 26 1 21 6
M  V30 27 1 26 22
M  V30 28 1 20 11
M  V30 29 1 20 14
M  V30 30 1 1 27
M  V30 31 1 1 28
M  V30 32 1 1 29
M  V30 33 1 3 30
M  V30 34 1 7 31
M  V30 35 1 9 32
M  V30 36 1 12 33
M  V30 37 1 13 34
M  V30 38 1 15 35
M  V30 39 1 18 36
M  V30 40 1 18 37
M  V30 41 1 21 38
M  V30 42 1 24 39
M  V30 43 1 25 40
M  V30 END BOND
M  V30 END CTAB
M  END
>  <Dataset>  (313) 
ChEMBL_Kinases

>  <Ligand_Instance>  (313) 
nan

>  <PDB_ID>  (313) 
nan

>  <Standardized_SMILES>  (313) 
CC(O)(C#Cc1cncc(-n2ccc3cnc(N)nc32)c1)c1nccs1

>  <Name>  (313) 
nan

>  <Pocket>  (313) 
nan

>  <ATP_Site>  (313) 
nan

>  <Peripheral>  (313) 
nan

>  <Num_H_Atoms_ProtBoundConf>  (313) 
nan

>  <Num_Resolved_Atoms>  (313) 
nan

>  <Num_Not_Resolved_Atoms>  (313) 
nan

$$$$
CHEMBL4458300
     RDKit          3D

  0  0  0  0  0  0  0  0  0  0999 V3000
M  V30 BEGIN CTAB
M  V30 COUNTS 33 35 0 0 0
M  V30 BEGIN ATOM
M  V30 1 O 0.889649 -5.003145 4.271769 0
M  V30 2 C -0.219123 -5.213482 3.688321 0
M  V30 3 O -0.687880 -6.453938 4.096687 0
M  V30 4 C -0.820737 -4.263330 2.765613 0
M  V30 5 C -2.053886 -4.480393 2.127001 0
M  V30 6 C -2.573147 -3.545190 1.260265 0
M  V30 7 C -1.907496 -2.345054 0.975033 0
M  V30 8 N -2.361735 -1.313465 0.117304 0
M  V30 9 C -1.358392 -0.291454 -0.304678 0
M  V30 10 N -0.670439 0.603224 -0.304706 0
M  V30 11 C 0.117958 1.061178 -1.245857 0
M  V30 12 C 0.973994 2.251085 -1.046253 0
M  V30 13 C 1.780673 2.698181 -2.072007 0
M  V30 14 C 2.601922 3.789908 -1.913817 0
M  V30 15 C 2.663688 4.491986 -0.732036 0
M  V30 16 C 1.869182 4.065065 0.302955 0
M  V30 17 Br 1.900903 4.988823 1.990635 0
M  V30 18 C 1.039533 2.968281 0.156093 0
M  V30 19 C 0.130033 0.360738 -2.434553 0
M  V30 20 S -1.113528 -1.014080 -2.027505 0
M  V30 21 C -0.696923 -2.215172 1.650508 0
M  V30 22 C -0.117343 -3.102954 2.526633 0
M  V30 23 H -0.170146 -7.314339 3.918851 0
M  V30 24 H -2.586171 -5.401040 2.331753 0
M  V30 25 H -3.511251 -3.667997 0.747014 0
M  V30 26 H -3.372348 -1.414559 -0.115485 0
M  V30 27 H 1.815985 2.234467 -3.030011 0
M  V30 28 H 3.227146 4.134478 -2.719188 0
M  V30 29 H 3.283646 5.364786 -0.517662 0
M  V30 30 H 0.406797 2.611895 0.948570 0
M  V30 31 H 0.744380 0.569199 -3.417027 0
M  V30 32 H -0.134013 -1.287250 1.458754 0
M  V30 33 H 0.850047 -2.848524 2.982134 0
M  V30 END ATOM
M  V30 BEGIN BOND
M  V30 1 2 1 2
M  V30 2 1 2 3
M  V30 3 1 2 4
M  V30 4 2 4 5
M  V30 5 1 5 6
M  V30 6 2 6 7
M  V30 7 1 7 8
M  V30 8 1 8 9
M  V30 9 2 9 10
M  V30 10 1 10 11
M  V30 11 1 11 12
M  V30 12 2 12 13
M  V30 13 1 13 14
M  V30 14 2 14 15
M  V30 15 1 15 16
M  V30 16 1 16 17
M  V30 17 2 16 18
M  V30 18 2 11 19
M  V30 19 1 19 20
M  V30 20 1 7 21
M  V30 21 2 21 22
M  V30 22 1 22 4
M  V30 23 1 20 9
M  V30 24 1 18 12
M  V30 25 1 3 23
M  V30 26 1 5 24
M  V30 27 1 6 25
M  V30 28 1 8 26
M  V30 29 1 13 27
M  V30 30 1 14 28
M  V30 31 1 15 29
M  V30 32 1 18 30
M  V30 33 1 19 31
M  V30 34 1 21 32
M  V30 35 1 22 33
M  V30 END BOND
M  V30 END CTAB
M  END
>  <Dataset>  (314) 
ChEMBL_Kinases

>  <Ligand_Instance>  (314) 
nan

>  <PDB_ID>  (314) 
nan

>  <Standardized_SMILES>  (314) 
O=C(O)c1ccc(Nc2nc(-c3cccc(Br)c3)cs2)cc1

>  <Name>  (314) 
nan

>  <Pocket>  (314) 
nan

>  <ATP_Site>  (314) 
nan

>  <Peripheral>  (314) 
nan

>  <Num_H_Atoms_ProtBoundConf>  (314) 
nan

>  <Num_Resolved_Atoms>  (314) 
nan

>  <Num_Not_Resolved_Atoms>  (314) 
nan

$$$$
CHEMBL4743742
     RDKit          3D

  0  0  0  0  0  0  0  0  0  0999 V3000
M  V30 BEGIN CTAB
M  V30 COUNTS 54 56 0 0 0
M  V30 BEGIN ATOM
M  V30 1 C 3.360616 -0.751995 4.796461 0
M  V30 2 C 2.687249 -0.647128 3.459364 0
M  V30 3 C 2.391500 -1.982764 2.877482 0
M  V30 4 C 1.356921 0.087379 3.665965 0
M  V30 5 O 3.510243 0.177581 2.629523 0
M  V30 6 C 3.190548 0.457919 1.346854 0
M  V30 7 O 2.149356 -0.216641 1.385873 0
M  V30 8 N 3.589262 1.135255 0.217062 0
M  V30 9 C 3.124795 1.347201 -1.111422 0
M  V30 10 C 1.828688 2.058138 -1.238565 0
M  V30 11 N 0.689823 1.438484 -0.640473 0
M  V30 12 C -0.448107 2.266377 -0.893490 0
M  V30 13 O -0.547459 3.364594 -1.527577 0
M  V30 14 C -1.838631 2.012732 -0.450292 0
M  V30 15 C -2.755485 2.914001 0.035796 0
M  V30 16 N -3.974153 2.522399 0.423351 0
M  V30 17 C -4.327966 1.211340 0.339928 0
M  V30 18 N -5.646593 0.819852 0.765291 0
M  V30 19 N -3.451987 0.304995 -0.132113 0
M  V30 20 N -3.589990 -1.023881 -0.292571 0
M  V30 21 C -2.439099 -1.524538 -0.796311 0
M  V30 22 C -2.083935 -2.895833 -1.140099 0
M  V30 23 C -3.023948 -3.875163 -1.365971 0
M  V30 24 C -2.662102 -5.180022 -1.689093 0
M  V30 25 O -3.608289 -6.186796 -1.921969 0
M  V30 26 C -1.308791 -5.494630 -1.784059 0
M  V30 27 C -0.337308 -4.543821 -1.565919 0
M  V30 28 O 0.986099 -4.923344 -1.676520 0
M  V30 29 C -0.758764 -3.269412 -1.249652 0
M  V30 30 N -1.616271 -0.474184 -0.933433 0
M  V30 31 C -2.205932 0.664713 -0.534802 0
M  V30 32 H 3.185751 -1.754394 5.258863 0
M  V30 33 H 2.885093 -0.036516 5.529931 0
M  V30 34 H 4.444363 -0.602032 4.760271 0
M  V30 35 H 2.461043 -2.744570 3.711720 0
M  V30 36 H 1.313397 -2.032879 2.561129 0
M  V30 37 H 3.080180 -2.314331 2.071630 0
M  V30 38 H 1.503697 1.153546 3.386059 0
M  V30 39 H 1.101441 0.085150 4.768337 0
M  V30 40 H 0.541092 -0.338817 3.069329 0
M  V30 41 H 4.503274 1.602029 0.498054 0
M  V30 42 H 2.964008 0.321069 -1.583454 0
M  V30 43 H 3.903004 1.846466 -1.732653 0
M  V30 44 H 1.595689 2.136809 -2.350150 0
M  V30 45 H 1.920444 3.131318 -0.904879 0
M  V30 46 H 0.259090 0.666925 -0.104028 0
M  V30 47 H -2.390823 3.930039 0.064426 0
M  V30 48 H -6.580111 0.786492 0.257896 0
M  V30 49 H -5.428268 0.563119 1.756861 0
M  V30 50 H -4.094314 -3.627617 -1.292076 0
M  V30 51 H -4.288148 -6.287760 -1.176630 0
M  V30 52 H -1.005780 -6.502047 -2.031346 0
M  V30 53 H 1.707547 -4.732488 -1.020697 0
M  V30 54 H 0.068999 -2.565771 -1.088514 0
M  V30 END ATOM
M  V30 BEGIN BOND
M  V30 1 1 1 2
M  V30 2 1 2 3
M  V30 3 1 2 4
M  V30 4 1 2 5
M  V30 5 1 5 6
M  V30 6 2 6 7
M  V30 7 1 6 8
M  V30 8 1 8 9
M  V30 9 1 9 10
M  V30 10 1 10 11
M  V30 11 1 11 12
M  V30 12 2 12 13
M  V30 13 1 12 14
M  V30 14 2 14 15
M  V30 15 1 15 16
M  V30 16 2 16 17
M  V30 17 1 17 18
M  V30 18 1 17 19
M  V30 19 1 19 20
M  V30 20 2 20 21
M  V30 21 1 21 22
M  V30 22 2 22 23
M  V30 23 1 23 24
M  V30 24 1 24 25
M  V30 25 2 24 26
M  V30 26 1 26 27
M  V30 27 1 27 28
M  V30 28 2 27 29
M  V30 29 1 21 30
M  V30 30 2 30 31
M  V30 31 1 31 14
M  V30 32 1 31 19
M  V30 33 1 29 22
M  V30 34 1 1 32
M  V30 35 1 1 33
M  V30 36 1 1 34
M  V30 37 1 3 35
M  V30 38 1 3 36
M  V30 39 1 3 37
M  V30 40 1 4 38
M  V30 41 1 4 39
M  V30 42 1 4 40
M  V30 43 1 8 41
M  V30 44 1 9 42
M  V30 45 1 9 43
M  V30 46 1 10 44
M  V30 47 1 10 45
M  V30 48 1 11 46
M  V30 49 1 15 47
M  V30 50 1 18 48
M  V30 51 1 18 49
M  V30 52 1 23 50
M  V30 53 1 25 51
M  V30 54 1 26 52
M  V30 55 1 28 53
M  V30 56 1 29 54
M  V30 END BOND
M  V30 END CTAB
M  END
>  <Dataset>  (315) 
ChEMBL_Kinases

>  <Ligand_Instance>  (315) 
nan

>  <PDB_ID>  (315) 
nan

>  <Standardized_SMILES>  (315) 
CC(C)(C)OC(=O)NCCNC(=O)c1cnc(N)n2nc(-c3cc(O)cc(O)c3)nc12

>  <Name>  (315) 
nan

>  <Pocket>  (315) 
nan

>  <ATP_Site>  (315) 
nan

>  <Peripheral>  (315) 
nan

>  <Num_H_Atoms_ProtBoundConf>  (315) 
nan

>  <Num_Resolved_Atoms>  (315) 
nan

>  <Num_Not_Resolved_Atoms>  (315) 
nan

$$$$
CHEMBL4458291
     RDKit          3D

  0  0  0  0  0  0  0  0  0  0999 V3000
M  V30 BEGIN CTAB
M  V30 COUNTS 49 53 0 0 0
M  V30 BEGIN ATOM
M  V30 1 O 1.826321 -0.000418 3.948193 0
M  V30 2 N 2.260347 -0.321231 2.796723 0 CHG=1 VAL=4
M  V30 3 O 1.074337 -0.269424 3.441452 0 CHG=-1 VAL=1
M  V30 4 C 3.506984 -0.366689 2.144261 0
M  V30 5 C 4.611995 -0.652995 2.883450 0
M  V30 6 C 5.809202 -0.697206 2.231454 0
M  V30 7 C 5.825566 -0.449189 0.861761 0
M  V30 8 C 4.637584 -0.166382 0.208663 0
M  V30 9 C 3.354802 -0.103410 0.825137 0
M  V30 10 S 2.106360 0.286787 -0.303300 0
M  V30 11 O 2.610279 0.276207 -1.754583 0
M  V30 12 O 1.205855 -0.975054 -0.284011 0
M  V30 13 N 1.228597 1.668610 -0.094427 0
M  V30 14 C 0.389349 1.917640 0.999802 0
M  V30 15 C -0.903103 1.165154 0.981137 0
M  V30 16 C -1.345097 0.875034 -0.437982 0
M  V30 17 C -0.642731 1.465143 -1.436481 0
M  V30 18 S -1.494763 1.004605 -2.985970 0
M  V30 19 C -2.737847 0.031657 -2.068636 0
M  V30 20 N -3.772605 -0.636871 -2.654330 0
M  V30 21 C -4.638304 -1.313967 -1.905987 0
M  V30 22 N -4.391784 -1.268258 -0.581232 0
M  V30 23 C -3.372386 -0.608923 -0.017599 0
M  V30 24 N -3.221346 -0.729074 1.422502 0
M  V30 25 C -2.763411 -2.071112 1.551780 0
M  V30 26 C -3.611287 -3.132911 1.191733 0
M  V30 27 C -3.268008 -4.488581 1.242466 0
M  V30 28 C -2.015350 -4.826343 1.673731 0
M  V30 29 C -1.101894 -3.839923 2.055398 0
M  V30 30 F 0.143932 -4.154645 2.471025 0
M  V30 31 C -1.549864 -2.549140 1.966464 0
M  V30 32 C -2.432473 0.122226 -0.713028 0
M  V30 33 C 0.597176 2.272003 -1.240864 0
M  V30 34 H 4.516749 -0.830123 3.933705 0
M  V30 35 H 6.747041 -0.918686 2.713021 0
M  V30 36 H 6.775808 -0.486328 0.363236 0
M  V30 37 H 4.812214 0.011141 -0.861070 0
M  V30 38 H 0.071110 3.022437 0.882912 0
M  V30 39 H 0.832620 1.918925 1.996765 0
M  V30 40 H -1.719488 1.853958 1.367826 0
M  V30 41 H -0.955303 0.292373 1.633985 0
M  V30 42 H -5.495172 -1.895225 -2.168205 0
M  V30 43 H -3.356437 -0.149580 2.263311 0
M  V30 44 H -4.639454 -3.014648 0.853300 0
M  V30 45 H -3.934828 -5.287192 0.969108 0
M  V30 46 H -1.728486 -5.866080 1.729332 0
M  V30 47 H -0.810419 -1.835214 2.256608 0
M  V30 48 H 0.335623 3.301626 -0.972737 0
M  V30 49 H 1.214893 2.311844 -2.134201 0
M  V30 END ATOM
M  V30 BEGIN BOND
M  V30 1 2 1 2
M  V30 2 1 2 3
M  V30 3 1 2 4
M  V30 4 2 4 5
M  V30 5 1 5 6
M  V30 6 2 6 7
M  V30 7 1 7 8
M  V30 8 2 8 9
M  V30 9 1 9 10
M  V30 10 2 10 11
M  V30 11 2 10 12
M  V30 12 1 10 13
M  V30 13 1 13 14
M  V30 14 1 14 15
M  V30 15 1 15 16
M  V30 16 2 16 17
M  V30 17 1 17 18
M  V30 18 1 18 19
M  V30 19 2 19 20
M  V30 20 1 20 21
M  V30 21 2 21 22
M  V30 22 1 22 23
M  V30 23 1 23 24
M  V30 24 1 24 25
M  V30 25 2 25 26
M  V30 26 1 26 27
M  V30 27 2 27 28
M  V30 28 1 28 29
M  V30 29 1 29 30
M  V30 30 2 29 31
M  V30 31 2 23 32
M  V30 32 1 17 33
M  V30 33 1 9 4
M  V30 34 1 33 13
M  V30 35 1 32 16
M  V30 36 1 32 19
M  V30 37 1 31 25
M  V30 38 1 5 34
M  V30 39 1 6 35
M  V30 40 1 7 36
M  V30 41 1 8 37
M  V30 42 1 14 38
M  V30 43 1 14 39
M  V30 44 1 15 40
M  V30 45 1 15 41
M  V30 46 1 21 42
M  V30 47 1 24 43
M  V30 48 1 26 44
M  V30 49 1 27 45
M  V30 50 1 28 46
M  V30 51 1 31 47
M  V30 52 1 33 48
M  V30 53 1 33 49
M  V30 END BOND
M  V30 END CTAB
M  END
>  <Dataset>  (316) 
ChEMBL_Kinases

>  <Ligand_Instance>  (316) 
nan

>  <PDB_ID>  (316) 
nan

>  <Standardized_SMILES>  (316) 
O=[N+]([O-])c1ccccc1S(=O)(=O)N1CCc2c(sc3ncnc(Nc4cccc(F)c4)c23)C1

>  <Name>  (316) 
nan

>  <Pocket>  (316) 
nan

>  <ATP_Site>  (316) 
nan

>  <Peripheral>  (316) 
nan

>  <Num_H_Atoms_ProtBoundConf>  (316) 
nan

>  <Num_Resolved_Atoms>  (316) 
nan

>  <Num_Not_Resolved_Atoms>  (316) 
nan

$$$$
CHEMBL4458288
     RDKit          3D

  0  0  0  0  0  0  0  0  0  0999 V3000
M  V30 BEGIN CTAB
M  V30 COUNTS 39 41 0 0 0
M  V30 BEGIN ATOM
M  V30 1 C 0.109166 -4.591756 1.647631 0
M  V30 2 C 0.371868 -3.184252 1.160411 0
M  V30 3 C 1.801864 -2.846297 1.515079 0
M  V30 4 C 0.273034 -3.184086 -0.342907 0
M  V30 5 N -0.562038 -2.207982 1.733115 0
M  V30 6 C -0.537105 -0.816283 1.443976 0
M  V30 7 C 0.371029 -0.238725 0.592349 0
M  V30 8 C 0.426279 1.096235 0.289546 0
M  V30 9 C 1.395346 1.697249 -0.616278 0
M  V30 10 C 2.383440 1.035962 -1.293914 0
M  V30 11 C 3.275664 1.658659 -2.141292 0
M  V30 12 N 3.167236 2.990731 -2.310083 0
M  V30 13 C 2.233451 3.712722 -1.688430 0
M  V30 14 C 1.366388 3.056915 -0.855164 0
M  V30 15 Cl 0.153024 4.058142 -0.059557 0
M  V30 16 N -0.498104 1.905603 0.886612 0
M  V30 17 C -1.416597 1.412704 1.730338 0
M  V30 18 C -2.339733 2.251508 2.320706 0
M  V30 19 N -3.289956 1.794287 3.183402 0
M  V30 20 C -3.335503 0.461394 3.477894 0
M  V30 21 C -2.401858 -0.357062 2.875031 0
M  V30 22 C -1.430972 0.062386 2.002791 0
M  V30 23 H 0.577496 -5.275643 0.904947 0
M  V30 24 H -0.954207 -4.861103 1.681193 0
M  V30 25 H 0.658258 -4.769435 2.606420 0
M  V30 26 H 2.174280 -3.612676 2.216203 0
M  V30 27 H 2.447067 -2.739015 0.619345 0
M  V30 28 H 1.765440 -1.903240 2.124223 0
M  V30 29 H 1.253397 -3.015165 -0.835114 0
M  V30 30 H -0.052840 -4.184241 -0.674066 0
M  V30 31 H -0.486782 -2.429641 -0.645052 0
M  V30 32 H -1.233884 -2.639714 2.364168 0
M  V30 33 H 1.110872 -0.821877 0.102086 0
M  V30 34 H 2.471584 -0.029835 -1.160005 0
M  V30 35 H 4.033134 1.062408 -2.643527 0
M  V30 36 H 2.215817 4.773459 -1.878840 0
M  V30 37 H -2.296508 3.309175 2.081250 0
M  V30 38 H -4.096262 0.116304 4.164535 0
M  V30 39 H -2.515818 -1.388621 3.167088 0
M  V30 END ATOM
M  V30 BEGIN BOND
M  V30 1 1 1 2
M  V30 2 1 2 3
M  V30 3 1 2 4
M  V30 4 1 2 5
M  V30 5 1 5 6
M  V30 6 2 6 7
M  V30 7 1 7 8
M  V30 8 1 8 9
M  V30 9 2 9 10
M  V30 10 1 10 11
M  V30 11 2 11 12
M  V30 12 1 12 13
M  V30 13 2 13 14
M  V30 14 1 14 15
M  V30 15 2 8 16
M  V30 16 1 16 17
M  V30 17 2 17 18
M  V30 18 1 18 19
M  V30 19 2 19 20
M  V30 20 1 20 21
M  V30 21 2 21 22
M  V30 22 1 22 6
M  V30 23 1 14 9
M  V30 24 1 22 17
M  V30 25 1 1 23
M  V30 26 1 1 24
M  V30 27 1 1 25
M  V30 28 1 3 26
M  V30 29 1 3 27
M  V30 30 1 3 28
M  V30 31 1 4 29
M  V30 32 1 4 30
M  V30 33 1 4 31
M  V30 34 1 5 32
M  V30 35 1 7 33
M  V30 36 1 10 34
M  V30 37 1 11 35
M  V30 38 1 13 36
M  V30 39 1 18 37
M  V30 40 1 20 38
M  V30 41 1 21 39
M  V30 END BOND
M  V30 END CTAB
M  END
>  <Dataset>  (317) 
ChEMBL_Kinases

>  <Ligand_Instance>  (317) 
nan

>  <PDB_ID>  (317) 
nan

>  <Standardized_SMILES>  (317) 
CC(C)(C)Nc1cc(-c2ccncc2Cl)nc2cnccc12

>  <Name>  (317) 
nan

>  <Pocket>  (317) 
nan

>  <ATP_Site>  (317) 
nan

>  <Peripheral>  (317) 
nan

>  <Num_H_Atoms_ProtBoundConf>  (317) 
nan

>  <Num_Resolved_Atoms>  (317) 
nan

>  <Num_Not_Resolved_Atoms>  (317) 
nan

$$$$
CHEMBL4458265
     RDKit          3D

  0  0  0  0  0  0  0  0  0  0999 V3000
M  V30 BEGIN CTAB
M  V30 COUNTS 50 54 0 0 0
M  V30 BEGIN ATOM
M  V30 1 C -3.643575 -3.559459 3.787226 0
M  V30 2 C -2.604130 -2.804560 3.043999 0
M  V30 3 C -1.667203 -1.972558 3.617882 0
M  V30 4 C -0.716724 -1.292544 2.851060 0
M  V30 5 O 0.086226 -0.533001 3.725397 0
M  V30 6 C -0.713139 -1.459376 1.455001 0
M  V30 7 C 0.373489 -0.616393 1.042254 0
M  V30 8 C -0.021908 0.715681 0.794726 0
M  V30 9 C 0.908427 1.677489 0.461753 0
M  V30 10 C 2.234193 1.306532 0.376458 0
M  V30 11 C 3.311647 2.271655 0.024146 0
M  V30 12 C 2.901210 3.681477 -0.238257 0
M  V30 13 N 2.248255 4.322466 0.888931 0
M  V30 14 C 4.544378 1.739135 -0.658551 0
M  V30 15 C 4.626761 2.160534 0.792321 0
M  V30 16 C 2.665903 0.020829 0.609019 0
M  V30 17 C 1.747877 -0.953122 0.943145 0
M  V30 18 C -1.648310 -2.285212 0.926216 0
M  V30 19 C -2.573512 -2.946559 1.674463 0
M  V30 20 N -3.461892 -3.743259 1.063740 0
M  V30 21 C -3.477774 -3.918511 -0.266300 0
M  V30 22 O -4.316417 -4.668221 -0.826225 0
M  V30 23 C -2.527143 -3.236405 -1.005617 0
M  V30 24 C -2.553317 -3.429397 -2.363821 0
M  V30 25 C -1.605012 -2.755244 -3.101632 0
M  V30 26 C -0.634316 -1.901375 -2.560701 0
M  V30 27 C -0.723619 -1.800623 -1.194405 0
M  V30 28 C -1.618590 -2.424194 -0.402709 0
M  V30 29 H -3.622705 -4.655820 3.542803 0
M  V30 30 H -3.491026 -3.417775 4.869149 0
M  V30 31 H -4.645963 -3.171108 3.455258 0
M  V30 32 H -1.787617 -1.939783 4.694075 0
M  V30 33 H 0.969161 -0.119204 3.433484 0
M  V30 34 H -1.030995 1.056539 0.846561 0
M  V30 35 H 0.624684 2.696320 0.270042 0
M  V30 36 H 2.300146 3.786579 -1.163610 0
M  V30 37 H 3.840087 4.271395 -0.443155 0
M  V30 38 H 2.934331 4.916591 1.423027 0
M  V30 39 H 1.570978 5.022269 0.466067 0
M  V30 40 H 5.051887 2.398425 -1.412615 0
M  V30 41 H 4.636576 0.680518 -0.940953 0
M  V30 42 H 5.197267 3.074269 1.034048 0
M  V30 43 H 4.655078 1.401536 1.588941 0
M  V30 44 H 3.688439 -0.328231 0.557306 0
M  V30 45 H 1.944097 -1.998510 1.151883 0
M  V30 46 H -4.182838 -4.261557 1.618889 0
M  V30 47 H -3.282562 -4.075708 -2.807585 0
M  V30 48 H -1.669384 -2.942488 -4.172467 0
M  V30 49 H 0.001217 -1.482791 -3.315939 0
M  V30 50 H 0.058877 -1.148687 -0.985466 0
M  V30 END ATOM
M  V30 BEGIN BOND
M  V30 1 1 1 2
M  V30 2 2 2 3
M  V30 3 1 3 4
M  V30 4 1 4 5
M  V30 5 2 4 6
M  V30 6 1 6 7
M  V30 7 2 7 8
M  V30 8 1 8 9
M  V30 9 2 9 10
M  V30 10 1 10 11
M  V30 11 1 11 12
M  V30 12 1 12 13
M  V30 13 1 11 14
M  V30 14 1 14 15
M  V30 15 1 10 16
M  V30 16 2 16 17
M  V30 17 1 6 18
M  V30 18 2 18 19
M  V30 19 1 19 20
M  V30 20 1 20 21
M  V30 21 2 21 22
M  V30 22 1 21 23
M  V30 23 2 23 24
M  V30 24 1 24 25
M  V30 25 2 25 26
M  V30 26 1 26 27
M  V30 27 2 27 28
M  V30 28 1 19 2
M  V30 29 1 28 23
M  V30 30 1 17 7
M  V30 31 1 28 18
M  V30 32 1 15 11
M  V30 33 1 1 29
M  V30 34 1 1 30
M  V30 35 1 1 31
M  V30 36 1 3 32
M  V30 37 1 5 33
M  V30 38 1 8 34
M  V30 39 1 9 35
M  V30 40 1 12 36
M  V30 41 1 12 37
M  V30 42 1 13 38
M  V30 43 1 13 39
M  V30 44 1 14 40
M  V30 45 1 14 41
M  V30 46 1 15 42
M  V30 47 1 15 43
M  V30 48 1 16 44
M  V30 49 1 17 45
M  V30 50 1 20 46
M  V30 51 1 24 47
M  V30 52 1 25 48
M  V30 53 1 26 49
M  V30 54 1 27 50
M  V30 END BOND
M  V30 END CTAB
M  END
>  <Dataset>  (318) 
ChEMBL_Kinases

>  <Ligand_Instance>  (318) 
nan

>  <PDB_ID>  (318) 
nan

>  <Standardized_SMILES>  (318) 
Cc1cc(O)c(-c2ccc(C3(CN)CC3)cc2)c2c1[nH]c(=O)c1ccccc12

>  <Name>  (318) 
nan

>  <Pocket>  (318) 
nan

>  <ATP_Site>  (318) 
nan

>  <Peripheral>  (318) 
nan

>  <Num_H_Atoms_ProtBoundConf>  (318) 
nan

>  <Num_Resolved_Atoms>  (318) 
nan

>  <Num_Not_Resolved_Atoms>  (318) 
nan

$$$$
CHEMBL4458233
     RDKit          3D

  0  0  0  0  0  0  0  0  0  0999 V3000
M  V30 BEGIN CTAB
M  V30 COUNTS 46 48 0 0 0
M  V30 BEGIN ATOM
M  V30 1 C -0.991185 -5.988379 2.660746 0
M  V30 2 O 0.284583 -5.877769 2.155802 0
M  V30 3 C 0.671703 -4.559863 2.083526 0
M  V30 4 C -0.178779 -3.732280 1.193406 0
M  V30 5 C 0.301455 -2.281127 1.119991 0
M  V30 6 C 0.287835 -1.651618 2.490231 0
M  V30 7 C 1.730438 -2.349268 0.646398 0
M  V30 8 N -0.537933 -1.508932 0.238690 0
M  V30 9 C -0.456931 -0.130614 -0.065786 0
M  V30 10 C 0.474772 0.736252 0.461391 0
M  V30 11 C 0.571051 2.081216 0.183689 0
M  V30 12 C 1.574390 2.962503 0.765165 0
M  V30 13 C 2.558643 2.601943 1.659636 0
M  V30 14 C 3.474631 3.499331 2.165994 0
M  V30 15 N 3.434051 4.810368 1.786319 0
M  V30 16 C 2.491646 5.205249 0.916747 0
M  V30 17 C 1.581696 4.297120 0.418125 0
M  V30 18 N -0.332665 2.583894 -0.683009 0
M  V30 19 C -1.275547 1.809794 -1.243689 0
M  V30 20 C -2.178625 2.366896 -2.124324 0
M  V30 21 N -3.150258 1.669272 -2.728706 0
M  V30 22 C -3.239993 0.355040 -2.453912 0
M  V30 23 C -2.339916 -0.206888 -1.574436 0
M  V30 24 C -1.336836 0.469372 -0.938852 0
M  V30 25 H -0.954017 -5.497351 3.677585 0
M  V30 26 H -1.293719 -7.065041 2.785017 0
M  V30 27 H -1.792078 -5.502738 2.099110 0
M  V30 28 H 1.743977 -4.474657 1.756598 0
M  V30 29 H 0.694513 -4.186616 3.138330 0
M  V30 30 H -0.184928 -4.174873 0.181008 0
M  V30 31 H -1.223207 -3.729719 1.561063 0
M  V30 32 H -0.388536 -0.777127 2.461304 0
M  V30 33 H -0.161788 -2.342643 3.240315 0
M  V30 34 H 1.283042 -1.293645 2.824426 0
M  V30 35 H 2.385952 -2.308246 1.537025 0
M  V30 36 H 2.021982 -1.484424 0.000054 0
M  V30 37 H 1.954302 -3.313662 0.133572 0
M  V30 38 H -1.280696 -2.078727 -0.205488 0
M  V30 39 H 1.210848 0.393632 1.152964 0
M  V30 40 H 2.611484 1.583193 1.971957 0
M  V30 41 H 4.234349 3.180691 2.867079 0
M  V30 42 H 2.419455 6.234989 0.585804 0
M  V30 43 H 0.830280 4.646930 -0.284481 0
M  V30 44 H -2.111877 3.427485 -2.350697 0
M  V30 45 H -4.027061 -0.184579 -2.950233 0
M  V30 46 H -2.502207 -1.260854 -1.427551 0
M  V30 END ATOM
M  V30 BEGIN BOND
M  V30 1 1 1 2
M  V30 2 1 2 3
M  V30 3 1 3 4
M  V30 4 1 4 5
M  V30 5 1 5 6
M  V30 6 1 5 7
M  V30 7 1 5 8
M  V30 8 1 8 9
M  V30 9 2 9 10
M  V30 10 1 10 11
M  V30 11 1 11 12
M  V30 12 2 12 13
M  V30 13 1 13 14
M  V30 14 2 14 15
M  V30 15 1 15 16
M  V30 16 2 16 17
M  V30 17 2 11 18
M  V30 18 1 18 19
M  V30 19 2 19 20
M  V30 20 1 20 21
M  V30 21 2 21 22
M  V30 22 1 22 23
M  V30 23 2 23 24
M  V30 24 1 24 9
M  V30 25 1 17 12
M  V30 26 1 24 19
M  V30 27 1 1 25
M  V30 28 1 1 26
M  V30 29 1 1 27
M  V30 30 1 3 28
M  V30 31 1 3 29
M  V30 32 1 4 30
M  V30 33 1 4 31
M  V30 34 1 6 32
M  V30 35 1 6 33
M  V30 36 1 6 34
M  V30 37 1 7 35
M  V30 38 1 7 36
M  V30 39 1 7 37
M  V30 40 1 8 38
M  V30 41 1 10 39
M  V30 42 1 13 40
M  V30 43 1 14 41
M  V30 44 1 16 42
M  V30 45 1 17 43
M  V30 46 1 20 44
M  V30 47 1 22 45
M  V30 48 1 23 46
M  V30 END BOND
M  V30 END CTAB
M  END
>  <Dataset>  (319) 
ChEMBL_Kinases

>  <Ligand_Instance>  (319) 
nan

>  <PDB_ID>  (319) 
nan

>  <Standardized_SMILES>  (319) 
COCCC(C)(C)Nc1cc(-c2ccncc2)nc2cnccc12

>  <Name>  (319) 
nan

>  <Pocket>  (319) 
nan

>  <ATP_Site>  (319) 
nan

>  <Peripheral>  (319) 
nan

>  <Num_H_Atoms_ProtBoundConf>  (319) 
nan

>  <Num_Resolved_Atoms>  (319) 
nan

>  <Num_Not_Resolved_Atoms>  (319) 
nan

$$$$
CHEMBL4458215
     RDKit          3D

  0  0  0  0  0  0  0  0  0  0999 V3000
M  V30 BEGIN CTAB
M  V30 COUNTS 40 43 0 0 0
M  V30 BEGIN ATOM
M  V30 1 C 1.852136 -4.797872 2.771718 0
M  V30 2 C 1.331150 -3.414640 2.845425 0
M  V30 3 C 0.232732 -3.108974 3.637150 0
M  V30 4 C -0.230465 -1.799544 3.673237 0
M  V30 5 C 0.396476 -0.801717 2.926049 0
M  V30 6 C 1.499128 -1.172733 2.147526 0
M  V30 7 C 2.091913 -0.062982 1.365848 0
M  V30 8 N 3.292556 0.520254 1.494653 0
M  V30 9 C 3.353944 1.476805 0.547827 0
M  V30 10 N 2.208137 1.486779 -0.159035 0
M  V30 11 C 1.860695 2.336446 -1.250901 0
M  V30 12 C 1.214823 3.587711 -0.751933 0
M  V30 13 F 0.859551 4.448334 -1.771860 0
M  V30 14 F 2.048642 4.288912 0.107464 0
M  V30 15 C 1.381976 0.539572 0.313465 0
M  V30 16 C 0.030365 0.084989 -0.062749 0
M  V30 17 C 0.137306 -1.196465 -0.633708 0
M  V30 18 C -0.974155 -1.890586 -1.072625 0
M  V30 19 C -2.196664 -1.260495 -0.920488 0
M  V30 20 N -3.455183 -1.662504 -1.239723 0
M  V30 21 C -4.311082 -0.685845 -0.890420 0
M  V30 22 C -3.572051 0.343195 -0.343418 0
M  V30 23 N -2.282405 -0.035239 -0.374083 0
M  V30 24 C -1.214572 0.654578 0.056896 0
M  V30 25 N 1.923650 -2.429169 2.129011 0
M  V30 26 H 1.017233 -5.504949 2.542156 0
M  V30 27 H 2.556435 -4.923654 1.915661 0
M  V30 28 H 2.337540 -5.153695 3.685957 0
M  V30 29 H -0.281122 -3.853009 4.230824 0
M  V30 30 H -1.100236 -1.550872 4.300330 0
M  V30 31 H 0.009539 0.192185 2.982008 0
M  V30 32 H 4.158532 2.172621 0.322241 0
M  V30 33 H 2.818485 2.654954 -1.742545 0
M  V30 34 H 1.288359 1.847301 -2.067259 0
M  V30 35 H 0.288737 3.377324 -0.182717 0
M  V30 36 H 1.060301 -1.772405 -0.793925 0
M  V30 37 H -0.912274 -2.893750 -1.520250 0
M  V30 38 H -5.374995 -0.783002 -1.050595 0
M  V30 39 H -3.982446 1.277715 0.036727 0
M  V30 40 H -1.159213 1.615979 0.501888 0
M  V30 END ATOM
M  V30 BEGIN BOND
M  V30 1 1 1 2
M  V30 2 2 2 3
M  V30 3 1 3 4
M  V30 4 2 4 5
M  V30 5 1 5 6
M  V30 6 1 6 7
M  V30 7 1 7 8
M  V30 8 2 8 9
M  V30 9 1 9 10
M  V30 10 1 10 11
M  V30 11 1 11 12
M  V30 12 1 12 13
M  V30 13 1 12 14
M  V30 14 1 10 15
M  V30 15 1 15 16
M  V30 16 1 16 17
M  V30 17 2 17 18
M  V30 18 1 18 19
M  V30 19 2 19 20
M  V30 20 1 20 21
M  V30 21 2 21 22
M  V30 22 1 22 23
M  V30 23 1 23 24
M  V30 24 2 6 25
M  V30 25 1 25 2
M  V30 26 2 15 7
M  V30 27 2 24 16
M  V30 28 1 23 19
M  V30 29 1 1 26
M  V30 30 1 1 27
M  V30 31 1 1 28
M  V30 32 1 3 29
M  V30 33 1 4 30
M  V30 34 1 5 31
M  V30 35 1 9 32
M  V30 36 1 11 33
M  V30 37 1 11 34
M  V30 38 1 12 35
M  V30 39 1 17 36
M  V30 40 1 18 37
M  V30 41 1 21 38
M  V30 42 1 22 39
M  V30 43 1 24 40
M  V30 END BOND
M  V30 END CTAB
M  END
>  <Dataset>  (320) 
ChEMBL_Kinases

>  <Ligand_Instance>  (320) 
nan

>  <PDB_ID>  (320) 
nan

>  <Standardized_SMILES>  (320) 
Cc1cccc(-c2ncn(CC(F)F)c2-c2ccc3nccn3c2)n1

>  <Name>  (320) 
nan

>  <Pocket>  (320) 
nan

>  <ATP_Site>  (320) 
nan

>  <Peripheral>  (320) 
nan

>  <Num_H_Atoms_ProtBoundConf>  (320) 
nan

>  <Num_Resolved_Atoms>  (320) 
nan

>  <Num_Not_Resolved_Atoms>  (320) 
nan

$$$$
CHEMBL4458206
     RDKit          3D

  0  0  0  0  0  0  0  0  0  0999 V3000
M  V30 BEGIN CTAB
M  V30 COUNTS 49 52 0 0 0
M  V30 BEGIN ATOM
M  V30 1 C 1.442743 -7.240285 -1.264758 0
M  V30 2 C 1.603116 -5.765220 -1.459537 0
M  V30 3 C 1.513236 -4.929573 -0.362972 0
M  V30 4 C 1.655091 -3.555475 -0.498311 0
M  V30 5 C 1.889906 -3.048892 -1.769194 0
M  V30 6 C 2.027252 -1.598636 -1.839281 0
M  V30 7 C 2.874447 -1.151690 -2.831528 0
M  V30 8 N 3.044243 0.177203 -2.952209 0
M  V30 9 C 2.429333 1.063094 -2.155426 0
M  V30 10 N 2.570652 2.462524 -2.238540 0
M  V30 11 C 1.573839 0.678908 -1.148970 0
M  V30 12 N 0.793943 1.327422 -0.168640 0
M  V30 13 C 0.680424 2.547267 0.093735 0
M  V30 14 C -0.205666 2.956343 1.172732 0
M  V30 15 C -0.385394 4.279079 1.521148 0
M  V30 16 C -1.253994 4.598478 2.570821 0
M  V30 17 N -1.934340 3.641056 3.267111 0
M  V30 18 C -1.773029 2.345394 2.943097 0
M  V30 19 N -2.454176 1.302301 3.631625 0
M  V30 20 C -3.342958 1.603946 4.698486 0
M  V30 21 O -3.541314 2.795400 5.050509 0
M  V30 22 C -4.010643 0.470534 5.362248 0
M  V30 23 C -4.217308 -0.821272 4.598301 0
M  V30 24 C -3.110733 -0.761481 5.580155 0
M  V30 25 C -0.911860 2.058404 1.905398 0
M  V30 26 C 1.373845 -0.701907 -0.995225 0
M  V30 27 C 1.985551 -3.841390 -2.878021 0
M  V30 28 C 1.836475 -5.212787 -2.692999 0
M  V30 29 H 2.108750 -7.783527 -1.960673 0
M  V30 30 H 1.732468 -7.541762 -0.231702 0
M  V30 31 H 0.410838 -7.529841 -1.530887 0
M  V30 32 H 1.326986 -5.376071 0.620147 0
M  V30 33 H 1.567962 -2.987044 0.418475 0
M  V30 34 H 3.420156 -1.775548 -3.527987 0
M  V30 35 H 3.316657 2.984475 -1.733179 0
M  V30 36 H 1.882783 2.992933 -2.843738 0
M  V30 37 H 1.255368 3.227029 -0.505105 0
M  V30 38 H 0.146523 5.054038 0.980173 0
M  V30 39 H -1.334878 5.652188 2.775280 0
M  V30 40 H -2.290190 0.315359 3.341349 0
M  V30 41 H -4.707103 0.636706 6.190744 0
M  V30 42 H -4.029868 -0.731814 3.514368 0
M  V30 43 H -5.106516 -1.439679 4.841314 0
M  V30 44 H -2.045136 -0.660953 5.272132 0
M  V30 45 H -3.254775 -1.359974 6.499669 0
M  V30 46 H -0.797997 0.995634 1.660897 0
M  V30 47 H 0.758832 -1.241814 -0.288275 0
M  V30 48 H 2.167893 -3.364178 -3.815167 0
M  V30 49 H 1.911468 -5.852353 -3.571988 0
M  V30 END ATOM
M  V30 BEGIN BOND
M  V30 1 1 1 2
M  V30 2 2 2 3
M  V30 3 1 3 4
M  V30 4 2 4 5
M  V30 5 1 5 6
M  V30 6 2 6 7
M  V30 7 1 7 8
M  V30 8 2 8 9
M  V30 9 1 9 10
M  V30 10 1 9 11
M  V30 11 1 11 12
M  V30 12 2 12 13
M  V30 13 1 13 14
M  V30 14 2 14 15
M  V30 15 1 15 16
M  V30 16 2 16 17
M  V30 17 1 17 18
M  V30 18 1 18 19
M  V30 19 1 19 20
M  V30 20 2 20 21
M  V30 21 1 20 22
M  V30 22 1 22 23
M  V30 23 1 23 24
M  V30 24 2 18 25
M  V30 25 2 11 26
M  V30 26 1 5 27
M  V30 27 2 27 28
M  V30 28 1 28 2
M  V30 29 1 26 6
M  V30 30 1 25 14
M  V30 31 1 24 22
M  V30 32 1 1 29
M  V30 33 1 1 30
M  V30 34 1 1 31
M  V30 35 1 3 32
M  V30 36 1 4 33
M  V30 37 1 7 34
M  V30 38 1 10 35
M  V30 39 1 10 36
M  V30 40 1 13 37
M  V30 41 1 15 38
M  V30 42 1 16 39
M  V30 43 1 19 40
M  V30 44 1 22 41
M  V30 45 1 23 42
M  V30 46 1 23 43
M  V30 47 1 24 44
M  V30 48 1 24 45
M  V30 49 1 25 46
M  V30 50 1 26 47
M  V30 51 1 27 48
M  V30 52 1 28 49
M  V30 END BOND
M  V30 END CTAB
M  END
>  <Dataset>  (321) 
ChEMBL_Kinases

>  <Ligand_Instance>  (321) 
nan

>  <PDB_ID>  (321) 
nan

>  <Standardized_SMILES>  (321) 
Cc1ccc(-c2cnc(N)c(/N=C/c3ccnc(NC(=O)C4CC4)c3)c2)cc1

>  <Name>  (321) 
nan

>  <Pocket>  (321) 
nan

>  <ATP_Site>  (321) 
nan

>  <Peripheral>  (321) 
nan

>  <Num_H_Atoms_ProtBoundConf>  (321) 
nan

>  <Num_Resolved_Atoms>  (321) 
nan

>  <Num_Not_Resolved_Atoms>  (321) 
nan

$$$$
CHEMBL4458507
     RDKit          3D

  0  0  0  0  0  0  0  0  0  0999 V3000
M  V30 BEGIN CTAB
M  V30 COUNTS 45 48 0 0 0
M  V30 BEGIN ATOM
M  V30 1 C 0.434954 -4.933527 4.274473 0
M  V30 2 O 1.100865 -3.713407 4.053721 0
M  V30 3 C 0.923588 -2.908146 2.946810 0
M  V30 4 C 1.604297 -1.702506 2.764060 0
M  V30 5 C 1.368357 -0.959971 1.630430 0
M  V30 6 C 2.095730 0.281254 1.483757 0
M  V30 7 C 2.719156 1.307039 1.352963 0
M  V30 8 C 3.494031 2.536986 1.188050 0
M  V30 9 C 4.114736 2.638252 -0.178558 0
M  V30 10 O 4.425393 2.569613 2.213682 0
M  V30 11 C 2.619277 3.755397 1.314940 0
M  V30 12 N 2.383039 4.796525 0.408268 0
M  V30 13 C 1.530333 5.669809 0.947386 0
M  V30 14 C 0.936712 5.646129 2.157318 0
M  V30 15 S 1.669641 4.070078 2.784642 0
M  V30 16 C 0.474928 -1.416334 0.708778 0
M  V30 17 C -0.214908 -2.611704 0.866708 0
M  V30 18 C -1.172489 -3.091290 -0.130950 0
M  V30 19 C -1.241984 -4.393527 -0.600615 0
M  V30 20 N -2.250458 -4.387085 -1.490961 0
M  V30 21 C -2.808450 -3.175665 -1.605001 0
M  V30 22 C -3.855224 -2.734321 -2.392920 0
M  V30 23 N -4.212871 -1.422700 -2.298271 0
M  V30 24 C -3.543854 -0.595795 -1.447094 0
M  V30 25 N -3.946689 0.766960 -1.376394 0
M  V30 26 N -2.524287 -1.031696 -0.681546 0
M  V30 27 C -2.138802 -2.319517 -0.744102 0
M  V30 28 C 0.019919 -3.364674 2.009372 0
M  V30 29 H 0.537073 -5.600675 3.410605 0
M  V30 30 H -0.602286 -4.734231 4.567081 0
M  V30 31 H 0.921619 -5.413227 5.164015 0
M  V30 32 H 2.297154 -1.427491 3.560175 0
M  V30 33 H 4.105154 3.673329 -0.589432 0
M  V30 34 H 3.504092 2.041644 -0.899584 0
M  V30 35 H 5.135275 2.261106 -0.234396 0
M  V30 36 H 5.292314 2.252845 1.822286 0
M  V30 37 H 1.426755 6.428682 0.150294 0
M  V30 38 H 0.282584 6.403107 2.455842 0
M  V30 39 H 0.300033 -0.827217 -0.171472 0
M  V30 40 H -0.608879 -5.202492 -0.293966 0
M  V30 41 H -2.514221 -5.276268 -2.003062 0
M  V30 42 H -4.370638 -3.425161 -3.065533 0
M  V30 43 H -3.780021 1.649426 -1.909805 0
M  V30 44 H -4.584752 0.849432 -0.540725 0
M  V30 45 H -0.517362 -4.301987 2.138876 0
M  V30 END ATOM
M  V30 BEGIN BOND
M  V30 1 1 1 2
M  V30 2 1 2 3
M  V30 3 2 3 4
M  V30 4 1 4 5
M  V30 5 1 5 6
M  V30 6 3 6 7
M  V30 7 1 7 8
M  V30 8 1 8 9
M  V30 9 1 8 10
M  V30 10 1 8 11
M  V30 11 2 11 12
M  V30 12 1 12 13
M  V30 13 2 13 14
M  V30 14 1 14 15
M  V30 15 2 5 16
M  V30 16 1 16 17
M  V30 17 1 17 18
M  V30 18 2 18 19
M  V30 19 1 19 20
M  V30 20 1 20 21
M  V30 21 2 21 22
M  V30 22 1 22 23
M  V30 23 2 23 24
M  V30 24 1 24 25
M  V30 25 1 24 26
M  V30 26 2 26 27
M  V30 27 2 17 28
M  V30 28 1 28 3
M  V30 29 1 15 11
M  V30 30 1 27 18
M  V30 31 1 27 21
M  V30 32 1 1 29
M  V30 33 1 1 30
M  V30 34 1 1 31
M  V30 35 1 4 32
M  V30 36 1 9 33
M  V30 37 1 9 34
M  V30 38 1 9 35
M  V30 39 1 10 36
M  V30 40 1 13 37
M  V30 41 1 14 38
M  V30 42 1 16 39
M  V30 43 1 19 40
M  V30 44 1 20 41
M  V30 45 1 22 42
M  V30 46 1 25 43
M  V30 47 1 25 44
M  V30 48 1 28 45
M  V30 END BOND
M  V30 END CTAB
M  END
>  <Dataset>  (322) 
ChEMBL_Kinases

>  <Ligand_Instance>  (322) 
nan

>  <PDB_ID>  (322) 
nan

>  <Standardized_SMILES>  (322) 
COc1cc(C#CC(C)(O)c2nccs2)cc(-c2c[nH]c3cnc(N)nc23)c1

>  <Name>  (322) 
nan

>  <Pocket>  (322) 
nan

>  <ATP_Site>  (322) 
nan

>  <Peripheral>  (322) 
nan

>  <Num_H_Atoms_ProtBoundConf>  (322) 
nan

>  <Num_Resolved_Atoms>  (322) 
nan

>  <Num_Not_Resolved_Atoms>  (322) 
nan

$$$$
CHEMBL4745018
     RDKit          3D

  0  0  0  0  0  0  0  0  0  0999 V3000
M  V30 BEGIN CTAB
M  V30 COUNTS 30 32 0 0 0
M  V30 BEGIN ATOM
M  V30 1 O 2.812081 -2.609881 2.943215 0
M  V30 2 C 2.392141 -3.394351 2.055366 0
M  V30 3 O 1.022319 -3.613181 2.129649 0
M  V30 4 C 3.204718 -4.067349 0.991011 0
M  V30 5 S 3.208200 -3.034099 -0.511063 0
M  V30 6 C 1.576509 -2.934074 -1.216491 0
M  V30 7 N 0.985346 -3.719969 -2.124274 0
M  V30 8 C -0.273535 -3.386844 -2.455892 0
M  V30 9 N -0.993124 -2.382586 -1.996468 0
M  V30 10 C -0.520911 -1.518028 -1.082732 0
M  V30 11 C -1.061567 -0.430600 -0.470434 0
M  V30 12 C -0.371621 0.285875 0.429146 0
M  V30 13 C -0.678571 1.445752 1.211659 0
M  V30 14 C 0.277059 1.957425 2.066394 0
M  V30 15 C -0.029755 3.090037 2.830666 0
M  V30 16 C -1.281321 3.618824 2.671966 0
M  V30 17 C -2.277658 3.153970 1.835508 0
M  V30 18 F -3.492833 3.750975 1.748310 0
M  V30 19 C -1.924414 2.030517 1.099642 0
M  V30 20 S 1.201462 -0.529969 0.523951 0
M  V30 21 C 0.818863 -1.825833 -0.692320 0
M  V30 22 H 0.542608 -3.689054 2.999826 0
M  V30 23 H 2.825838 -5.075191 0.768156 0
M  V30 24 H 4.259657 -4.169568 1.313125 0
M  V30 25 H -0.764636 -4.029907 -3.201514 0
M  V30 26 H -2.067062 -0.105742 -0.687301 0
M  V30 27 H 1.266352 1.541236 2.193645 0
M  V30 28 H 0.696891 3.516104 3.511127 0
M  V30 29 H -1.504158 4.493500 3.268765 0
M  V30 30 H -2.646002 1.614869 0.430266 0
M  V30 END ATOM
M  V30 BEGIN BOND
M  V30 1 2 1 2
M  V30 2 1 2 3
M  V30 3 1 2 4
M  V30 4 1 4 5
M  V30 5 1 5 6
M  V30 6 2 6 7
M  V30 7 1 7 8
M  V30 8 2 8 9
M  V30 9 1 9 10
M  V30 10 1 10 11
M  V30 11 2 11 12
M  V30 12 1 12 13
M  V30 13 2 13 14
M  V30 14 1 14 15
M  V30 15 2 15 16
M  V30 16 1 16 17
M  V30 17 1 17 18
M  V30 18 2 17 19
M  V30 19 1 12 20
M  V30 20 1 20 21
M  V30 21 1 21 6
M  V30 22 2 21 10
M  V30 23 1 19 13
M  V30 24 1 3 22
M  V30 25 1 4 23
M  V30 26 1 4 24
M  V30 27 1 8 25
M  V30 28 1 11 26
M  V30 29 1 14 27
M  V30 30 1 15 28
M  V30 31 1 16 29
M  V30 32 1 19 30
M  V30 END BOND
M  V30 END CTAB
M  END
>  <Dataset>  (323) 
ChEMBL_Kinases

>  <Ligand_Instance>  (323) 
nan

>  <PDB_ID>  (323) 
nan

>  <Standardized_SMILES>  (323) 
O=C(O)CSc1ncnc2cc(-c3cccc(F)c3)sc12

>  <Name>  (323) 
nan

>  <Pocket>  (323) 
nan

>  <ATP_Site>  (323) 
nan

>  <Peripheral>  (323) 
nan

>  <Num_H_Atoms_ProtBoundConf>  (323) 
nan

>  <Num_Resolved_Atoms>  (323) 
nan

>  <Num_Not_Resolved_Atoms>  (323) 
nan

$$$$
CHEMBL4745028
     RDKit          3D

  0  0  0  0  0  0  0  0  0  0999 V3000
M  V30 BEGIN CTAB
M  V30 COUNTS 58 62 0 0 0
M  V30 BEGIN ATOM
M  V30 1 C -0.754621 -6.862572 3.610063 0
M  V30 2 O -1.005712 -6.883438 2.222191 0
M  V30 3 C -0.679821 -6.012876 1.273879 0
M  V30 4 C -0.080184 -4.822226 1.004214 0
M  V30 5 C 0.037420 -4.246059 -0.230642 0
M  V30 6 C 0.666881 -2.944118 -0.347492 0
M  V30 7 C 0.612332 -1.903053 0.590042 0
M  V30 8 N 1.238587 -0.739223 0.353365 0
M  V30 9 C 1.942141 -0.478667 -0.751111 0
M  V30 10 C 2.578746 0.667979 -1.015480 0
M  V30 11 N 2.778519 1.945569 -0.444222 0
M  V30 12 C 3.582297 2.421223 0.648566 0
M  V30 13 C 3.193276 3.780698 1.123487 0
M  V30 14 C 1.692728 4.016262 1.166918 0
M  V30 15 C 1.040259 3.635413 -0.130555 0 CFG=2
M  V30 16 C -0.169521 2.760702 0.017529 0
M  V30 17 N -1.200589 3.426850 0.782671 0
M  V30 18 C -2.276399 2.525564 0.881323 0
M  V30 19 O -1.980946 1.420382 0.282713 0
M  V30 20 C -3.642323 2.429993 1.442989 0
M  V30 21 C -4.692989 1.676467 0.610466 0
M  V30 22 C -4.150929 1.087775 1.887840 0
M  V30 23 C 2.038290 3.026142 -1.097443 0
M  V30 24 S 3.347044 0.514764 -2.554596 0
M  V30 25 N 2.762745 -1.231539 -2.866558 0
M  V30 26 C 2.040421 -1.452239 -1.710164 0
M  V30 27 C 1.401339 -2.678192 -1.501879 0
M  V30 28 C -0.483730 -4.902037 -1.314192 0
M  V30 29 C -1.122606 -6.126661 -1.178714 0
M  V30 30 C -1.208155 -6.659647 0.122361 0
M  V30 31 N -1.917194 -7.920228 -0.039060 0
M  V30 32 H -1.141014 -7.752747 4.125066 0
M  V30 33 H 0.343103 -6.707135 3.822860 0
M  V30 34 H -1.269231 -5.976864 4.030693 0
M  V30 35 H 0.271894 -4.446893 1.954295 0
M  V30 36 H 0.027071 -2.147815 1.484885 0
M  V30 37 H 4.661191 2.452718 0.405849 0
M  V30 38 H 3.374047 1.712184 1.500021 0
M  V30 39 H 3.586721 3.884838 2.158645 0
M  V30 40 H 3.683552 4.565121 0.530797 0
M  V30 41 H 1.551434 5.082323 1.432204 0
M  V30 42 H 1.281008 3.333404 1.968650 0
M  V30 43 H 0.706189 4.586708 -0.601031 0
M  V30 44 H 0.134872 1.817581 0.511504 0
M  V30 45 H -0.579256 2.510731 -1.004847 0
M  V30 46 H -1.509305 4.288599 1.302980 0
M  V30 47 H -3.994427 3.347478 1.967545 0
M  V30 48 H -4.339615 1.310785 -0.354776 0
M  V30 49 H -5.722448 2.082910 0.600831 0
M  V30 50 H -4.791155 0.992948 2.761747 0
M  V30 51 H -3.434831 0.247297 1.705267 0
M  V30 52 H 2.748660 3.832422 -1.402864 0
M  V30 53 H 1.498691 2.714890 -1.996211 0
M  V30 54 H 1.450801 -3.478115 -2.225839 0
M  V30 55 H -0.352706 -4.378603 -2.261764 0
M  V30 56 H -1.467630 -6.489940 -2.130677 0
M  V30 57 H -1.619578 -8.921301 -0.004515 0
M  V30 58 H -2.940737 -7.974385 -0.232558 0
M  V30 END ATOM
M  V30 BEGIN BOND
M  V30 1 1 1 2
M  V30 2 1 2 3
M  V30 3 2 3 4
M  V30 4 1 4 5
M  V30 5 1 5 6
M  V30 6 1 6 7
M  V30 7 2 7 8
M  V30 8 1 8 9
M  V30 9 2 9 10
M  V30 10 1 10 11
M  V30 11 1 11 12
M  V30 12 1 12 13
M  V30 13 1 13 14
M  V30 14 1 14 15
M  V30 15 1 15 16
M  V30 16 1 16 17
M  V30 17 1 17 18
M  V30 18 2 18 19
M  V30 19 1 18 20
M  V30 20 1 20 21
M  V30 21 1 21 22
M  V30 22 1 15 23
M  V30 23 1 10 24
M  V30 24 1 24 25
M  V30 25 2 25 26
M  V30 26 1 26 27
M  V30 27 2 5 28
M  V30 28 1 28 29
M  V30 29 2 29 30
M  V30 30 1 30 31
M  V30 31 1 30 3
M  V30 32 2 27 6
M  V30 33 1 26 9
M  V30 34 1 23 11
M  V30 35 1 22 20
M  V30 36 1 1 32
M  V30 37 1 1 33
M  V30 38 1 1 34
M  V30 39 1 4 35
M  V30 40 1 7 36
M  V30 41 1 12 37
M  V30 42 1 12 38
M  V30 43 1 13 39
M  V30 44 1 13 40
M  V30 45 1 14 41
M  V30 46 1 14 42
M  V30 47 1 15 43 CFG=3
M  V30 48 1 16 44
M  V30 49 1 16 45
M  V30 50 1 17 46
M  V30 51 1 20 47
M  V30 52 1 21 48
M  V30 53 1 21 49
M  V30 54 1 22 50
M  V30 55 1 22 51
M  V30 56 1 23 52
M  V30 57 1 23 53
M  V30 58 1 27 54
M  V30 59 1 28 55
M  V30 60 1 29 56
M  V30 61 1 31 57
M  V30 62 1 31 58
M  V30 END BOND
M  V30 END CTAB
M  END
>  <Dataset>  (324) 
ChEMBL_Kinases

>  <Ligand_Instance>  (324) 
nan

>  <PDB_ID>  (324) 
nan

>  <Standardized_SMILES>  (324) 
COc1cc(-c2cnc3c(N4CCC[C@H](CNC(=O)C5CC5)C4)snc3c2)ccc1N

>  <Name>  (324) 
nan

>  <Pocket>  (324) 
nan

>  <ATP_Site>  (324) 
nan

>  <Peripheral>  (324) 
nan

>  <Num_H_Atoms_ProtBoundConf>  (324) 
nan

>  <Num_Resolved_Atoms>  (324) 
nan

>  <Num_Not_Resolved_Atoms>  (324) 
nan

$$$$
CHEMBL4745038
     RDKit          3D

  0  0  0  0  0  0  0  0  0  0999 V3000
M  V30 BEGIN CTAB
M  V30 COUNTS 59 63 0 0 0
M  V30 BEGIN ATOM
M  V30 1 C 5.034335 -1.493267 3.944401 0
M  V30 2 C 4.741104 -0.580079 2.819125 0
M  V30 3 C 4.959815 -0.916476 1.497826 0
M  V30 4 C 4.667649 -0.022424 0.474017 0
M  V30 5 C 4.152148 1.226571 0.729967 0
M  V30 6 S 3.747553 2.430581 -0.452652 0
M  V30 7 O 4.629678 2.313547 -1.676821 0
M  V30 8 O 3.935165 3.799079 0.145617 0
M  V30 9 N 2.108745 2.264207 -0.978985 0
M  V30 10 C 1.199130 2.442052 0.116858 0
M  V30 11 C -0.218714 2.287636 -0.395043 0
M  V30 12 C -1.224850 2.463261 0.712622 0
M  V30 13 N -1.035342 1.492828 1.753682 0
M  V30 14 C -1.119594 0.104096 1.585469 0
M  V30 15 N -0.925781 -0.793011 2.595706 0
M  V30 16 C -1.014885 -2.115400 2.401111 0
M  V30 17 C -1.309478 -2.637430 1.158933 0
M  V30 18 C -1.507091 -1.741068 0.131849 0
M  V30 19 C -1.825595 -2.239180 -1.223999 0
M  V30 20 C -2.991881 -2.948706 -1.340594 0
M  V30 21 C -4.026945 -3.338137 -0.394646 0
M  V30 22 C -4.760711 -2.355967 0.239229 0
M  V30 23 C -5.744675 -2.738459 1.138901 0
M  V30 24 C -6.000634 -4.063872 1.408801 0
M  V30 25 C -5.281645 -5.080896 0.789275 0
M  V30 26 F -5.502121 -6.396990 1.027098 0
M  V30 27 C -4.306710 -4.657974 -0.103434 0
M  V30 28 N -3.088994 -3.301576 -2.632125 0
M  V30 29 C -2.002823 -2.811482 -3.268425 0
M  V30 30 S -1.161588 -2.676754 -4.831436 0
M  V30 31 C 0.238084 -1.705614 -4.170913 0
M  V30 32 C -0.074368 -1.570519 -2.781143 0
M  V30 33 N -1.220520 -2.160999 -2.428457 0
M  V30 34 N -1.403715 -0.425187 0.391580 0
M  V30 35 C 3.932968 1.561719 2.066131 0
M  V30 36 C 4.230423 0.654597 3.087342 0
M  V30 37 H 4.789737 -2.521794 3.664404 0
M  V30 38 H 4.415897 -1.196111 4.833958 0
M  V30 39 H 6.100908 -1.446316 4.272799 0
M  V30 40 H 5.363289 -1.886382 1.251006 0
M  V30 41 H 4.825768 -0.249211 -0.580394 0
M  V30 42 H 1.936824 1.364262 -1.439954 0
M  V30 43 H 1.323557 3.416871 0.627679 0
M  V30 44 H 1.375230 1.670386 0.904334 0
M  V30 45 H -0.391446 1.317587 -0.867640 0
M  V30 46 H -0.363977 3.066745 -1.163908 0
M  V30 47 H -2.229760 2.260415 0.271446 0
M  V30 48 H -1.218273 3.486280 1.132872 0
M  V30 49 H -0.813156 1.826531 2.737033 0
M  V30 50 H -0.863296 -2.833310 3.193745 0
M  V30 51 H -1.401796 -3.684881 0.907045 0
M  V30 52 H -4.583870 -1.309605 0.048762 0
M  V30 53 H -6.297220 -1.931266 1.614129 0
M  V30 54 H -6.777545 -4.338072 2.117968 0
M  V30 55 H -3.732471 -5.434875 -0.598947 0
M  V30 56 H 1.140711 -1.298289 -4.701973 0
M  V30 57 H 0.655288 -1.013462 -2.215095 0
M  V30 58 H 3.536485 2.508128 2.356972 0
M  V30 59 H 4.049854 0.942726 4.106441 0
M  V30 END ATOM
M  V30 BEGIN BOND
M  V30 1 1 1 2
M  V30 2 2 2 3
M  V30 3 1 3 4
M  V30 4 2 4 5
M  V30 5 1 5 6
M  V30 6 2 6 7
M  V30 7 2 6 8
M  V30 8 1 6 9
M  V30 9 1 9 10
M  V30 10 1 10 11
M  V30 11 1 11 12
M  V30 12 1 12 13
M  V30 13 1 13 14
M  V30 14 2 14 15
M  V30 15 1 15 16
M  V30 16 2 16 17
M  V30 17 1 17 18
M  V30 18 1 18 19
M  V30 19 2 19 20
M  V30 20 1 20 21
M  V30 21 2 21 22
M  V30 22 1 22 23
M  V30 23 2 23 24
M  V30 24 1 24 25
M  V30 25 1 25 26
M  V30 26 2 25 27
M  V30 27 1 20 28
M  V30 28 2 28 29
M  V30 29 1 29 30
M  V30 30 1 30 31
M  V30 31 2 31 32
M  V30 32 1 32 33
M  V30 33 2 18 34
M  V30 34 1 5 35
M  V30 35 2 35 36
M  V30 36 1 36 2
M  V30 37 1 34 14
M  V30 38 1 33 19
M  V30 39 1 27 21
M  V30 40 1 33 29
M  V30 41 1 1 37
M  V30 42 1 1 38
M  V30 43 1 1 39
M  V30 44 1 3 40
M  V30 45 1 4 41
M  V30 46 1 9 42
M  V30 47 1 10 43
M  V30 48 1 10 44
M  V30 49 1 11 45
M  V30 50 1 11 46
M  V30 51 1 12 47
M  V30 52 1 12 48
M  V30 53 1 13 49
M  V30 54 1 16 50
M  V30 55 1 17 51
M  V30 56 1 22 52
M  V30 57 1 23 53
M  V30 58 1 24 54
M  V30 59 1 27 55
M  V30 60 1 31 56
M  V30 61 1 32 57
M  V30 62 1 35 58
M  V30 63 1 36 59
M  V30 END BOND
M  V30 END CTAB
M  END
>  <Dataset>  (325) 
ChEMBL_Kinases

>  <Ligand_Instance>  (325) 
nan

>  <PDB_ID>  (325) 
nan

>  <Standardized_SMILES>  (325) 
Cc1ccc(S(=O)(=O)NCCCNc2nccc(-c3c(-c4cccc(F)c4)nc4sccn34)n2)cc1

>  <Name>  (325) 
nan

>  <Pocket>  (325) 
nan

>  <ATP_Site>  (325) 
nan

>  <Peripheral>  (325) 
nan

>  <Num_H_Atoms_ProtBoundConf>  (325) 
nan

>  <Num_Resolved_Atoms>  (325) 
nan

>  <Num_Not_Resolved_Atoms>  (325) 
nan

$$$$
CHEMBL4745045
     RDKit          3D

  0  0  0  0  0  0  0  0  0  0999 V3000
M  V30 BEGIN CTAB
M  V30 COUNTS 61 66 0 0 0
M  V30 BEGIN ATOM
M  V30 1 C 3.507427 -4.387138 2.162276 0
M  V30 2 N 4.423717 -3.632180 2.957296 0
M  V30 3 C 5.677456 -3.357711 2.314166 0
M  V30 4 C 5.515105 -2.470136 1.095839 0
M  V30 5 N 4.254659 -1.790350 1.076699 0
M  V30 6 C 4.331220 -0.660534 0.170610 0
M  V30 7 C 3.042988 0.091637 0.101853 0
M  V30 8 C 2.739780 1.165785 0.912925 0
M  V30 9 C 1.529800 1.844588 0.831563 0
M  V30 10 C 0.593956 1.426636 -0.098952 0
M  V30 11 C -0.728009 2.067595 -0.280618 0
M  V30 12 C -1.008611 3.389521 -0.098004 0
M  V30 13 N -2.267874 3.817245 -0.299859 0
M  V30 14 C -3.283859 3.002937 -0.677834 0
M  V30 15 N -4.587073 3.251302 -0.923069 0
M  V30 16 C -5.185083 2.106031 -1.269378 0
M  V30 17 C -4.265979 1.077470 -1.254809 0
M  V30 18 C -4.283552 -0.363224 -1.523465 0
M  V30 19 C -4.045949 -0.986562 -2.730168 0
M  V30 20 C -4.090005 -2.359584 -2.841047 0
M  V30 21 C -4.373637 -3.174065 -1.751633 0
M  V30 22 C -4.611597 -2.552072 -0.544476 0
M  V30 23 C -4.895455 -3.341077 0.549989 0
M  V30 24 C -5.147153 -2.776766 1.804132 0
M  V30 25 C -5.108243 -1.407703 1.937178 0
M  V30 26 C -4.817504 -0.631542 0.809639 0
M  V30 27 C -4.567880 -1.177057 -0.431304 0
M  V30 28 C -3.052545 1.654681 -0.876375 0
M  V30 29 C -1.767476 1.244640 -0.665463 0
M  V30 30 C 0.908872 0.339068 -0.916075 0
M  V30 31 C 2.106802 -0.344186 -0.845715 0
M  V30 32 C 3.984128 -1.296248 2.393818 0
M  V30 33 C 3.864134 -2.396809 3.423652 0
M  V30 34 H 3.890378 -4.611118 1.150807 0
M  V30 35 H 2.591685 -3.747779 2.013605 0
M  V30 36 H 3.138036 -5.299987 2.677827 0
M  V30 37 H 6.256203 -4.265458 2.095760 0
M  V30 38 H 6.274022 -2.761925 3.050219 0
M  V30 39 H 5.650285 -3.143147 0.212685 0
M  V30 40 H 6.323602 -1.711773 1.058906 0
M  V30 41 H 4.563139 -1.004480 -0.855059 0
M  V30 42 H 5.104603 0.069938 0.503382 0
M  V30 43 H 3.477294 1.494349 1.644978 0
M  V30 44 H 1.285730 2.684468 1.461861 0
M  V30 45 H -0.191688 4.023609 0.202640 0
M  V30 46 H -5.069024 4.163703 -0.861484 0
M  V30 47 H -6.207104 1.862590 -1.542979 0
M  V30 48 H -3.832900 -0.291940 -3.531908 0
M  V30 49 H -3.899756 -2.793725 -3.792680 0
M  V30 50 H -4.413174 -4.240645 -1.814012 0
M  V30 51 H -4.947077 -4.424045 0.539164 0
M  V30 52 H -5.374478 -3.376939 2.688205 0
M  V30 53 H -5.300044 -0.959327 2.897210 0
M  V30 54 H -4.803318 0.434561 0.985201 0
M  V30 55 H -1.570223 0.176960 -0.817195 0
M  V30 56 H 0.240245 -0.070863 -1.686446 0
M  V30 57 H 2.352490 -1.182413 -1.472637 0
M  V30 58 H 3.011063 -0.787447 2.375218 0
M  V30 59 H 4.829337 -0.628207 2.664322 0
M  V30 60 H 4.408210 -2.078417 4.336220 0
M  V30 61 H 2.792092 -2.565350 3.738228 0
M  V30 END ATOM
M  V30 BEGIN BOND
M  V30 1 1 1 2
M  V30 2 1 2 3
M  V30 3 1 3 4
M  V30 4 1 4 5
M  V30 5 1 5 6
M  V30 6 1 6 7
M  V30 7 2 7 8
M  V30 8 1 8 9
M  V30 9 2 9 10
M  V30 10 1 10 11
M  V30 11 2 11 12
M  V30 12 1 12 13
M  V30 13 2 13 14
M  V30 14 1 14 15
M  V30 15 1 15 16
M  V30 16 2 16 17
M  V30 17 1 17 18
M  V30 18 2 18 19
M  V30 19 1 19 20
M  V30 20 2 20 21
M  V30 21 1 21 22
M  V30 22 2 22 23
M  V30 23 1 23 24
M  V30 24 2 24 25
M  V30 25 1 25 26
M  V30 26 2 26 27
M  V30 27 1 17 28
M  V30 28 2 28 29
M  V30 29 1 10 30
M  V30 30 2 30 31
M  V30 31 1 5 32
M  V30 32 1 32 33
M  V30 33 1 33 2
M  V30 34 1 31 7
M  V30 35 1 29 11
M  V30 36 1 28 14
M  V30 37 1 27 18
M  V30 38 1 27 22
M  V30 39 1 1 34
M  V30 40 1 1 35
M  V30 41 1 1 36
M  V30 42 1 3 37
M  V30 43 1 3 38
M  V30 44 1 4 39
M  V30 45 1 4 40
M  V30 46 1 6 41
M  V30 47 1 6 42
M  V30 48 1 8 43
M  V30 49 1 9 44
M  V30 50 1 12 45
M  V30 51 1 15 46
M  V30 52 1 16 47
M  V30 53 1 19 48
M  V30 54 1 20 49
M  V30 55 1 21 50
M  V30 56 1 23 51
M  V30 57 1 24 52
M  V30 58 1 25 53
M  V30 59 1 26 54
M  V30 60 1 29 55
M  V30 61 1 30 56
M  V30 62 1 31 57
M  V30 63 1 32 58
M  V30 64 1 32 59
M  V30 65 1 33 60
M  V30 66 1 33 61
M  V30 END BOND
M  V30 END CTAB
M  END
>  <Dataset>  (326) 
ChEMBL_Kinases

>  <Ligand_Instance>  (326) 
nan

>  <PDB_ID>  (326) 
nan

>  <Standardized_SMILES>  (326) 
CN1CCN(Cc2ccc(-c3cnc4[nH]cc(-c5cccc6ccccc56)c4c3)cc2)CC1

>  <Name>  (326) 
nan

>  <Pocket>  (326) 
nan

>  <ATP_Site>  (326) 
nan

>  <Peripheral>  (326) 
nan

>  <Num_H_Atoms_ProtBoundConf>  (326) 
nan

>  <Num_Resolved_Atoms>  (326) 
nan

>  <Num_Not_Resolved_Atoms>  (326) 
nan

$$$$
CHEMBL4745057
     RDKit          3D

  0  0  0  0  0  0  0  0  0  0999 V3000
M  V30 BEGIN CTAB
M  V30 COUNTS 45 48 0 0 0
M  V30 BEGIN ATOM
M  V30 1 C -0.167733 -5.261437 -0.520575 0
M  V30 2 C -0.107743 -3.782526 -0.919395 0
M  V30 3 C 1.267218 -3.307263 -0.564805 0
M  V30 4 N 1.475953 -1.892186 -0.892492 0
M  V30 5 C 1.945679 -1.467927 -2.080847 0
M  V30 6 O 2.223433 -2.321205 -2.963854 0
M  V30 7 C 2.094722 -0.100146 -2.256521 0
M  V30 8 C 2.581396 0.294011 -3.495203 0
M  V30 9 C 2.727574 1.656091 -3.664182 0
M  V30 10 C 2.421028 2.599201 -2.689435 0
M  V30 11 C 1.941384 2.163855 -1.476296 0
M  V30 12 C 1.788828 0.828784 -1.285817 0
M  V30 13 N 1.328373 0.354103 -0.130501 0
M  V30 14 C 0.947751 0.980293 0.991028 0
M  V30 15 S 0.887393 2.548850 1.418576 0
M  V30 16 N 0.553336 0.066614 1.897458 0
M  V30 17 C 0.041903 0.074492 3.256170 0
M  V30 18 N -1.377836 0.134569 3.325530 0
M  V30 19 C -2.004846 1.261178 2.734045 0
M  V30 20 C -1.935183 -0.154602 4.599698 0
M  V30 21 C -1.569888 0.646647 5.811892 0
M  V30 22 C -2.926144 0.853862 5.129688 0
M  V30 23 N 0.706127 -1.123990 1.294034 0
M  V30 24 C 1.182256 -0.970211 0.044423 0
M  V30 25 H -0.133373 -5.320538 0.593210 0
M  V30 26 H -1.104237 -5.732991 -0.898762 0
M  V30 27 H 0.730598 -5.759500 -0.949078 0
M  V30 28 H -0.904558 -3.294014 -0.315007 0
M  V30 29 H -0.314829 -3.751291 -2.008892 0
M  V30 30 H 1.980178 -3.966192 -1.121249 0
M  V30 31 H 1.414798 -3.481608 0.506847 0
M  V30 32 H 2.831546 -0.407975 -4.279569 0
M  V30 33 H 3.106529 1.982515 -4.625519 0
M  V30 34 H 2.581634 3.632768 -2.950683 0
M  V30 35 H 1.734843 2.938512 -0.796926 0
M  V30 36 H 0.487172 -0.742376 3.846203 0
M  V30 37 H 0.417751 1.022196 3.749425 0
M  V30 38 H -1.669516 2.187219 3.248908 0
M  V30 39 H -3.116861 1.223641 2.819966 0
M  V30 40 H -1.835794 1.336788 1.636211 0
M  V30 41 H -2.158455 -1.223682 4.862442 0
M  V30 42 H -0.764511 1.374845 5.655608 0
M  V30 43 H -1.644509 0.225535 6.810795 0
M  V30 44 H -3.014875 1.861725 4.729763 0
M  V30 45 H -3.819676 0.440365 5.643833 0
M  V30 END ATOM
M  V30 BEGIN BOND
M  V30 1 1 1 2
M  V30 2 1 2 3
M  V30 3 1 3 4
M  V30 4 1 4 5
M  V30 5 2 5 6
M  V30 6 1 5 7
M  V30 7 2 7 8
M  V30 8 1 8 9
M  V30 9 2 9 10
M  V30 10 1 10 11
M  V30 11 2 11 12
M  V30 12 1 12 13
M  V30 13 1 13 14
M  V30 14 2 14 15
M  V30 15 1 14 16
M  V30 16 1 16 17
M  V30 17 1 17 18
M  V30 18 1 18 19
M  V30 19 1 18 20
M  V30 20 1 20 21
M  V30 21 1 21 22
M  V30 22 1 16 23
M  V30 23 2 23 24
M  V30 24 1 24 4
M  V30 25 1 12 7
M  V30 26 1 24 13
M  V30 27 1 22 20
M  V30 28 1 1 25
M  V30 29 1 1 26
M  V30 30 1 1 27
M  V30 31 1 2 28
M  V30 32 1 2 29
M  V30 33 1 3 30
M  V30 34 1 3 31
M  V30 35 1 8 32
M  V30 36 1 9 33
M  V30 37 1 10 34
M  V30 38 1 11 35
M  V30 39 1 17 36
M  V30 40 1 17 37
M  V30 41 1 19 38
M  V30 42 1 19 39
M  V30 43 1 19 40
M  V30 44 1 20 41
M  V30 45 1 21 42
M  V30 46 1 21 43
M  V30 47 1 22 44
M  V30 48 1 22 45
M  V30 END BOND
M  V30 END CTAB
M  END
>  <Dataset>  (327) 
ChEMBL_Kinases

>  <Ligand_Instance>  (327) 
nan

>  <PDB_ID>  (327) 
nan

>  <Standardized_SMILES>  (327) 
CCCn1c(=O)c2ccccc2n2c(=S)n(CN(C)C3CC3)nc12

>  <Name>  (327) 
nan

>  <Pocket>  (327) 
nan

>  <ATP_Site>  (327) 
nan

>  <Peripheral>  (327) 
nan

>  <Num_H_Atoms_ProtBoundConf>  (327) 
nan

>  <Num_Resolved_Atoms>  (327) 
nan

>  <Num_Not_Resolved_Atoms>  (327) 
nan

$$$$
CHEMBL4745137
     RDKit          3D

  0  0  0  0  0  0  0  0  0  0999 V3000
M  V30 BEGIN CTAB
M  V30 COUNTS 46 49 0 0 0
M  V30 BEGIN ATOM
M  V30 1 C 1.935387 -4.780773 -1.288785 0
M  V30 2 N 1.786610 -3.342950 -1.397352 0
M  V30 3 C 2.463849 -2.678010 -2.482058 0
M  V30 4 O 2.782005 -3.434718 -3.434351 0
M  V30 5 C 2.821869 -1.248721 -2.608912 0
M  V30 6 C 3.564261 -1.006872 -3.746471 0
M  V30 7 F 3.875628 -2.025900 -4.584117 0
M  V30 8 C 3.962527 0.292662 -3.980294 0
M  V30 9 C 3.671956 1.362908 -3.160186 0
M  V30 10 C 2.918464 1.108981 -2.008348 0
M  V30 11 F 2.589261 2.103113 -1.149389 0
M  V30 12 C 2.509652 -0.183585 -1.755040 0
M  V30 13 O 1.762526 -0.273228 -0.560892 0
M  V30 14 C 0.985555 -1.319279 -0.083823 0
M  V30 15 C 0.077880 -0.968458 0.891551 0
M  V30 16 C -0.801902 -1.818254 1.520564 0
M  V30 17 N -1.726931 -1.450456 2.520807 0
M  V30 18 C -2.048999 -0.215685 3.173866 0 CFG=1
M  V30 19 C -0.890628 0.403875 3.943336 0
M  V30 20 C -1.538145 1.411083 4.897422 0
M  V30 21 C -2.348850 2.430645 4.145116 0 CFG=2
M  V30 22 O -3.176106 3.053013 5.106956 0
M  V30 23 C -3.271435 1.861431 3.115281 0
M  V30 24 C -2.532467 0.871407 2.207835 0
M  V30 25 N -0.724366 -3.093589 1.105854 0
M  V30 26 C 0.125424 -3.525814 0.165041 0
M  V30 27 C 0.992943 -2.649800 -0.444815 0
M  V30 28 H 2.057397 -5.044893 -0.217140 0
M  V30 29 H 1.080409 -5.358975 -1.666377 0
M  V30 30 H 2.902637 -5.118547 -1.744995 0
M  V30 31 H 4.552003 0.432221 -4.900420 0
M  V30 32 H 4.011426 2.375855 -3.390059 0
M  V30 33 H 0.097861 0.070639 1.146451 0
M  V30 34 H -2.323640 -2.261207 2.877110 0
M  V30 35 H -2.859287 -0.366987 3.926068 0
M  V30 36 H -0.380497 -0.342493 4.583910 0
M  V30 37 H -0.175696 0.949620 3.306700 0
M  V30 38 H -2.179008 0.838291 5.568198 0
M  V30 39 H -0.711104 1.966884 5.381278 0
M  V30 40 H -1.727861 3.262497 3.744202 0
M  V30 41 H -2.652259 3.414103 5.853926 0
M  V30 42 H -3.683662 2.673308 2.518379 0
M  V30 43 H -4.044249 1.271574 3.636451 0
M  V30 44 H -1.723145 1.439027 1.753127 0
M  V30 45 H -3.241457 0.423831 1.509863 0
M  V30 46 H 0.122459 -4.554242 -0.107568 0
M  V30 END ATOM
M  V30 BEGIN BOND
M  V30 1 1 1 2
M  V30 2 1 2 3
M  V30 3 2 3 4
M  V30 4 1 3 5
M  V30 5 2 5 6
M  V30 6 1 6 7
M  V30 7 1 6 8
M  V30 8 2 8 9
M  V30 9 1 9 10
M  V30 10 1 10 11
M  V30 11 2 10 12
M  V30 12 1 12 13
M  V30 13 1 13 14
M  V30 14 2 14 15
M  V30 15 1 15 16
M  V30 16 1 16 17
M  V30 17 1 17 18
M  V30 18 1 18 19
M  V30 19 1 19 20
M  V30 20 1 20 21
M  V30 21 1 21 22
M  V30 22 1 21 23
M  V30 23 1 23 24
M  V30 24 2 16 25
M  V30 25 1 25 26
M  V30 26 2 26 27
M  V30 27 1 27 2
M  V30 28 1 12 5
M  V30 29 1 27 14
M  V30 30 1 24 18
M  V30 31 1 1 28
M  V30 32 1 1 29
M  V30 33 1 1 30
M  V30 34 1 8 31
M  V30 35 1 9 32
M  V30 36 1 15 33
M  V30 37 1 17 34
M  V30 38 1 18 35 CFG=1
M  V30 39 1 19 36
M  V30 40 1 19 37
M  V30 41 1 20 38
M  V30 42 1 20 39
M  V30 43 1 21 40 CFG=3
M  V30 44 1 22 41
M  V30 45 1 23 42
M  V30 46 1 23 43
M  V30 47 1 24 44
M  V30 48 1 24 45
M  V30 49 1 26 46
M  V30 END BOND
M  V30 END CTAB
M  END
>  <Dataset>  (328) 
ChEMBL_Kinases

>  <Ligand_Instance>  (328) 
nan

>  <PDB_ID>  (328) 
nan

>  <Standardized_SMILES>  (328) 
CN1C(=O)c2c(F)ccc(F)c2Oc2cc(N[C@H]3CC[C@H](O)CC3)ncc21

>  <Name>  (328) 
nan

>  <Pocket>  (328) 
nan

>  <ATP_Site>  (328) 
nan

>  <Peripheral>  (328) 
nan

>  <Num_H_Atoms_ProtBoundConf>  (328) 
nan

>  <Num_Resolved_Atoms>  (328) 
nan

>  <Num_Not_Resolved_Atoms>  (328) 
nan

$$$$
CHEMBL4745216
     RDKit          3D

  0  0  0  0  0  0  0  0  0  0999 V3000
M  V30 BEGIN CTAB
M  V30 COUNTS 44 47 0 0 0
M  V30 BEGIN ATOM
M  V30 1 C 2.444525 -2.906528 0.747600 0
M  V30 2 C 2.280717 -2.439383 -0.663086 0
M  V30 3 C 1.567055 -3.134291 -1.606733 0
M  V30 4 C 1.457462 -2.650415 -2.879921 0
M  V30 5 C 2.042005 -1.481309 -3.253047 0
M  V30 6 C 2.772855 -0.730477 -2.358969 0
M  V30 7 C 3.480355 0.571097 -2.582418 0
M  V30 8 N 2.589704 1.683850 -2.317530 0
M  V30 9 C 1.948829 1.958324 -1.084051 0
M  V30 10 N 2.016250 3.000669 -0.216836 0
M  V30 11 C 1.260582 2.960647 0.917100 0
M  V30 12 N 1.353212 4.066261 1.795781 0
M  V30 13 N 0.441653 1.946465 1.241405 0
M  V30 14 N -0.363740 1.697110 2.261681 0
M  V30 15 C -0.961520 0.505758 2.080849 0
M  V30 16 C -1.919926 -0.317355 2.811879 0
M  V30 17 C -1.750724 -1.700143 2.892002 0
M  V30 18 C -2.633957 -2.506044 3.571155 0
M  V30 19 O -2.423462 -3.873926 3.621668 0
M  V30 20 C -3.719455 -1.922970 4.190722 0
M  V30 21 C -3.898260 -0.553081 4.118933 0
M  V30 22 O -5.002239 0.032670 4.750512 0
M  V30 23 C -3.002769 0.271181 3.429428 0
M  V30 24 N -0.489178 0.027502 0.900940 0
M  V30 25 C 0.380875 0.910336 0.370450 0
M  V30 26 N 1.126006 0.944433 -0.753660 0
M  V30 27 C 2.868932 -1.248861 -1.064398 0
M  V30 28 H 3.500925 -3.187181 0.969425 0
M  V30 29 H 1.817788 -3.806515 0.880214 0
M  V30 30 H 2.094946 -2.138005 1.437964 0
M  V30 31 H 1.100787 -4.080129 -1.288867 0
M  V30 32 H 0.891347 -3.218953 -3.593763 0
M  V30 33 H 1.989494 -1.054548 -4.237783 0
M  V30 34 H 3.736878 0.605821 -3.661943 0
M  V30 35 H 4.405792 0.574814 -2.015976 0
M  V30 36 H 2.271859 2.459128 -2.960825 0
M  V30 37 H 1.872856 3.976362 2.695039 0
M  V30 38 H 0.940965 5.022991 1.651674 0
M  V30 39 H -0.880697 -2.141076 2.392836 0
M  V30 40 H -2.955986 -4.483955 4.219137 0
M  V30 41 H -4.389934 -2.587799 4.715372 0
M  V30 42 H -5.177411 -0.357087 5.687252 0
M  V30 43 H -3.121952 1.346026 3.358026 0
M  V30 44 H 3.434443 -0.712232 -0.291647 0
M  V30 END ATOM
M  V30 BEGIN BOND
M  V30 1 1 1 2
M  V30 2 2 2 3
M  V30 3 1 3 4
M  V30 4 2 4 5
M  V30 5 1 5 6
M  V30 6 1 6 7
M  V30 7 1 7 8
M  V30 8 1 8 9
M  V30 9 1 9 10
M  V30 10 2 10 11
M  V30 11 1 11 12
M  V30 12 1 11 13
M  V30 13 1 13 14
M  V30 14 2 14 15
M  V30 15 1 15 16
M  V30 16 2 16 17
M  V30 17 1 17 18
M  V30 18 1 18 19
M  V30 19 2 18 20
M  V30 20 1 20 21
M  V30 21 1 21 22
M  V30 22 2 21 23
M  V30 23 1 15 24
M  V30 24 2 24 25
M  V30 25 1 25 26
M  V30 26 2 6 27
M  V30 27 1 27 2
M  V30 28 2 26 9
M  V30 29 1 25 13
M  V30 30 1 23 16
M  V30 31 1 1 28
M  V30 32 1 1 29
M  V30 33 1 1 30
M  V30 34 1 3 31
M  V30 35 1 4 32
M  V30 36 1 5 33
M  V30 37 1 7 34
M  V30 38 1 7 35
M  V30 39 1 8 36
M  V30 40 1 12 37
M  V30 41 1 12 38
M  V30 42 1 17 39
M  V30 43 1 19 40
M  V30 44 1 20 41
M  V30 45 1 22 42
M  V30 46 1 23 43
M  V30 47 1 27 44
M  V30 END BOND
M  V30 END CTAB
M  END
>  <Dataset>  (329) 
ChEMBL_Kinases

>  <Ligand_Instance>  (329) 
nan

>  <PDB_ID>  (329) 
nan

>  <Standardized_SMILES>  (329) 
Cc1cccc(CNc2nc(N)n3nc(-c4cc(O)cc(O)c4)nc3n2)c1

>  <Name>  (329) 
nan

>  <Pocket>  (329) 
nan

>  <ATP_Site>  (329) 
nan

>  <Peripheral>  (329) 
nan

>  <Num_H_Atoms_ProtBoundConf>  (329) 
nan

>  <Num_Resolved_Atoms>  (329) 
nan

>  <Num_Not_Resolved_Atoms>  (329) 
nan

$$$$
CHEMBL4745295
     RDKit          3D

  0  0  0  0  0  0  0  0  0  0999 V3000
M  V30 BEGIN CTAB
M  V30 COUNTS 42 45 0 0 0
M  V30 BEGIN ATOM
M  V30 1 C 1.979059 -4.760197 1.541119 0
M  V30 2 N 1.799234 -3.645812 2.416595 0
M  V30 3 C 0.505315 -3.697516 3.013765 0
M  V30 4 C -0.163307 -2.371986 2.737695 0
M  V30 5 C 1.072507 -1.469922 2.603356 0
M  V30 6 C 1.927812 -2.344140 1.729860 0
M  V30 7 C 1.529495 -2.493917 0.321894 0
M  V30 8 C 1.593322 -1.400126 -0.635583 0
M  V30 9 N 0.899035 -0.192418 -0.489604 0
M  V30 10 C 1.375215 0.967066 0.062915 0
M  V30 11 O 2.572179 0.931201 0.483072 0
M  V30 12 C 0.694930 2.156885 0.208074 0
M  V30 13 C 1.314056 3.231895 0.784444 0
M  V30 14 C 0.518387 4.356790 0.866650 0
M  V30 15 F 1.072500 5.479992 1.435377 0
M  V30 16 C -0.790712 4.451873 0.425473 0
M  V30 17 C -1.338399 3.305954 -0.148394 0
M  V30 18 C -0.599676 2.154614 -0.259838 0
M  V30 19 N -1.111033 1.050845 -0.806755 0
M  V30 20 C -2.304346 0.820851 -1.312877 0
M  V30 21 S -3.649890 1.711200 -1.506114 0
M  V30 22 N -2.307676 -0.453972 -1.732626 0
M  V30 23 N -1.143945 -1.034275 -1.503219 0
M  V30 24 C -0.378353 -0.071106 -0.910726 0
M  V30 25 H 2.986867 -4.795012 1.071376 0
M  V30 26 H 1.148708 -4.933985 0.824721 0
M  V30 27 H 1.960451 -5.668290 2.203334 0
M  V30 28 H -0.144962 -4.491496 2.547769 0
M  V30 29 H 0.552425 -3.864306 4.129005 0
M  V30 30 H -0.712960 -2.454423 1.784848 0
M  V30 31 H -0.807169 -2.027928 3.569530 0
M  V30 32 H 0.849168 -0.481904 2.308024 0
M  V30 33 H 1.514788 -1.443353 3.631264 0
M  V30 34 H 2.978492 -2.040610 1.844051 0
M  V30 35 H 0.541744 -3.061626 0.298295 0
M  V30 36 H 2.222691 -3.308492 -0.094192 0
M  V30 37 H 2.704907 -1.123877 -0.732207 0
M  V30 38 H 1.404840 -1.786182 -1.700490 0
M  V30 39 H 2.324142 3.213551 1.142923 0
M  V30 40 H -1.319167 5.392566 0.543632 0
M  V30 41 H -2.350309 3.442463 -0.468726 0
M  V30 42 H -3.055469 -1.043421 -2.195999 0
M  V30 END ATOM
M  V30 BEGIN BOND
M  V30 1 1 1 2
M  V30 2 1 2 3
M  V30 3 1 3 4
M  V30 4 1 4 5
M  V30 5 1 5 6
M  V30 6 1 6 7
M  V30 7 1 7 8
M  V30 8 1 8 9
M  V30 9 1 9 10
M  V30 10 2 10 11
M  V30 11 1 10 12
M  V30 12 2 12 13
M  V30 13 1 13 14
M  V30 14 1 14 15
M  V30 15 2 14 16
M  V30 16 1 16 17
M  V30 17 2 17 18
M  V30 18 1 18 19
M  V30 19 1 19 20
M  V30 20 2 20 21
M  V30 21 1 20 22
M  V30 22 1 22 23
M  V30 23 2 23 24
M  V30 24 1 6 2
M  V30 25 1 24 9
M  V30 26 1 18 12
M  V30 27 1 24 19
M  V30 28 1 1 25
M  V30 29 1 1 26
M  V30 30 1 1 27
M  V30 31 1 3 28
M  V30 32 1 3 29
M  V30 33 1 4 30
M  V30 34 1 4 31
M  V30 35 1 5 32
M  V30 36 1 5 33
M  V30 37 1 6 34
M  V30 38 1 7 35
M  V30 39 1 7 36
M  V30 40 1 8 37
M  V30 41 1 8 38
M  V30 42 1 13 39
M  V30 43 1 16 40
M  V30 44 1 17 41
M  V30 45 1 22 42
M  V30 END BOND
M  V30 END CTAB
M  END
>  <Dataset>  (330) 
ChEMBL_Kinases

>  <Ligand_Instance>  (330) 
nan

>  <PDB_ID>  (330) 
nan

>  <Standardized_SMILES>  (330) 
CN1CCCC1CCn1c(=O)c2cc(F)ccc2n2c(=S)[nH]nc12

>  <Name>  (330) 
nan

>  <Pocket>  (330) 
nan

>  <ATP_Site>  (330) 
nan

>  <Peripheral>  (330) 
nan

>  <Num_H_Atoms_ProtBoundConf>  (330) 
nan

>  <Num_Resolved_Atoms>  (330) 
nan

>  <Num_Not_Resolved_Atoms>  (330) 
nan

$$$$
CHEMBL4745330
     RDKit          3D

  0  0  0  0  0  0  0  0  0  0999 V3000
M  V30 BEGIN CTAB
M  V30 COUNTS 67 71 0 0 0
M  V30 BEGIN ATOM
M  V30 1 C 7.077391 -1.687564 6.383441 0
M  V30 2 O 6.760879 -0.702400 5.408174 0
M  V30 3 C 5.581684 -0.765867 4.673520 0
M  V30 4 C 4.629920 -1.775543 4.825238 0
M  V30 5 C 3.468619 -1.815876 4.084071 0
M  V30 6 C 3.211851 -0.828321 3.145717 0
M  V30 7 C 4.147624 0.182089 2.983368 0
M  V30 8 N 3.895063 1.131334 2.072371 0
M  V30 9 C 4.682434 2.168867 1.784052 0
M  V30 10 N 4.453317 3.184546 0.822560 0
M  V30 11 C 3.323687 3.300565 -0.026129 0
M  V30 12 C 3.338739 4.218654 -1.074615 0
M  V30 13 C 2.308210 4.410861 -1.945671 0
M  V30 14 C 1.165820 3.660042 -1.799799 0
M  V30 15 C 1.091334 2.740678 -0.786814 0
M  V30 16 N -0.098014 1.970104 -0.656764 0
M  V30 17 C -0.296636 0.695946 -1.254104 0
M  V30 18 O 0.674779 0.266389 -1.927857 0
M  V30 19 C -1.524406 -0.080337 -1.115599 0
M  V30 20 C -1.519905 -1.328291 -1.742524 0
M  V30 21 C -2.691573 -2.087904 -1.620364 0
M  V30 22 C -3.784420 -1.586866 -0.900574 0
M  V30 23 N -4.843128 -2.534453 -0.930016 0
M  V30 24 C -6.204259 -2.695544 -1.424594 0
M  V30 25 C -6.307075 -3.801868 -2.465505 0
M  V30 26 N -5.104456 -4.611522 -2.503679 0
M  V30 27 C -5.386208 -5.796525 -3.283871 0
M  V30 28 C -4.753786 -4.991608 -1.143750 0
M  V30 29 C -4.562519 -3.811596 -0.251533 0
M  V30 30 C -3.720904 -0.349005 -0.307911 0
M  V30 31 C -4.948153 0.043491 0.418426 0
M  V30 32 F -5.251889 -0.843050 1.428883 0
M  V30 33 F -6.004743 0.371520 -0.383778 0
M  V30 34 F -4.605274 1.233766 1.081343 0
M  V30 35 C -2.587796 0.428196 -0.404751 0
M  V30 36 C 2.157611 2.586497 0.062539 0
M  V30 37 C 5.834048 2.187915 2.536323 0
M  V30 38 C 6.168435 1.258105 3.486639 0
M  V30 39 C 5.306735 0.210493 3.732137 0
M  V30 40 H 8.205016 -1.725521 6.388589 0
M  V30 41 H 6.749404 -1.419773 7.395528 0
M  V30 42 H 6.777743 -2.715445 6.065911 0
M  V30 43 H 4.815355 -2.549456 5.550267 0
M  V30 44 H 2.743821 -2.625734 4.232347 0
M  V30 45 H 2.310433 -0.808123 2.530781 0
M  V30 46 H 5.184770 3.923692 0.726227 0
M  V30 47 H 4.213573 4.841009 -1.238769 0
M  V30 48 H 2.359614 5.133038 -2.744459 0
M  V30 49 H 0.319013 3.791171 -2.485207 0
M  V30 50 H -0.850597 2.401763 -0.079259 0
M  V30 51 H -0.661205 -1.677654 -2.284135 0
M  V30 52 H -2.626574 -3.048411 -2.130527 0
M  V30 53 H -6.923159 -2.851029 -0.593019 0
M  V30 54 H -6.504719 -1.757494 -1.934206 0
M  V30 55 H -7.207765 -4.420870 -2.334661 0
M  V30 56 H -6.378995 -3.350321 -3.498332 0
M  V30 57 H -5.256194 -6.727718 -2.692034 0
M  V30 58 H -6.417635 -5.752755 -3.668943 0
M  V30 59 H -4.723557 -5.812527 -4.194420 0
M  V30 60 H -5.584734 -5.659137 -0.807996 0
M  V30 61 H -3.856890 -5.666249 -1.208606 0
M  V30 62 H -3.568893 -3.844962 0.202712 0
M  V30 63 H -5.294110 -3.919535 0.600390 0
M  V30 64 H -2.590959 1.384977 0.075091 0
M  V30 65 H 2.048130 1.854700 0.841742 0
M  V30 66 H 6.560147 3.002829 2.379664 0
M  V30 67 H 7.086693 1.343397 4.031498 0
M  V30 END ATOM
M  V30 BEGIN BOND
M  V30 1 1 1 2
M  V30 2 1 2 3
M  V30 3 2 3 4
M  V30 4 1 4 5
M  V30 5 2 5 6
M  V30 6 1 6 7
M  V30 7 2 7 8
M  V30 8 1 8 9
M  V30 9 1 9 10
M  V30 10 1 10 11
M  V30 11 2 11 12
M  V30 12 1 12 13
M  V30 13 2 13 14
M  V30 14 1 14 15
M  V30 15 1 15 16
M  V30 16 1 16 17
M  V30 17 2 17 18
M  V30 18 1 17 19
M  V30 19 2 19 20
M  V30 20 1 20 21
M  V30 21 2 21 22
M  V30 22 1 22 23
M  V30 23 1 23 24
M  V30 24 1 24 25
M  V30 25 1 25 26
M  V30 26 1 26 27
M  V30 27 1 26 28
M  V30 28 1 28 29
M  V30 29 1 22 30
M  V30 30 1 30 31
M  V30 31 1 31 32
M  V30 32 1 31 33
M  V30 33 1 31 34
M  V30 34 2 30 35
M  V30 35 2 15 36
M  V30 36 2 9 37
M  V30 37 1 37 38
M  V30 38 2 38 39
M  V30 39 1 39 3
M  V30 40 1 39 7
M  V30 41 1 36 11
M  V30 42 1 35 19
M  V30 43 1 29 23
M  V30 44 1 1 40
M  V30 45 1 1 41
M  V30 46 1 1 42
M  V30 47 1 4 43
M  V30 48 1 5 44
M  V30 49 1 6 45
M  V30 50 1 10 46
M  V30 51 1 12 47
M  V30 52 1 13 48
M  V30 53 1 14 49
M  V30 54 1 16 50
M  V30 55 1 20 51
M  V30 56 1 21 52
M  V30 57 1 24 53
M  V30 58 1 24 54
M  V30 59 1 25 55
M  V30 60 1 25 56
M  V30 61 1 27 57
M  V30 62 1 27 58
M  V30 63 1 27 59
M  V30 64 1 28 60
M  V30 65 1 28 61
M  V30 66 1 29 62
M  V30 67 1 29 63
M  V30 68 1 35 64
M  V30 69 1 36 65
M  V30 70 1 37 66
M  V30 71 1 38 67
M  V30 END BOND
M  V30 END CTAB
M  END
>  <Dataset>  (331) 
ChEMBL_Kinases

>  <Ligand_Instance>  (331) 
nan

>  <PDB_ID>  (331) 
nan

>  <Standardized_SMILES>  (331) 
COc1cccc2nc(Nc3cccc(NC(=O)c4ccc(N5CCN(C)CC5)c(C(F)(F)F)c4)c3)ccc12

>  <Name>  (331) 
nan

>  <Pocket>  (331) 
nan

>  <ATP_Site>  (331) 
nan

>  <Peripheral>  (331) 
nan

>  <Num_H_Atoms_ProtBoundConf>  (331) 
nan

>  <Num_Resolved_Atoms>  (331) 
nan

>  <Num_Not_Resolved_Atoms>  (331) 
nan

$$$$
CHEMBL4745372
     RDKit          3D

  0  0  0  0  0  0  0  0  0  0999 V3000
M  V30 BEGIN CTAB
M  V30 COUNTS 31 33 0 0 0
M  V30 BEGIN ATOM
M  V30 1 O -0.658257 -1.844078 2.623736 0
M  V30 2 C -0.171502 -0.969830 1.869552 0
M  V30 3 C 0.683432 0.013973 2.323609 0
M  V30 4 C 1.004272 0.016950 3.674650 0
M  V30 5 C 1.865070 1.014541 4.109096 0
M  V30 6 F 2.173792 1.011647 5.427643 0
M  V30 7 C 2.417504 1.996650 3.285736 0
M  V30 8 C 2.058011 1.942761 1.934899 0
M  V30 9 C 1.209157 0.962046 1.496696 0
M  V30 10 N 0.873716 0.917413 0.217982 0
M  V30 11 C 1.206748 1.679671 -0.827057 0
M  V30 12 S 2.152583 2.976278 -0.995903 0
M  V30 13 N 0.586306 1.201971 -1.918236 0
M  V30 14 N -0.135024 0.135129 -1.537999 0
M  V30 15 C 0.041580 -0.042601 -0.216081 0
M  V30 16 N -0.499510 -0.996624 0.564864 0
M  V30 17 C -1.388970 -1.998005 0.021077 0
M  V30 18 C -0.628338 -3.226377 -0.450263 0
M  V30 19 C -1.594177 -4.260651 -1.016911 0
M  V30 20 O -2.304616 -3.751871 -2.098153 0
M  V30 21 H 0.616986 -0.709959 4.375642 0
M  V30 22 H 3.083055 2.731320 3.739838 0
M  V30 23 H 2.520392 2.726457 1.369287 0
M  V30 24 H 0.546462 1.464790 -2.934539 0
M  V30 25 H -2.131956 -2.308072 0.784446 0
M  V30 26 H -1.974702 -1.638668 -0.835745 0
M  V30 27 H 0.168942 -2.974158 -1.146421 0
M  V30 28 H -0.158535 -3.718830 0.444477 0
M  V30 29 H -2.320187 -4.528741 -0.236365 0
M  V30 30 H -1.008221 -5.142766 -1.312814 0
M  V30 31 H -3.079377 -3.204680 -1.821281 0
M  V30 END ATOM
M  V30 BEGIN BOND
M  V30 1 2 1 2
M  V30 2 1 2 3
M  V30 3 2 3 4
M  V30 4 1 4 5
M  V30 5 1 5 6
M  V30 6 2 5 7
M  V30 7 1 7 8
M  V30 8 2 8 9
M  V30 9 1 9 10
M  V30 10 1 10 11
M  V30 11 2 11 12
M  V30 12 1 11 13
M  V30 13 1 13 14
M  V30 14 2 14 15
M  V30 15 1 15 16
M  V30 16 1 16 17
M  V30 17 1 17 18
M  V30 18 1 18 19
M  V30 19 1 19 20
M  V30 20 1 16 2
M  V30 21 1 9 3
M  V30 22 1 15 10
M  V30 23 1 4 21
M  V30 24 1 7 22
M  V30 25 1 8 23
M  V30 26 1 13 24
M  V30 27 1 17 25
M  V30 28 1 17 26
M  V30 29 1 18 27
M  V30 30 1 18 28
M  V30 31 1 19 29
M  V30 32 1 19 30
M  V30 33 1 20 31
M  V30 END BOND
M  V30 END CTAB
M  END
>  <Dataset>  (332) 
ChEMBL_Kinases

>  <Ligand_Instance>  (332) 
nan

>  <PDB_ID>  (332) 
nan

>  <Standardized_SMILES>  (332) 
O=c1c2cc(F)ccc2n2c(=S)[nH]nc2n1CCCO

>  <Name>  (332) 
nan

>  <Pocket>  (332) 
nan

>  <ATP_Site>  (332) 
nan

>  <Peripheral>  (332) 
nan

>  <Num_H_Atoms_ProtBoundConf>  (332) 
nan

>  <Num_Resolved_Atoms>  (332) 
nan

>  <Num_Not_Resolved_Atoms>  (332) 
nan

$$$$
CHEMBL4745398
     RDKit          3D

  0  0  0  0  0  0  0  0  0  0999 V3000
M  V30 BEGIN CTAB
M  V30 COUNTS 65 68 0 0 0
M  V30 BEGIN ATOM
M  V30 1 C 3.317179 0.829605 3.357379 0
M  V30 2 C 3.513542 -0.598796 2.882969 0
M  V30 3 C 2.170297 -1.241439 2.602643 0
M  V30 4 N 4.405428 -0.631949 1.740364 0
M  V30 5 C 4.187677 -0.022787 0.471335 0
M  V30 6 C 5.114564 -0.093657 -0.574126 0
M  V30 7 C 4.846925 0.508562 -1.783304 0
M  V30 8 C 3.679764 1.198303 -2.026649 0
M  V30 9 C 2.743724 1.289402 -1.022511 0
M  V30 10 C 1.475201 1.991258 -1.181646 0
M  V30 11 C 1.085512 2.611982 -2.344124 0
M  V30 12 C -0.136976 3.256124 -2.457330 0
M  V30 13 N -1.004669 3.297460 -1.409391 0
M  V30 14 C -0.597029 2.681888 -0.280463 0
M  V30 15 N -1.538635 2.720438 0.804497 0
M  V30 16 C -2.268350 1.533910 1.091938 0
M  V30 17 C -3.325205 1.468707 2.004707 0
M  V30 18 C -3.970611 0.272143 2.241591 0
M  V30 19 C -3.603680 -0.890684 1.596162 0
M  V30 20 C -2.553872 -0.896286 0.669888 0
M  V30 21 C -1.955972 0.341242 0.486309 0
M  V30 22 N -2.143381 -2.094952 -0.011406 0
M  V30 23 C -1.528271 -1.868231 -1.290209 0
M  V30 24 C -0.109363 -2.304817 -1.377760 0
M  V30 25 C -2.303831 -2.696282 -2.316163 0
M  V30 26 C -2.410446 -3.284082 0.709192 0 CFG=2
M  V30 27 C -2.142405 -4.601907 0.130947 0
M  V30 28 C -3.843293 -3.269216 1.170180 0
M  V30 29 O -4.723171 -4.182031 0.995252 0
M  V30 30 N -4.313581 -2.110134 1.894957 0
M  V30 31 C -5.399024 -2.128123 2.844094 0
M  V30 32 N 0.594003 2.048116 -0.153419 0
M  V30 33 C 3.036531 0.677944 0.177465 0
M  V30 34 H 2.244144 1.051327 3.504326 0
M  V30 35 H 3.792832 1.497647 2.628304 0
M  V30 36 H 3.784826 0.904381 4.366778 0
M  V30 37 H 3.997328 -1.221017 3.687040 0
M  V30 38 H 2.164216 -1.551421 1.539878 0
M  V30 39 H 1.996751 -2.120800 3.255478 0
M  V30 40 H 1.317576 -0.508781 2.726213 0
M  V30 41 H 5.334938 -1.152650 1.802142 0
M  V30 42 H 6.045263 -0.644773 -0.380081 0
M  V30 43 H 5.646823 0.386663 -2.529965 0
M  V30 44 H 3.512162 1.650275 -2.980491 0
M  V30 45 H 1.740975 2.606579 -3.204067 0
M  V30 46 H -0.422577 3.738590 -3.385169 0
M  V30 47 H -1.734280 3.554661 1.406783 0
M  V30 48 H -3.582320 2.406880 2.492096 0
M  V30 49 H -4.783150 0.294680 2.964243 0
M  V30 50 H -1.130677 0.391842 -0.219000 0
M  V30 51 H -1.621294 -0.873910 -1.678454 0
M  V30 52 H 0.052234 -3.189185 -2.053449 0
M  V30 53 H 0.376241 -2.444232 -0.383234 0
M  V30 54 H 0.509198 -1.510512 -1.859810 0
M  V30 55 H -3.372566 -2.383831 -2.291875 0
M  V30 56 H -1.865666 -2.370717 -3.309904 0
M  V30 57 H -2.137847 -3.762310 -2.258038 0
M  V30 58 H -1.815100 -3.236814 1.672372 0
M  V30 59 H -2.095607 -5.330972 1.002715 0
M  V30 60 H -2.988280 -5.064235 -0.461847 0
M  V30 61 H -1.155588 -4.754610 -0.338996 0
M  V30 62 H -5.503657 -3.187452 3.215994 0
M  V30 63 H -6.354622 -1.825648 2.324235 0
M  V30 64 H -5.216053 -1.531807 3.759627 0
M  V30 65 H 2.284129 0.762633 0.947578 0
M  V30 END ATOM
M  V30 BEGIN BOND
M  V30 1 1 1 2
M  V30 2 1 2 3
M  V30 3 1 2 4
M  V30 4 1 4 5
M  V30 5 2 5 6
M  V30 6 1 6 7
M  V30 7 2 7 8
M  V30 8 1 8 9
M  V30 9 1 9 10
M  V30 10 2 10 11
M  V30 11 1 11 12
M  V30 12 2 12 13
M  V30 13 1 13 14
M  V30 14 1 14 15
M  V30 15 1 15 16
M  V30 16 2 16 17
M  V30 17 1 17 18
M  V30 18 2 18 19
M  V30 19 1 19 20
M  V30 20 2 20 21
M  V30 21 1 20 22
M  V30 22 1 22 23
M  V30 23 1 23 24
M  V30 24 1 23 25
M  V30 25 1 22 26
M  V30 26 1 26 27
M  V30 27 1 26 28
M  V30 28 2 28 29
M  V30 29 1 28 30
M  V30 30 1 30 31
M  V30 31 2 14 32
M  V30 32 2 9 33
M  V30 33 1 33 5
M  V30 34 1 32 10
M  V30 35 1 21 16
M  V30 36 1 30 19
M  V30 37 1 1 34
M  V30 38 1 1 35
M  V30 39 1 1 36
M  V30 40 1 2 37
M  V30 41 1 3 38
M  V30 42 1 3 39
M  V30 43 1 3 40
M  V30 44 1 4 41
M  V30 45 1 6 42
M  V30 46 1 7 43
M  V30 47 1 8 44
M  V30 48 1 11 45
M  V30 49 1 12 46
M  V30 50 1 15 47
M  V30 51 1 17 48
M  V30 52 1 18 49
M  V30 53 1 21 50
M  V30 54 1 23 51
M  V30 55 1 24 52
M  V30 56 1 24 53
M  V30 57 1 24 54
M  V30 58 1 25 55
M  V30 59 1 25 56
M  V30 60 1 25 57
M  V30 61 1 26 58 CFG=1
M  V30 62 1 27 59
M  V30 63 1 27 60
M  V30 64 1 27 61
M  V30 65 1 31 62
M  V30 66 1 31 63
M  V30 67 1 31 64
M  V30 68 1 33 65
M  V30 END BOND
M  V30 END CTAB
M  END
>  <Dataset>  (333) 
ChEMBL_Kinases

>  <Ligand_Instance>  (333) 
nan

>  <PDB_ID>  (333) 
nan

>  <Standardized_SMILES>  (333) 
CC(C)Nc1cccc(-c2ccnc(Nc3ccc4c(c3)N(C(C)C)[C@H](C)C(=O)N4C)n2)c1

>  <Name>  (333) 
nan

>  <Pocket>  (333) 
nan

>  <ATP_Site>  (333) 
nan

>  <Peripheral>  (333) 
nan

>  <Num_H_Atoms_ProtBoundConf>  (333) 
nan

>  <Num_Resolved_Atoms>  (333) 
nan

>  <Num_Not_Resolved_Atoms>  (333) 
nan

$$$$
CHEMBL4457403
     RDKit          3D

  0  0  0  0  0  0  0  0  0  0999 V3000
M  V30 BEGIN CTAB
M  V30 COUNTS 40 43 0 0 0
M  V30 BEGIN ATOM
M  V30 1 O -0.161824 -2.234969 0.761090 0
M  V30 2 C -1.101894 -2.571118 0.015974 0
M  V30 3 N 0.191015 -2.378844 -0.520773 0
M  V30 4 C 1.553566 -1.974854 -0.231587 0
M  V30 5 C 2.606363 -2.671601 0.277747 0
M  V30 6 C 3.718140 -1.916892 0.445097 0
M  V30 7 C 3.729792 -0.587052 0.115260 0
M  V30 8 C 2.671950 0.127907 -0.403873 0
M  V30 9 N 1.603316 -0.662567 -0.545750 0
M  V30 10 C 2.721521 1.545416 -0.774749 0
M  V30 11 N 3.888258 1.860523 -1.417305 0
M  V30 12 N 3.922134 3.127541 -1.760052 0
M  V30 13 C 2.753744 3.615685 -1.323545 0
M  V30 14 N 1.988532 2.655635 -0.708303 0
M  V30 15 C 0.709069 3.275039 -0.281970 0
M  V30 16 C 0.033292 2.184617 0.496922 0
M  V30 17 C -0.529211 1.714171 1.619563 0
M  V30 18 C -1.032599 0.341614 1.642165 0
M  V30 19 O -2.332437 -0.028192 1.887463 0
M  V30 20 C -2.458461 -1.474777 1.922368 0
M  V30 21 C -3.287453 -1.756492 2.977649 0
M  V30 22 Br -4.110553 -0.494214 4.140264 0
M  V30 23 C -3.604913 -3.057906 3.291908 0
M  V30 24 C -3.145286 -4.160204 2.612728 0
M  V30 25 C -2.316285 -3.807251 1.561621 0
M  V30 26 C -1.944912 -2.550940 1.170099 0
M  V30 27 H 0.428238 -2.636861 -1.498588 0
M  V30 28 H 2.182538 -3.637587 0.370650 0
M  V30 29 H 4.525250 -2.494385 0.850372 0
M  V30 30 H 4.673900 -0.053222 0.285735 0
M  V30 31 H 2.786011 4.681307 -1.613306 0
M  V30 32 H 0.066814 3.563600 -1.101247 0
M  V30 33 H 0.873537 4.162703 0.367203 0
M  V30 34 H -0.039744 1.422341 -0.306674 0
M  V30 35 H -0.616817 2.341751 2.517725 0
M  V30 36 H -0.875256 -0.044944 0.573261 0
M  V30 37 H -0.379636 -0.185426 2.379156 0
M  V30 38 H -4.260088 -3.356262 4.121905 0
M  V30 39 H -3.385072 -5.178160 2.848878 0
M  V30 40 H -1.841060 -4.553575 0.940747 0
M  V30 END ATOM
M  V30 BEGIN BOND
M  V30 1 2 1 2
M  V30 2 1 2 3
M  V30 3 1 3 4
M  V30 4 1 4 5
M  V30 5 2 5 6
M  V30 6 1 6 7
M  V30 7 2 7 8
M  V30 8 1 8 9
M  V30 9 1 8 10
M  V30 10 2 10 11
M  V30 11 1 11 12
M  V30 12 2 12 13
M  V30 13 1 13 14
M  V30 14 1 14 15
M  V30 15 1 15 16
M  V30 16 2 16 17
M  V30 17 1 17 18
M  V30 18 1 18 19
M  V30 19 1 19 20
M  V30 20 2 20 21
M  V30 21 1 21 22
M  V30 22 1 21 23
M  V30 23 2 23 24
M  V30 24 1 24 25
M  V30 25 2 25 26
M  V30 26 1 26 2
M  V30 27 2 9 4
M  V30 28 1 14 10
M  V30 29 1 26 20
M  V30 30 1 3 27
M  V30 31 1 5 28
M  V30 32 1 6 29
M  V30 33 1 7 30
M  V30 34 1 13 31
M  V30 35 1 15 32
M  V30 36 1 15 33
M  V30 37 1 16 34
M  V30 38 1 17 35
M  V30 39 1 18 36
M  V30 40 1 18 37
M  V30 41 1 23 38
M  V30 42 1 24 39
M  V30 43 1 25 40
M  V30 END BOND
M  V30 END CTAB
M  END
>  <Dataset>  (334) 
ChEMBL_Kinases

>  <Ligand_Instance>  (334) 
nan

>  <PDB_ID>  (334) 
nan

>  <Standardized_SMILES>  (334) 
O=C1Nc2cccc(n2)-c2nncn2C/C=C/COc2c(Br)cccc21

>  <Name>  (334) 
nan

>  <Pocket>  (334) 
nan

>  <ATP_Site>  (334) 
nan

>  <Peripheral>  (334) 
nan

>  <Num_H_Atoms_ProtBoundConf>  (334) 
nan

>  <Num_Resolved_Atoms>  (334) 
nan

>  <Num_Not_Resolved_Atoms>  (334) 
nan

$$$$
CHEMBL4745471
     RDKit          3D

  0  0  0  0  0  0  0  0  0  0999 V3000
M  V30 BEGIN CTAB
M  V30 COUNTS 53 57 0 0 0
M  V30 BEGIN ATOM
M  V30 1 C 1.749424 -1.994123 6.359294 0
M  V30 2 C 2.823018 -1.611639 5.400739 0
M  V30 3 C 4.110935 -2.088800 5.625683 0
M  V30 4 C 5.162102 -1.785774 4.792059 0
M  V30 5 C 4.962790 -0.975262 3.675176 0
M  V30 6 C 3.680732 -0.516819 3.475676 0
M  V30 7 C 3.504260 0.330423 2.296124 0
M  V30 8 C 4.452295 1.183814 1.766738 0
M  V30 9 N 4.187316 1.921457 0.673254 0
M  V30 10 C 3.023545 1.892345 0.027759 0
M  V30 11 O 2.565890 2.509754 -1.026184 0
M  V30 12 C 1.326033 2.146190 -1.291260 0
M  V30 13 C 0.965465 1.218088 -0.322091 0
M  V30 14 C -0.335218 0.559587 -0.246269 0
M  V30 15 C -0.975328 0.465965 0.969870 0
M  V30 16 C -2.192591 -0.171115 0.944203 0
M  V30 17 C -2.656984 -0.648867 -0.261789 0
M  V30 18 C -3.955374 -1.282897 -0.188495 0
M  V30 19 O -4.619358 -1.412824 0.896198 0
M  V30 20 O -5.165473 -1.907139 -0.299965 0
M  V30 21 C -2.030235 -0.563634 -1.481772 0
M  V30 22 C -2.537635 -1.099722 -2.752624 0
M  V30 23 C -3.622772 -0.247345 -3.373788 0
M  V30 24 C -4.713221 -1.194607 -3.806336 0
M  V30 25 C -4.201991 -2.603414 -3.640802 0
M  V30 26 C -2.983265 -2.516446 -2.744553 0
M  V30 27 C -0.795563 0.083285 -1.454226 0
M  V30 28 C 2.048635 1.048102 0.529802 0
M  V30 29 C 2.263536 0.268559 1.647360 0
M  V30 30 C 2.614455 -0.809711 4.299905 0
M  V30 31 H 1.299009 -2.967736 6.053162 0
M  V30 32 H 2.153833 -2.115623 7.392530 0
M  V30 33 H 0.922372 -1.249644 6.329276 0
M  V30 34 H 4.309445 -2.720321 6.479795 0
M  V30 35 H 6.176278 -2.152404 4.955809 0
M  V30 36 H 5.804248 -0.752470 3.037268 0
M  V30 37 H 5.393293 1.185346 2.316519 0
M  V30 38 H 0.723974 2.526141 -2.127828 0
M  V30 39 H -0.569456 0.856154 1.881020 0
M  V30 40 H -2.735694 -0.270813 1.872465 0
M  V30 41 H -5.574138 -2.313599 -1.133613 0
M  V30 42 H -1.684927 -1.042007 -3.510786 0
M  V30 43 H -3.955109 0.445935 -2.561499 0
M  V30 44 H -3.263215 0.405703 -4.191338 0
M  V30 45 H -5.627809 -1.026716 -3.198748 0
M  V30 46 H -4.993784 -0.963091 -4.857962 0
M  V30 47 H -4.963965 -3.302046 -3.237753 0
M  V30 48 H -3.970949 -2.964862 -4.663925 0
M  V30 49 H -3.128864 -2.976158 -1.751317 0
M  V30 50 H -2.222383 -3.194229 -3.244212 0
M  V30 51 H -0.255042 0.183332 -2.375925 0
M  V30 52 H 1.480999 -0.374628 2.006008 0
M  V30 53 H 1.612529 -0.427675 4.108970 0
M  V30 END ATOM
M  V30 BEGIN BOND
M  V30 1 1 1 2
M  V30 2 2 2 3
M  V30 3 1 3 4
M  V30 4 2 4 5
M  V30 5 1 5 6
M  V30 6 1 6 7
M  V30 7 2 7 8
M  V30 8 1 8 9
M  V30 9 2 9 10
M  V30 10 1 10 11
M  V30 11 1 11 12
M  V30 12 2 12 13
M  V30 13 1 13 14
M  V30 14 2 14 15
M  V30 15 1 15 16
M  V30 16 2 16 17
M  V30 17 1 17 18
M  V30 18 2 18 19
M  V30 19 1 18 20
M  V30 20 1 17 21
M  V30 21 1 21 22
M  V30 22 1 22 23
M  V30 23 1 23 24
M  V30 24 1 24 25
M  V30 25 1 25 26
M  V30 26 2 21 27
M  V30 27 1 13 28
M  V30 28 2 28 29
M  V30 29 2 6 30
M  V30 30 1 30 2
M  V30 31 1 29 7
M  V30 32 1 28 10
M  V30 33 1 27 14
M  V30 34 1 26 22
M  V30 35 1 1 31
M  V30 36 1 1 32
M  V30 37 1 1 33
M  V30 38 1 3 34
M  V30 39 1 4 35
M  V30 40 1 5 36
M  V30 41 1 8 37
M  V30 42 1 12 38
M  V30 43 1 15 39
M  V30 44 1 16 40
M  V30 45 1 20 41
M  V30 46 1 22 42
M  V30 47 1 23 43
M  V30 48 1 23 44
M  V30 49 1 24 45
M  V30 50 1 24 46
M  V30 51 1 25 47
M  V30 52 1 25 48
M  V30 53 1 26 49
M  V30 54 1 26 50
M  V30 55 1 27 51
M  V30 56 1 29 52
M  V30 57 1 30 53
M  V30 END BOND
M  V30 END CTAB
M  END
>  <Dataset>  (335) 
ChEMBL_Kinases

>  <Ligand_Instance>  (335) 
nan

>  <PDB_ID>  (335) 
nan

>  <Standardized_SMILES>  (335) 
Cc1cccc(-c2cnc3occ(-c4ccc(C(=O)O)c(C5CCCC5)c4)c3c2)c1

>  <Name>  (335) 
nan

>  <Pocket>  (335) 
nan

>  <ATP_Site>  (335) 
nan

>  <Peripheral>  (335) 
nan

>  <Num_H_Atoms_ProtBoundConf>  (335) 
nan

>  <Num_Resolved_Atoms>  (335) 
nan

>  <Num_Not_Resolved_Atoms>  (335) 
nan

$$$$
CHEMBL4745474
     RDKit          3D

  0  0  0  0  0  0  0  0  0  0999 V3000
M  V30 BEGIN CTAB
M  V30 COUNTS 45 49 0 0 0
M  V30 BEGIN ATOM
M  V30 1 O -2.011303 -2.576719 -4.364357 0
M  V30 2 C -1.811979 -1.478164 -3.838930 0
M  V30 3 N -1.964873 -1.025909 -2.455236 0
M  V30 4 C -2.421725 -1.980638 -1.500878 0
M  V30 5 C -3.247557 -3.044788 -1.903011 0
M  V30 6 N -3.450424 -3.692826 -0.760105 0
M  V30 7 N -2.832162 -3.099917 0.196129 0
M  V30 8 C -2.154302 -2.006397 -0.186299 0
M  V30 9 C -1.387027 -1.225047 0.760110 0
M  V30 10 C -0.615668 -0.137460 0.422300 0
M  V30 11 C 0.136388 0.629335 1.296578 0
M  V30 12 C 0.892997 1.694877 0.960597 0
M  V30 13 C 1.649906 2.482162 1.774515 0
M  V30 14 C 1.592583 2.083030 3.102703 0
M  V30 15 C 0.841103 0.992645 3.557647 0
M  V30 16 C 0.099430 0.248112 2.654396 0
M  V30 17 C -0.668740 -0.830004 2.969615 0
M  V30 18 C -1.419859 -1.602312 2.120273 0
M  V30 19 O -2.182278 -2.687290 2.491519 0
M  V30 20 C -2.307294 -3.166671 3.801460 0
M  V30 21 F -1.679067 -4.427326 3.842031 0
M  V30 22 F -3.628938 -3.367529 4.156526 0
M  V30 23 C -1.331379 -0.309982 -4.624933 0
M  V30 24 C -1.876160 0.913497 -4.942097 0
M  V30 25 N -0.954465 1.544072 -5.683519 0
M  V30 26 N 0.138119 0.771772 -5.842924 0
M  V30 27 C 1.271343 1.110210 -6.549576 0
M  V30 28 C 2.179446 0.078323 -6.498955 0
M  V30 29 C 2.088422 -1.138128 -5.879133 0
M  V30 30 N 0.931412 -1.278977 -5.256169 0
M  V30 31 C -0.079296 -0.407128 -5.181524 0
M  V30 32 H -1.783361 -0.038859 -2.207361 0
M  V30 33 H -3.639954 -3.296879 -2.870724 0
M  V30 34 H -4.033141 -4.561432 -0.655873 0
M  V30 35 H -0.494415 0.228939 -0.571841 0
M  V30 36 H 0.916386 1.989094 -0.099810 0
M  V30 37 H 2.240495 3.316383 1.491551 0
M  V30 38 H 2.125470 2.576759 3.902412 0
M  V30 39 H 0.811246 0.700358 4.593382 0
M  V30 40 H -0.640487 -1.048613 4.026303 0
M  V30 41 H -1.772733 -2.566020 4.544641 0
M  V30 42 H -2.862052 1.125620 -4.567303 0
M  V30 43 H 1.338318 2.057322 -7.035865 0
M  V30 44 H 3.101564 0.303875 -7.047713 0
M  V30 45 H 2.873429 -1.873447 -5.911187 0
M  V30 END ATOM
M  V30 BEGIN BOND
M  V30 1 2 1 2
M  V30 2 1 2 3
M  V30 3 1 3 4
M  V30 4 2 4 5
M  V30 5 1 5 6
M  V30 6 1 6 7
M  V30 7 2 7 8
M  V30 8 1 8 9
M  V30 9 2 9 10
M  V30 10 1 10 11
M  V30 11 2 11 12
M  V30 12 1 12 13
M  V30 13 2 13 14
M  V30 14 1 14 15
M  V30 15 2 15 16
M  V30 16 1 16 17
M  V30 17 2 17 18
M  V30 18 1 18 19
M  V30 19 1 19 20
M  V30 20 1 20 21
M  V30 21 1 20 22
M  V30 22 1 2 23
M  V30 23 1 23 24
M  V30 24 2 24 25
M  V30 25 1 25 26
M  V30 26 1 26 27
M  V30 27 2 27 28
M  V30 28 1 28 29
M  V30 29 2 29 30
M  V30 30 1 30 31
M  V30 31 1 8 4
M  V30 32 1 18 9
M  V30 33 2 31 23
M  V30 34 1 16 11
M  V30 35 1 31 26
M  V30 36 1 3 32
M  V30 37 1 5 33
M  V30 38 1 6 34
M  V30 39 1 10 35
M  V30 40 1 12 36
M  V30 41 1 13 37
M  V30 42 1 14 38
M  V30 43 1 15 39
M  V30 44 1 17 40
M  V30 45 1 20 41
M  V30 46 1 24 42
M  V30 47 1 27 43
M  V30 48 1 28 44
M  V30 49 1 29 45
M  V30 END BOND
M  V30 END CTAB
M  END
>  <Dataset>  (336) 
ChEMBL_Kinases

>  <Ligand_Instance>  (336) 
nan

>  <PDB_ID>  (336) 
nan

>  <Standardized_SMILES>  (336) 
O=C(Nc1c[nH]nc1-c1cc2ccccc2cc1OC(F)F)c1cnn2cccnc12

>  <Name>  (336) 
nan

>  <Pocket>  (336) 
nan

>  <ATP_Site>  (336) 
nan

>  <Peripheral>  (336) 
nan

>  <Num_H_Atoms_ProtBoundConf>  (336) 
nan

>  <Num_Resolved_Atoms>  (336) 
nan

>  <Num_Not_Resolved_Atoms>  (336) 
nan

$$$$
CHEMBL4745491
     RDKit          3D

  0  0  0  0  0  0  0  0  0  0999 V3000
M  V30 BEGIN CTAB
M  V30 COUNTS 55 60 0 0 0
M  V30 BEGIN ATOM
M  V30 1 C -1.267358 -3.661732 -0.587202 0
M  V30 2 N -1.426800 -4.724728 0.332008 0
M  V30 3 C -1.508273 -4.337232 1.723598 0
M  V30 4 C -0.239107 -3.550835 2.085499 0
M  V30 5 N 0.808668 -4.123184 1.258911 0
M  V30 6 C 1.863016 -3.385621 0.654053 0
M  V30 7 C 1.930852 -2.024345 0.855522 0
M  V30 8 C 2.986288 -1.344138 0.238635 0
M  V30 9 C 3.176921 0.115196 0.371880 0
M  V30 10 N 4.354589 0.754626 0.622345 0
M  V30 11 N 4.143306 2.057539 0.674497 0
M  V30 12 C 2.839120 2.342467 0.465160 0
M  V30 13 C 2.081118 3.509455 0.412123 0
M  V30 14 C 0.706002 3.452654 0.166961 0
M  V30 15 C 0.089440 2.232709 -0.024827 0
M  V30 16 C -1.357174 2.095273 -0.287822 0
M  V30 17 C -1.895499 1.270215 -1.267289 0
M  V30 18 N -3.249649 1.420739 -1.195573 0
M  V30 19 N -3.561737 2.275205 -0.245259 0
M  V30 20 C -2.418887 2.696014 0.318269 0
M  V30 21 C -2.701088 3.655466 1.390373 0
M  V30 22 C -4.180988 3.472594 1.679574 0
M  V30 23 C -4.694325 2.906543 0.390669 0
M  V30 24 C 0.857086 1.066676 0.029971 0
M  V30 25 C 2.223925 1.107442 0.272605 0
M  V30 26 C 3.881019 -2.094978 -0.527218 0
M  V30 27 C 3.787342 -3.458646 -0.710930 0
M  V30 28 N 2.746240 -4.062098 -0.090098 0
M  V30 29 C 0.681569 -5.562944 1.099176 0
M  V30 30 C -0.485893 -5.808779 0.166151 0
M  V30 31 H -0.369337 -3.908476 -1.223273 0
M  V30 32 H -2.146216 -3.421098 -1.218414 0
M  V30 33 H -0.984786 -2.743015 -0.027187 0
M  V30 34 H -1.483906 -5.262195 2.334452 0
M  V30 35 H -2.408241 -3.735899 1.935323 0
M  V30 36 H -0.435744 -2.495713 1.919039 0
M  V30 37 H -0.007933 -3.757138 3.170886 0
M  V30 38 H 1.244433 -1.452070 1.442527 0
M  V30 39 H 4.809389 2.851618 0.845749 0
M  V30 40 H 2.576611 4.466156 0.564609 0
M  V30 41 H 0.105978 4.361766 0.124031 0
M  V30 42 H -1.382198 0.617564 -1.972906 0
M  V30 43 H -2.138803 3.408358 2.310418 0
M  V30 44 H -2.566945 4.724962 1.096854 0
M  V30 45 H -4.694657 4.436105 1.836044 0
M  V30 46 H -4.375777 2.827001 2.558960 0
M  V30 47 H -5.072259 3.693548 -0.305599 0
M  V30 48 H -5.490816 2.147057 0.638349 0
M  V30 49 H 0.360299 0.139056 -0.120875 0
M  V30 50 H 4.689654 -1.547946 -0.995209 0
M  V30 51 H 4.510318 -3.993345 -1.316600 0
M  V30 52 H 1.645356 -5.922367 0.683274 0
M  V30 53 H 0.484531 -6.058065 2.083423 0
M  V30 54 H -0.950142 -6.805112 0.364023 0
M  V30 55 H -0.143451 -5.803242 -0.892413 0
M  V30 END ATOM
M  V30 BEGIN BOND
M  V30 1 1 1 2
M  V30 2 1 2 3
M  V30 3 1 3 4
M  V30 4 1 4 5
M  V30 5 1 5 6
M  V30 6 2 6 7
M  V30 7 1 7 8
M  V30 8 1 8 9
M  V30 9 2 9 10
M  V30 10 1 10 11
M  V30 11 1 11 12
M  V30 12 2 12 13
M  V30 13 1 13 14
M  V30 14 2 14 15
M  V30 15 1 15 16
M  V30 16 1 16 17
M  V30 17 2 17 18
M  V30 18 1 18 19
M  V30 19 1 19 20
M  V30 20 1 20 21
M  V30 21 1 21 22
M  V30 22 1 22 23
M  V30 23 1 15 24
M  V30 24 2 24 25
M  V30 25 2 8 26
M  V30 26 1 26 27
M  V30 27 2 27 28
M  V30 28 1 5 29
M  V30 29 1 29 30
M  V30 30 1 30 2
M  V30 31 1 28 6
M  V30 32 1 25 9
M  V30 33 1 25 12
M  V30 34 2 20 16
M  V30 35 1 23 19
M  V30 36 1 1 31
M  V30 37 1 1 32
M  V30 38 1 1 33
M  V30 39 1 3 34
M  V30 40 1 3 35
M  V30 41 1 4 36
M  V30 42 1 4 37
M  V30 43 1 7 38
M  V30 44 1 11 39
M  V30 45 1 13 40
M  V30 46 1 14 41
M  V30 47 1 17 42
M  V30 48 1 21 43
M  V30 49 1 21 44
M  V30 50 1 22 45
M  V30 51 1 22 46
M  V30 52 1 23 47
M  V30 53 1 23 48
M  V30 54 1 24 49
M  V30 55 1 26 50
M  V30 56 1 27 51
M  V30 57 1 29 52
M  V30 58 1 29 53
M  V30 59 1 30 54
M  V30 60 1 30 55
M  V30 END BOND
M  V30 END CTAB
M  END
>  <Dataset>  (337) 
ChEMBL_Kinases

>  <Ligand_Instance>  (337) 
nan

>  <PDB_ID>  (337) 
nan

>  <Standardized_SMILES>  (337) 
CN1CCN(c2cc(-c3n[nH]c4ccc(-c5cnn6c5CCC6)cc34)ccn2)CC1

>  <Name>  (337) 
nan

>  <Pocket>  (337) 
nan

>  <ATP_Site>  (337) 
nan

>  <Peripheral>  (337) 
nan

>  <Num_H_Atoms_ProtBoundConf>  (337) 
nan

>  <Num_Resolved_Atoms>  (337) 
nan

>  <Num_Not_Resolved_Atoms>  (337) 
nan

$$$$
CHEMBL4745494
     RDKit          3D

  0  0  0  0  0  0  0  0  0  0999 V3000
M  V30 BEGIN CTAB
M  V30 COUNTS 50 54 0 0 0
M  V30 BEGIN ATOM
M  V30 1 C 0.290885 -0.252687 4.991003 0
M  V30 2 O 0.893112 0.402673 3.899014 0
M  V30 3 C 2.256648 0.385854 3.701189 0
M  V30 4 C 3.139066 -0.256293 4.530008 0
M  V30 5 C 4.491703 -0.225219 4.261383 0
M  V30 6 C 4.988379 0.446774 3.161459 0
M  V30 7 C 4.082953 1.095446 2.326512 0
M  V30 8 F 4.567407 1.758768 1.241718 0
M  V30 9 C 2.707647 1.075690 2.581700 0
M  V30 10 C 1.785762 1.770002 1.680279 0
M  V30 11 C 1.255996 1.086317 0.607617 0
M  V30 12 C 0.395617 1.849022 -0.174876 0
M  V30 13 C 0.070248 3.169154 0.057756 0
M  V30 14 C 0.647198 3.775077 1.154920 0
M  V30 15 N 1.485626 3.056050 1.929861 0
M  V30 16 C -0.807958 3.574769 -0.931991 0
M  V30 17 N -1.010158 2.505585 -1.755463 0
M  V30 18 N -0.285843 1.478237 -1.294084 0
M  V30 19 C -0.325588 0.227041 -1.989265 0
M  V30 20 C 0.237646 -0.008028 -3.226193 0
M  V30 21 C 0.121522 -1.271572 -3.780895 0
M  V30 22 C -0.540280 -2.289966 -3.126485 0
M  V30 23 C -1.097667 -2.020917 -1.879923 0
M  V30 24 N -1.815598 -2.980527 -1.080408 0
M  V30 25 C -2.381729 -2.637989 0.228078 0
M  V30 26 C -3.821561 -3.035051 0.244445 0
M  V30 27 O -4.079138 -4.183923 -0.497706 0
M  V30 28 C -2.956985 -5.008113 -0.579199 0
M  V30 29 C -1.997931 -4.336610 -1.563481 0
M  V30 30 N -0.969059 -0.782515 -1.364936 0
M  V30 31 H -0.815278 -0.287571 4.817157 0
M  V30 32 H 0.707043 -1.276785 5.088495 0
M  V30 33 H 0.446549 0.306693 5.930031 0
M  V30 34 H 2.718669 -0.779291 5.391580 0
M  V30 35 H 5.191070 -0.737196 4.922875 0
M  V30 36 H 6.022287 0.499530 2.912169 0
M  V30 37 H 1.469538 0.064521 0.375322 0
M  V30 38 H 0.387830 4.815452 1.334229 0
M  V30 39 H -1.199997 4.579099 -0.952066 0
M  V30 40 H 0.744509 0.818697 -3.698556 0
M  V30 41 H 0.561387 -1.463719 -4.752184 0
M  V30 42 H -0.659745 -3.282694 -3.507564 0
M  V30 43 H -1.789786 -3.088432 1.048615 0
M  V30 44 H -2.307571 -1.549427 0.351036 0
M  V30 45 H -4.428427 -2.172568 -0.092108 0
M  V30 46 H -4.117650 -3.264463 1.307696 0
M  V30 47 H -2.510763 -5.040746 0.435982 0
M  V30 48 H -3.289892 -5.997710 -0.943145 0
M  V30 49 H -2.509441 -4.254270 -2.537229 0
M  V30 50 H -1.046733 -4.897605 -1.615104 0
M  V30 END ATOM
M  V30 BEGIN BOND
M  V30 1 1 1 2
M  V30 2 1 2 3
M  V30 3 2 3 4
M  V30 4 1 4 5
M  V30 5 2 5 6
M  V30 6 1 6 7
M  V30 7 1 7 8
M  V30 8 2 7 9
M  V30 9 1 9 10
M  V30 10 2 10 11
M  V30 11 1 11 12
M  V30 12 2 12 13
M  V30 13 1 13 14
M  V30 14 2 14 15
M  V30 15 1 13 16
M  V30 16 2 16 17
M  V30 17 1 17 18
M  V30 18 1 18 19
M  V30 19 2 19 20
M  V30 20 1 20 21
M  V30 21 2 21 22
M  V30 22 1 22 23
M  V30 23 1 23 24
M  V30 24 1 24 25
M  V30 25 1 25 26
M  V30 26 1 26 27
M  V30 27 1 27 28
M  V30 28 1 28 29
M  V30 29 2 23 30
M  V30 30 1 9 3
M  V30 31 1 15 10
M  V30 32 1 30 19
M  V30 33 1 18 12
M  V30 34 1 29 24
M  V30 35 1 1 31
M  V30 36 1 1 32
M  V30 37 1 1 33
M  V30 38 1 4 34
M  V30 39 1 5 35
M  V30 40 1 6 36
M  V30 41 1 11 37
M  V30 42 1 14 38
M  V30 43 1 16 39
M  V30 44 1 20 40
M  V30 45 1 21 41
M  V30 46 1 22 42
M  V30 47 1 25 43
M  V30 48 1 25 44
M  V30 49 1 26 45
M  V30 50 1 26 46
M  V30 51 1 28 47
M  V30 52 1 28 48
M  V30 53 1 29 49
M  V30 54 1 29 50
M  V30 END BOND
M  V30 END CTAB
M  END
>  <Dataset>  (338) 
ChEMBL_Kinases

>  <Ligand_Instance>  (338) 
nan

>  <PDB_ID>  (338) 
nan

>  <Standardized_SMILES>  (338) 
COc1cccc(F)c1-c1cc2c(cn1)cnn2-c1cccc(N2CCOCC2)n1

>  <Name>  (338) 
nan

>  <Pocket>  (338) 
nan

>  <ATP_Site>  (338) 
nan

>  <Peripheral>  (338) 
nan

>  <Num_H_Atoms_ProtBoundConf>  (338) 
nan

>  <Num_Resolved_Atoms>  (338) 
nan

>  <Num_Not_Resolved_Atoms>  (338) 
nan

$$$$
CHEMBL4745533
     RDKit          3D

  0  0  0  0  0  0  0  0  0  0999 V3000
M  V30 BEGIN CTAB
M  V30 COUNTS 39 42 0 0 0
M  V30 BEGIN ATOM
M  V30 1 C -0.135157 -4.858958 2.985953 0
M  V30 2 C 0.515979 -3.503731 3.115925 0
M  V30 3 O 1.801794 -3.530378 3.593591 0
M  V30 4 C 0.567169 -2.815200 1.802904 0
M  V30 5 C 0.602180 -2.237150 0.742052 0
M  V30 6 C 0.635949 -1.528797 -0.508311 0
M  V30 7 C 0.690084 -2.231940 -1.717215 0
M  V30 8 C 0.721505 -1.505610 -2.911705 0
M  V30 9 C 0.702031 -0.136876 -2.959109 0
M  V30 10 N 0.728903 0.561109 -4.108143 0
M  V30 11 C 0.704985 1.909480 -4.115273 0
M  V30 12 C 0.652292 2.527590 -2.893717 0
M  V30 13 C 0.621860 1.872033 -1.656467 0
M  V30 14 C 0.580991 2.723413 -0.478731 0
M  V30 15 C -0.350247 3.766967 -0.410663 0
M  V30 16 N -0.191468 4.407631 0.751749 0
M  V30 17 N 0.794277 3.839850 1.449421 0
M  V30 18 C 1.262657 2.823399 0.709791 0
M  V30 19 C 0.649007 0.496112 -1.744415 0
M  V30 20 C 0.615245 -0.150066 -0.526350 0
M  V30 21 C -0.382020 -2.723885 4.052021 0
M  V30 22 N -1.351154 -1.993649 3.916410 0
M  V30 23 C -1.961941 -1.425309 4.944419 0
M  V30 24 C -1.461050 -1.682987 6.247663 0
M  V30 25 S -0.015704 -2.834027 5.811608 0
M  V30 26 H 0.070732 -5.452993 3.876810 0
M  V30 27 H 0.131093 -5.366475 2.026486 0
M  V30 28 H -1.236028 -4.725756 2.940823 0
M  V30 29 H 2.032580 -4.397688 3.978110 0
M  V30 30 H 0.706798 -3.327009 -1.709059 0
M  V30 31 H 0.763198 -2.068947 -3.835561 0
M  V30 32 H 0.725900 2.483613 -5.031241 0
M  V30 33 H 0.633610 3.628380 -2.924170 0
M  V30 34 H -1.123699 4.135971 -1.067974 0
M  V30 35 H 1.168583 4.097119 2.392697 0
M  V30 36 H 2.061397 2.132677 0.933775 0
M  V30 37 H 0.569077 0.370691 0.418364 0
M  V30 38 H -2.809016 -0.808927 4.600480 0
M  V30 39 H -2.105429 -1.110483 7.053169 0
M  V30 END ATOM
M  V30 BEGIN BOND
M  V30 1 1 1 2
M  V30 2 1 2 3
M  V30 3 1 2 4
M  V30 4 3 4 5
M  V30 5 1 5 6
M  V30 6 2 6 7
M  V30 7 1 7 8
M  V30 8 2 8 9
M  V30 9 1 9 10
M  V30 10 2 10 11
M  V30 11 1 11 12
M  V30 12 2 12 13
M  V30 13 1 13 14
M  V30 14 1 14 15
M  V30 15 2 15 16
M  V30 16 1 16 17
M  V30 17 1 17 18
M  V30 18 1 13 19
M  V30 19 2 19 20
M  V30 20 1 2 21
M  V30 21 2 21 22
M  V30 22 1 22 23
M  V30 23 2 23 24
M  V30 24 1 24 25
M  V30 25 1 20 6
M  V30 26 1 25 21
M  V30 27 1 19 9
M  V30 28 2 18 14
M  V30 29 1 1 26
M  V30 30 1 1 27
M  V30 31 1 1 28
M  V30 32 1 3 29
M  V30 33 1 7 30
M  V30 34 1 8 31
M  V30 35 1 11 32
M  V30 36 1 12 33
M  V30 37 1 15 34
M  V30 38 1 17 35
M  V30 39 1 18 36
M  V30 40 1 20 37
M  V30 41 1 23 38
M  V30 42 1 24 39
M  V30 END BOND
M  V30 END CTAB
M  END
>  <Dataset>  (339) 
ChEMBL_Kinases

>  <Ligand_Instance>  (339) 
nan

>  <PDB_ID>  (339) 
nan

>  <Standardized_SMILES>  (339) 
CC(O)(C#Cc1ccc2nccc(-c3cn[nH]c3)c2c1)c1nccs1

>  <Name>  (339) 
nan

>  <Pocket>  (339) 
nan

>  <ATP_Site>  (339) 
nan

>  <Peripheral>  (339) 
nan

>  <Num_H_Atoms_ProtBoundConf>  (339) 
nan

>  <Num_Resolved_Atoms>  (339) 
nan

>  <Num_Not_Resolved_Atoms>  (339) 
nan

$$$$
CHEMBL4457070
     RDKit          3D

  0  0  0  0  0  0  0  0  0  0999 V3000
M  V30 BEGIN CTAB
M  V30 COUNTS 54 57 0 0 0
M  V30 BEGIN ATOM
M  V30 1 O -0.007412 -2.311472 -0.646632 0
M  V30 2 C -1.111559 -1.695053 -0.516812 0
M  V30 3 C -1.020377 -0.261684 -0.271127 0
M  V30 4 C -0.048010 0.700382 -0.100284 0
M  V30 5 C -0.351354 2.020062 0.150962 0
M  V30 6 C 0.754546 2.954245 0.315279 0
M  V30 7 C 0.592213 4.298655 0.569767 0
M  V30 8 C 1.672884 5.140008 0.716926 0
M  V30 9 N 2.891646 4.592974 0.601559 0
M  V30 10 C 3.089142 3.293030 0.355070 0
M  V30 11 N 4.372648 2.739687 0.236180 0
M  V30 12 C 4.658453 1.346794 -0.021889 0
M  V30 13 C 4.101507 0.453289 1.091990 0
M  V30 14 C 4.716459 0.821582 2.422445 0
M  V30 15 O 4.199562 -0.003226 3.438631 0
M  V30 16 N 2.011084 2.487006 0.214533 0
M  V30 17 C -1.670886 2.373723 0.231053 0
M  V30 18 C -2.712296 1.454028 0.068374 0
M  V30 19 C -2.338199 0.133584 -0.184262 0
M  V30 20 C -3.290317 -0.976113 -0.414783 0
M  V30 21 N -2.451605 -2.159250 -0.572132 0
M  V30 22 C -2.896193 -3.526650 -0.723421 0
M  V30 23 C -2.424584 -4.160280 -1.981118 0
M  V30 24 O -1.061827 -4.222661 -2.115490 0
M  V30 25 C -2.740288 -4.364204 0.495278 0
M  V30 26 C -3.767479 -5.280588 0.802649 0
M  V30 27 C -3.841410 -6.146633 1.872993 0
M  V30 28 C -2.794195 -6.117354 2.745296 0
M  V30 29 C -1.741326 -5.264734 2.544033 0
M  V30 30 Cl -0.379622 -5.194396 3.636500 0
M  V30 31 C -1.758756 -4.443334 1.452891 0
M  V30 32 H 0.974626 0.365115 -0.173876 0
M  V30 33 H -0.399591 4.707791 0.656791 0
M  V30 34 H 1.581455 6.182859 0.914004 0
M  V30 35 H 5.204899 3.393377 0.343898 0
M  V30 36 H 5.726874 1.168175 -0.136285 0
M  V30 37 H 4.179756 1.077582 -0.980240 0
M  V30 38 H 4.328074 -0.604086 0.851062 0
M  V30 39 H 3.007221 0.565980 1.182996 0
M  V30 40 H 4.450938 1.854005 2.726491 0
M  V30 41 H 5.812298 0.774836 2.361592 0
M  V30 42 H 3.445079 -0.513555 3.055003 0
M  V30 43 H -1.939652 3.399497 0.427091 0
M  V30 44 H -3.727565 1.794862 0.142977 0
M  V30 45 H -3.943952 -1.087822 0.492093 0
M  V30 46 H -3.920405 -0.775183 -1.286229 0
M  V30 47 H -4.038916 -3.429047 -0.808161 0
M  V30 48 H -2.923148 -5.146553 -2.090581 0
M  V30 49 H -2.829516 -3.550901 -2.829022 0
M  V30 50 H -0.753931 -3.724708 -2.889953 0
M  V30 51 H -4.630639 -5.329071 0.115005 0
M  V30 52 H -4.676792 -6.797372 1.999079 0
M  V30 53 H -2.760977 -6.753274 3.607067 0
M  V30 54 H -0.927624 -3.777377 1.313438 0
M  V30 END ATOM
M  V30 BEGIN BOND
M  V30 1 2 1 2
M  V30 2 1 2 3
M  V30 3 2 3 4
M  V30 4 1 4 5
M  V30 5 1 5 6
M  V30 6 2 6 7
M  V30 7 1 7 8
M  V30 8 2 8 9
M  V30 9 1 9 10
M  V30 10 1 10 11
M  V30 11 1 11 12
M  V30 12 1 12 13
M  V30 13 1 13 14
M  V30 14 1 14 15
M  V30 15 2 10 16
M  V30 16 2 5 17
M  V30 17 1 17 18
M  V30 18 2 18 19
M  V30 19 1 19 20
M  V30 20 1 20 21
M  V30 21 1 21 22
M  V30 22 1 22 23
M  V30 23 1 23 24
M  V30 24 1 22 25
M  V30 25 2 25 26
M  V30 26 1 26 27
M  V30 27 2 27 28
M  V30 28 1 28 29
M  V30 29 1 29 30
M  V30 30 2 29 31
M  V30 31 1 21 2
M  V30 32 1 31 25
M  V30 33 1 19 3
M  V30 34 1 16 6
M  V30 35 1 4 32
M  V30 36 1 7 33
M  V30 37 1 8 34
M  V30 38 1 11 35
M  V30 39 1 12 36
M  V30 40 1 12 37
M  V30 41 1 13 38
M  V30 42 1 13 39
M  V30 43 1 14 40
M  V30 44 1 14 41
M  V30 45 1 15 42
M  V30 46 1 17 43
M  V30 47 1 18 44
M  V30 48 1 20 45
M  V30 49 1 20 46
M  V30 50 1 22 47
M  V30 51 1 23 48
M  V30 52 1 23 49
M  V30 53 1 24 50
M  V30 54 1 26 51
M  V30 55 1 27 52
M  V30 56 1 28 53
M  V30 57 1 31 54
M  V30 END BOND
M  V30 END CTAB
M  END
>  <Dataset>  (340) 
ChEMBL_Kinases

>  <Ligand_Instance>  (340) 
nan

>  <PDB_ID>  (340) 
nan

>  <Standardized_SMILES>  (340) 
O=C1c2cc(-c3ccnc(NCCCO)n3)ccc2CN1C(CO)c1cccc(Cl)c1

>  <Name>  (340) 
nan

>  <Pocket>  (340) 
nan

>  <ATP_Site>  (340) 
nan

>  <Peripheral>  (340) 
nan

>  <Num_H_Atoms_ProtBoundConf>  (340) 
nan

>  <Num_Resolved_Atoms>  (340) 
nan

>  <Num_Not_Resolved_Atoms>  (340) 
nan

$$$$
CHEMBL4745716
     RDKit          3D

  0  0  0  0  0  0  0  0  0  0999 V3000
M  V30 BEGIN CTAB
M  V30 COUNTS 41 43 0 0 0
M  V30 BEGIN ATOM
M  V30 1 C 0.769440 -4.771285 -0.657362 0
M  V30 2 C 1.108377 -3.408171 -0.105207 0
M  V30 3 C 0.102263 -2.954411 0.912069 0
M  V30 4 N 2.481311 -3.354725 0.377681 0
M  V30 5 C 3.105935 -4.430918 0.911359 0
M  V30 6 N 4.336142 -4.050365 1.249123 0
M  V30 7 N 4.493281 -2.773898 0.941942 0
M  V30 8 C 3.352162 -2.304058 0.393872 0
M  V30 9 C 2.910095 -1.011836 -0.135195 0
M  V30 10 C 3.012028 -0.629597 -1.460882 0
M  V30 11 C 2.573468 0.604000 -1.882735 0
M  V30 12 C 2.025780 1.459031 -0.950575 0
M  V30 13 C 1.924984 1.073648 0.376085 0
M  V30 14 N 1.345427 2.006284 1.303214 0
M  V30 15 C -0.081826 1.941922 1.497109 0
M  V30 16 O -0.815119 1.116074 0.895225 0
M  V30 17 N -0.801832 2.792170 2.375997 0
M  V30 18 C -2.223702 2.543154 2.405536 0
M  V30 19 C -2.542773 1.599084 3.385788 0
M  V30 20 C -3.854801 1.229019 3.566816 0
M  V30 21 N -4.836768 1.775692 2.799436 0
M  V30 22 C -4.505064 2.683082 1.861556 0
M  V30 23 C -3.224034 3.091337 1.633355 0
M  V30 24 N 2.365409 -0.154392 0.776751 0
M  V30 25 H 0.565646 -5.534848 0.092206 0
M  V30 26 H -0.120093 -4.620152 -1.325461 0
M  V30 27 H 1.610255 -5.058623 -1.319558 0
M  V30 28 H 1.037782 -2.711100 -0.991133 0
M  V30 29 H 0.616686 -2.585712 1.844169 0
M  V30 30 H -0.536788 -3.782455 1.232502 0
M  V30 31 H -0.492668 -2.073391 0.540905 0
M  V30 32 H 2.669820 -5.422277 1.035979 0
M  V30 33 H 3.465172 -1.416962 -2.062034 0
M  V30 34 H 2.702602 0.801564 -2.952049 0
M  V30 35 H 1.701754 2.411157 -1.348853 0
M  V30 36 H 1.770690 2.771227 1.905346 0
M  V30 37 H -0.255448 3.519621 2.923666 0
M  V30 38 H -1.867360 1.087759 4.061953 0
M  V30 39 H -4.226642 0.503254 4.298722 0
M  V30 40 H -5.255348 3.147093 1.224441 0
M  V30 41 H -2.853408 3.796957 0.923324 0
M  V30 END ATOM
M  V30 BEGIN BOND
M  V30 1 1 1 2
M  V30 2 1 2 3
M  V30 3 1 2 4
M  V30 4 1 4 5
M  V30 5 2 5 6
M  V30 6 1 6 7
M  V30 7 2 7 8
M  V30 8 1 8 9
M  V30 9 2 9 10
M  V30 10 1 10 11
M  V30 11 2 11 12
M  V30 12 1 12 13
M  V30 13 1 13 14
M  V30 14 1 14 15
M  V30 15 2 15 16
M  V30 16 1 15 17
M  V30 17 1 17 18
M  V30 18 2 18 19
M  V30 19 1 19 20
M  V30 20 2 20 21
M  V30 21 1 21 22
M  V30 22 2 22 23
M  V30 23 2 13 24
M  V30 24 1 8 4
M  V30 25 1 24 9
M  V30 26 1 23 18
M  V30 27 1 1 25
M  V30 28 1 1 26
M  V30 29 1 1 27
M  V30 30 1 2 28
M  V30 31 1 3 29
M  V30 32 1 3 30
M  V30 33 1 3 31
M  V30 34 1 5 32
M  V30 35 1 10 33
M  V30 36 1 11 34
M  V30 37 1 12 35
M  V30 38 1 14 36
M  V30 39 1 17 37
M  V30 40 1 19 38
M  V30 41 1 20 39
M  V30 42 1 22 40
M  V30 43 1 23 41
M  V30 END BOND
M  V30 END CTAB
M  END
>  <Dataset>  (341) 
ChEMBL_Kinases

>  <Ligand_Instance>  (341) 
nan

>  <PDB_ID>  (341) 
nan

>  <Standardized_SMILES>  (341) 
CC(C)n1cnnc1-c1cccc(NC(=O)Nc2ccncc2)n1

>  <Name>  (341) 
nan

>  <Pocket>  (341) 
nan

>  <ATP_Site>  (341) 
nan

>  <Peripheral>  (341) 
nan

>  <Num_H_Atoms_ProtBoundConf>  (341) 
nan

>  <Num_Resolved_Atoms>  (341) 
nan

>  <Num_Not_Resolved_Atoms>  (341) 
nan

$$$$
CHEMBL4745768
     RDKit          3D

  0  0  0  0  0  0  0  0  0  0999 V3000
M  V30 BEGIN CTAB
M  V30 COUNTS 70 75 0 0 0
M  V30 BEGIN ATOM
M  V30 1 O 0.565817 -2.146562 1.258804 0
M  V30 2 C 0.553161 -0.944655 0.902998 0
M  V30 3 C 0.910408 0.017617 1.902028 0
M  V30 4 C 2.305061 0.442534 2.120297 0
M  V30 5 N 3.117848 1.048238 1.202703 0
M  V30 6 C 3.717079 0.461563 0.083141 0
M  V30 7 C 2.876513 -0.012770 -1.037899 0
M  V30 8 C 3.602186 0.248389 -2.372326 0
M  V30 9 C 5.000235 -0.285154 -2.305298 0
M  V30 10 C 5.786830 0.522618 -1.289695 0
M  V30 11 C 4.873233 1.348895 -0.454124 0
M  V30 12 C -0.047191 1.188528 1.964293 0
M  V30 13 C -0.836877 1.465629 3.059925 0
M  V30 14 C -1.715958 2.524709 3.139374 0
M  V30 15 C -1.815558 3.367194 2.051195 0
M  V30 16 Cl -2.945326 4.702873 2.194364 0
M  V30 17 C -1.050237 3.148608 0.913582 0
M  V30 18 C -0.201273 2.063134 0.932007 0
M  V30 19 N 0.227347 -2.030168 0.046253 0
M  V30 20 C 0.207095 -3.469143 0.160727 0
M  V30 21 C -1.230050 -3.972810 0.110143 0
M  V30 22 N -1.998439 -3.235570 -0.876746 0
M  V30 23 C -3.394852 -3.055608 -1.030152 0
M  V30 24 N -3.782903 -3.725920 -2.123269 0
M  V30 25 C -5.031717 -3.813418 -2.584512 0
M  V30 26 N -5.947779 -3.155808 -1.856840 0
M  V30 27 C -5.534230 -2.493086 -0.768949 0
M  V30 28 S -6.544628 -1.505581 0.407211 0
M  V30 29 C -5.207321 -1.047657 1.433307 0
M  V30 30 C -4.079104 -1.623210 0.890767 0
M  V30 31 C -4.274342 -2.362413 -0.241322 0
M  V30 32 C -2.963522 -1.195956 1.768191 0
M  V30 33 C -3.634296 -1.004142 3.103309 0
M  V30 34 C -4.894950 -0.264574 2.676336 0
M  V30 35 C -1.215713 -2.578297 -1.895156 0
M  V30 36 C -0.248323 -1.595405 -1.278743 0
M  V30 37 H 0.640403 -0.488498 2.930680 0
M  V30 38 H 2.323626 1.113353 3.071536 0
M  V30 39 H 2.905060 -0.455861 2.578824 0
M  V30 40 H 3.588795 1.952923 1.438949 0
M  V30 41 H 4.291791 -0.444250 0.460679 0
M  V30 42 H 2.707394 -1.111021 -0.938907 0
M  V30 43 H 1.918595 0.525955 -1.072097 0
M  V30 44 H 3.021733 -0.205694 -3.208131 0
M  V30 45 H 3.604595 1.331105 -2.535255 0
M  V30 46 H 4.980433 -1.343140 -1.953902 0
M  V30 47 H 5.458427 -0.179215 -3.311939 0
M  V30 48 H 6.401165 -0.156955 -0.662282 0
M  V30 49 H 6.511043 1.219619 -1.779411 0
M  V30 50 H 5.419739 1.695069 0.454893 0
M  V30 51 H 4.485043 2.232436 -0.964535 0
M  V30 52 H -0.784350 0.823999 3.934774 0
M  V30 53 H -2.306592 2.688344 4.024594 0
M  V30 54 H -1.150004 3.822787 0.082186 0
M  V30 55 H 0.361887 1.952841 0.016641 0
M  V30 56 H 0.670459 -3.898163 1.047617 0
M  V30 57 H 0.722484 -3.841487 -0.783066 0
M  V30 58 H -1.127863 -5.010494 -0.347132 0
M  V30 59 H -1.704545 -4.044911 1.095824 0
M  V30 60 H -5.431192 -4.313754 -3.429927 0
M  V30 61 H -2.604453 -0.165628 1.472555 0
M  V30 62 H -2.098432 -1.834166 1.789849 0
M  V30 63 H -2.970721 -0.368781 3.719969 0
M  V30 64 H -3.916099 -1.948356 3.604164 0
M  V30 65 H -5.656392 -0.430619 3.455599 0
M  V30 66 H -4.690254 0.782807 2.439048 0
M  V30 67 H -1.812083 -2.052722 -2.668037 0
M  V30 68 H -0.595905 -3.400180 -2.367602 0
M  V30 69 H -0.669802 -0.569876 -1.256477 0
M  V30 70 H 0.639560 -1.544413 -1.927097 0
M  V30 END ATOM
M  V30 BEGIN BOND
M  V30 1 2 1 2
M  V30 2 1 2 3
M  V30 3 1 3 4
M  V30 4 1 4 5
M  V30 5 1 5 6
M  V30 6 1 6 7
M  V30 7 1 7 8
M  V30 8 1 8 9
M  V30 9 1 9 10
M  V30 10 1 10 11
M  V30 11 1 3 12
M  V30 12 2 12 13
M  V30 13 1 13 14
M  V30 14 2 14 15
M  V30 15 1 15 16
M  V30 16 1 15 17
M  V30 17 2 17 18
M  V30 18 1 2 19
M  V30 19 1 19 20
M  V30 20 1 20 21
M  V30 21 1 21 22
M  V30 22 1 22 23
M  V30 23 2 23 24
M  V30 24 1 24 25
M  V30 25 2 25 26
M  V30 26 1 26 27
M  V30 27 1 27 28
M  V30 28 1 28 29
M  V30 29 2 29 30
M  V30 30 1 30 31
M  V30 31 1 30 32
M  V30 32 1 32 33
M  V30 33 1 33 34
M  V30 34 1 22 35
M  V30 35 1 35 36
M  V30 36 1 11 6
M  V30 37 1 18 12
M  V30 38 1 36 19
M  V30 39 1 31 23
M  V30 40 2 31 27
M  V30 41 1 34 29
M  V30 42 1 3 37
M  V30 43 1 4 38
M  V30 44 1 4 39
M  V30 45 1 5 40
M  V30 46 1 6 41
M  V30 47 1 7 42
M  V30 48 1 7 43
M  V30 49 1 8 44
M  V30 50 1 8 45
M  V30 51 1 9 46
M  V30 52 1 9 47
M  V30 53 1 10 48
M  V30 54 1 10 49
M  V30 55 1 11 50
M  V30 56 1 11 51
M  V30 57 1 13 52
M  V30 58 1 14 53
M  V30 59 1 17 54
M  V30 60 1 18 55
M  V30 61 1 20 56
M  V30 62 1 20 57
M  V30 63 1 21 58
M  V30 64 1 21 59
M  V30 65 1 25 60
M  V30 66 1 32 61
M  V30 67 1 32 62
M  V30 68 1 33 63
M  V30 69 1 33 64
M  V30 70 1 34 65
M  V30 71 1 34 66
M  V30 72 1 35 67
M  V30 73 1 35 68
M  V30 74 1 36 69
M  V30 75 1 36 70
M  V30 END BOND
M  V30 END CTAB
M  END
>  <Dataset>  (342) 
ChEMBL_Kinases

>  <Ligand_Instance>  (342) 
nan

>  <PDB_ID>  (342) 
nan

>  <Standardized_SMILES>  (342) 
O=C(C(CNC1CCCCC1)c1ccc(Cl)cc1)N1CCN(c2ncnc3sc4c(c23)CCC4)CC1

>  <Name>  (342) 
nan

>  <Pocket>  (342) 
nan

>  <ATP_Site>  (342) 
nan

>  <Peripheral>  (342) 
nan

>  <Num_H_Atoms_ProtBoundConf>  (342) 
nan

>  <Num_Resolved_Atoms>  (342) 
nan

>  <Num_Not_Resolved_Atoms>  (342) 
nan

$$$$
CHEMBL4745794
     RDKit          3D

  0  0  0  0  0  0  0  0  0  0999 V3000
M  V30 BEGIN CTAB
M  V30 COUNTS 50 53 0 0 0
M  V30 BEGIN ATOM
M  V30 1 N -4.010618 -7.525092 -1.833114 0
M  V30 2 C -3.319048 -6.645002 -2.175009 0
M  V30 3 C -2.463098 -5.576256 -2.615891 0
M  V30 4 C -1.113342 -5.856608 -2.662153 0
M  V30 5 N -0.277730 -4.876429 -3.072642 0
M  V30 6 C -0.731927 -3.657980 -3.428783 0
M  V30 7 N 0.040767 -2.549694 -3.878584 0
M  V30 8 C 0.356144 -2.010183 -2.602450 0
M  V30 9 C -0.411450 -1.109466 -1.895933 0
M  V30 10 C -0.058983 -0.612140 -0.660153 0
M  V30 11 N -0.879856 0.270118 0.079394 0
M  V30 12 C -2.137037 0.931053 -0.200060 0
M  V30 13 C -1.864935 2.122413 -1.050458 0 CFG=2
M  V30 14 C -3.117944 2.898286 -1.402075 0
M  V30 15 N -2.693894 4.151717 -1.991064 0
M  V30 16 C -1.283620 4.179237 -2.315369 0
M  V30 17 C -0.803524 2.895719 -2.936105 0
M  V30 18 O -1.262260 1.785820 -2.229730 0
M  V30 19 C 1.125167 -1.048194 -0.117089 0
M  V30 20 C 1.691944 -0.628840 1.157472 0
M  V30 21 C 2.092487 -1.671180 2.000838 0
M  V30 22 C 2.657038 -1.416189 3.231962 0
M  V30 23 C 2.838388 -0.120775 3.657201 0
M  V30 24 C 2.429519 0.873704 2.793942 0
M  V30 25 F 2.609328 2.151636 3.215530 0
M  V30 26 C 1.859089 0.683380 1.551422 0
M  V30 27 C 1.896873 -1.949012 -0.816731 0
M  V30 28 N 1.513383 -2.407030 -2.019532 0
M  V30 29 C -2.103854 -3.387331 -3.377094 0
M  V30 30 N -2.954274 -4.373497 -2.963296 0
M  V30 31 H -0.670292 -6.818996 -2.388947 0
M  V30 32 H 0.269294 -2.272436 -4.859356 0
M  V30 33 H -1.324169 -0.846715 -2.400328 0
M  V30 34 H -0.578181 0.538187 1.039927 0
M  V30 35 H -2.740279 1.139153 0.692335 0
M  V30 36 H -2.743262 0.169890 -0.793129 0
M  V30 37 H -1.221252 2.806716 -0.451083 0
M  V30 38 H -3.684432 2.351559 -2.213203 0
M  V30 39 H -3.817376 3.021132 -0.562352 0
M  V30 40 H -2.907865 4.971113 -1.382934 0
M  V30 41 H -0.649322 4.476388 -1.456010 0
M  V30 42 H -1.095931 4.972347 -3.097923 0
M  V30 43 H 0.311518 2.892612 -2.842414 0
M  V30 44 H -1.127964 2.832938 -3.979382 0
M  V30 45 H 1.987354 -2.723320 1.747555 0
M  V30 46 H 2.984857 -2.195167 3.924676 0
M  V30 47 H 3.276095 0.116997 4.612276 0
M  V30 48 H 1.559960 1.486612 0.900137 0
M  V30 49 H 2.832312 -2.330106 -0.447666 0
M  V30 50 H -2.599107 -2.457346 -3.635141 0
M  V30 END ATOM
M  V30 BEGIN BOND
M  V30 1 3 1 2
M  V30 2 1 2 3
M  V30 3 2 3 4
M  V30 4 1 4 5
M  V30 5 2 5 6
M  V30 6 1 6 7
M  V30 7 1 7 8
M  V30 8 2 8 9
M  V30 9 1 9 10
M  V30 10 1 10 11
M  V30 11 1 11 12
M  V30 12 1 12 13
M  V30 13 1 13 14
M  V30 14 1 14 15
M  V30 15 1 15 16
M  V30 16 1 16 17
M  V30 17 1 17 18
M  V30 18 2 10 19
M  V30 19 1 19 20
M  V30 20 2 20 21
M  V30 21 1 21 22
M  V30 22 2 22 23
M  V30 23 1 23 24
M  V30 24 1 24 25
M  V30 25 2 24 26
M  V30 26 1 19 27
M  V30 27 2 27 28
M  V30 28 1 6 29
M  V30 29 2 29 30
M  V30 30 1 30 3
M  V30 31 1 28 8
M  V30 32 1 18 13
M  V30 33 1 26 20
M  V30 34 1 4 31
M  V30 35 1 7 32
M  V30 36 1 9 33
M  V30 37 1 11 34
M  V30 38 1 12 35
M  V30 39 1 12 36
M  V30 40 1 13 37 CFG=1
M  V30 41 1 14 38
M  V30 42 1 14 39
M  V30 43 1 15 40
M  V30 44 1 16 41
M  V30 45 1 16 42
M  V30 46 1 17 43
M  V30 47 1 17 44
M  V30 48 1 21 45
M  V30 49 1 22 46
M  V30 50 1 23 47
M  V30 51 1 26 48
M  V30 52 1 27 49
M  V30 53 1 29 50
M  V30 END BOND
M  V30 END CTAB
M  END
>  <Dataset>  (343) 
ChEMBL_Kinases

>  <Ligand_Instance>  (343) 
nan

>  <PDB_ID>  (343) 
nan

>  <Standardized_SMILES>  (343) 
N#Cc1cnc(Nc2cc(NC[C@@H]3CNCCO3)c(-c3cccc(F)c3)cn2)cn1

>  <Name>  (343) 
nan

>  <Pocket>  (343) 
nan

>  <ATP_Site>  (343) 
nan

>  <Peripheral>  (343) 
nan

>  <Num_H_Atoms_ProtBoundConf>  (343) 
nan

>  <Num_Resolved_Atoms>  (343) 
nan

>  <Num_Not_Resolved_Atoms>  (343) 
nan

$$$$
CHEMBL4745823
     RDKit          3D

  0  0  0  0  0  0  0  0  0  0999 V3000
M  V30 BEGIN CTAB
M  V30 COUNTS 59 66 0 0 0
M  V30 BEGIN ATOM
M  V30 1 C 5.507553 1.807463 1.435039 0
M  V30 2 O 4.187854 1.670707 0.948865 0
M  V30 3 C 3.472918 0.498232 1.072638 0
M  V30 4 O 4.494571 0.041599 1.646636 0
M  V30 5 C 2.081398 0.116863 0.643318 0 CFG=1
M  V30 6 O 1.444845 1.147257 0.039815 0
M  V30 7 C 1.305019 2.352890 0.612450 0
M  V30 8 C 2.325510 -0.899811 -0.491250 0
M  V30 9 C 1.757744 -2.150052 0.030144 0 CFG=1
M  V30 10 O 1.575745 -2.022895 1.364293 0
M  V30 11 C 1.370370 -0.668175 1.697191 0 CFG=1
M  V30 12 C 2.059184 -0.401870 2.988659 0
M  V30 13 N -0.022747 -0.466995 1.643628 0
M  V30 14 C -0.851280 0.277077 2.392142 0
M  V30 15 C -0.626521 1.094007 3.479662 0
M  V30 16 C -1.572032 1.796022 4.166420 0
M  V30 17 C -2.886149 1.698686 3.756004 0
M  V30 18 C -3.176359 0.895454 2.671415 0
M  V30 19 C -2.181270 0.225632 2.037115 0
M  V30 20 C -2.216383 -0.629046 0.963775 0
M  V30 21 C -3.207343 -1.120409 0.141490 0
M  V30 22 C -2.929231 -1.997471 -0.879956 0
M  V30 23 C -1.643981 -2.394135 -1.087564 0
M  V30 24 C -1.106744 -3.245658 -1.995050 0
M  V30 25 C -1.469824 -4.025125 -3.023295 0
M  V30 26 C -0.635667 -4.812295 -3.783485 0
M  V30 27 C 0.729732 -4.818341 -3.474475 0
M  V30 28 C 1.150751 -4.018199 -2.407787 0
M  V30 29 C 0.239478 -3.271882 -1.714951 0
M  V30 30 N 0.486170 -2.457889 -0.672060 0
M  V30 31 C -0.670749 -1.901836 -0.268901 0
M  V30 32 C -0.926950 -1.011870 0.769421 0
M  V30 33 C -4.178151 -2.300008 -1.527321 0
M  V30 34 O -4.527729 -3.008756 -2.478821 0
M  V30 35 N -5.203249 -1.581187 -0.864969 0
M  V30 36 C -4.662022 -0.794967 0.225887 0
M  V30 37 H 5.567033 1.656426 2.552634 0
M  V30 38 H 5.840790 2.880395 1.314942 0
M  V30 39 H 6.176076 1.134198 0.887335 0
M  V30 40 H 0.712798 2.992453 -0.133752 0
M  V30 41 H 0.771039 2.476251 1.539707 0
M  V30 42 H 2.295594 2.907868 0.675301 0
M  V30 43 H 3.403134 -0.975597 -0.745909 0
M  V30 44 H 1.755683 -0.584990 -1.416482 0
M  V30 45 H 2.423737 -3.035061 -0.153547 0
M  V30 46 H 1.515957 -0.832058 3.853337 0
M  V30 47 H 2.514053 0.573006 3.113933 0
M  V30 48 H 2.972914 -1.096726 2.975150 0
M  V30 49 H 0.391149 1.197121 3.817482 0
M  V30 50 H -1.323619 2.421785 5.016556 0
M  V30 51 H -3.709716 2.213464 4.230867 0
M  V30 52 H -4.197002 0.803676 2.331875 0
M  V30 53 H -2.486395 -4.081731 -3.327552 0
M  V30 54 H -0.946741 -5.442144 -4.618450 0
M  V30 55 H 1.416150 -5.418048 -4.041844 0
M  V30 56 H 2.194841 -4.010050 -2.155998 0
M  V30 57 H -6.233337 -1.515638 -1.010971 0
M  V30 58 H -5.035334 -1.192928 1.170065 0
M  V30 59 H -4.844396 0.290377 0.078748 0
M  V30 END ATOM
M  V30 BEGIN BOND
M  V30 1 1 1 2
M  V30 2 1 2 3
M  V30 3 2 3 4
M  V30 4 1 3 5
M  V30 5 1 5 6 CFG=3
M  V30 6 1 6 7
M  V30 7 1 5 8
M  V30 8 1 8 9
M  V30 9 1 9 10
M  V30 10 1 10 11
M  V30 11 1 11 12 CFG=1
M  V30 12 1 11 13
M  V30 13 1 13 14
M  V30 14 2 14 15
M  V30 15 1 15 16
M  V30 16 2 16 17
M  V30 17 1 17 18
M  V30 18 2 18 19
M  V30 19 1 19 20
M  V30 20 2 20 21
M  V30 21 1 21 22
M  V30 22 2 22 23
M  V30 23 1 23 24
M  V30 24 2 24 25
M  V30 25 1 25 26
M  V30 26 2 26 27
M  V30 27 1 27 28
M  V30 28 2 28 29
M  V30 29 1 29 30
M  V30 30 1 30 31
M  V30 31 2 31 32
M  V30 32 1 22 33
M  V30 33 2 33 34
M  V30 34 1 33 35
M  V30 35 1 35 36
M  V30 36 1 11 5
M  V30 37 1 32 13
M  V30 38 1 30 9
M  V30 39 1 19 14
M  V30 40 1 32 20
M  V30 41 1 36 21
M  V30 42 1 31 23
M  V30 43 1 29 24
M  V30 44 1 1 37
M  V30 45 1 1 38
M  V30 46 1 1 39
M  V30 47 1 7 40
M  V30 48 1 7 41
M  V30 49 1 7 42
M  V30 50 1 8 43
M  V30 51 1 8 44
M  V30 52 1 9 45 CFG=1
M  V30 53 1 12 46
M  V30 54 1 12 47
M  V30 55 1 12 48
M  V30 56 1 15 49
M  V30 57 1 16 50
M  V30 58 1 17 51
M  V30 59 1 18 52
M  V30 60 1 25 53
M  V30 61 1 26 54
M  V30 62 1 27 55
M  V30 63 1 28 56
M  V30 64 1 35 57
M  V30 65 1 36 58
M  V30 66 1 36 59
M  V30 END BOND
M  V30 END CTAB
M  END
>  <Dataset>  (344) 
ChEMBL_Kinases

>  <Ligand_Instance>  (344) 
nan

>  <PDB_ID>  (344) 
nan

>  <Standardized_SMILES>  (344) 
COC(=O)[C@@]1(OC)C[C@H]2O[C@]1(C)n1c3ccccc3c3c4c(c5c6ccccc6n2c5c31)C(=O)NC4

>  <Name>  (344) 
nan

>  <Pocket>  (344) 
nan

>  <ATP_Site>  (344) 
nan

>  <Peripheral>  (344) 
nan

>  <Num_H_Atoms_ProtBoundConf>  (344) 
nan

>  <Num_Resolved_Atoms>  (344) 
nan

>  <Num_Not_Resolved_Atoms>  (344) 
nan

$$$$
CHEMBL4745882
     RDKit          3D

  0  0  0  0  0  0  0  0  0  0999 V3000
M  V30 BEGIN CTAB
M  V30 COUNTS 52 55 0 0 0
M  V30 BEGIN ATOM
M  V30 1 O 1.239247 -4.925130 -0.341192 0
M  V30 2 C 0.147885 -4.624869 0.202341 0
M  V30 3 N -0.015627 -3.322745 0.695146 0
M  V30 4 C 0.864943 -2.224117 0.695412 0
M  V30 5 C 0.449050 -1.037300 1.253404 0
M  V30 6 C 1.255899 0.077880 1.289214 0
M  V30 7 C 2.527469 0.071011 0.768215 0
M  V30 8 C 3.458438 1.235295 0.766447 0
M  V30 9 C 3.307597 2.047707 -0.475783 0
M  V30 10 N 1.951919 2.546627 -0.565035 0
M  V30 11 C 1.446147 3.469147 0.390877 0
M  V30 12 N 2.172004 3.944080 1.415802 0
M  V30 13 N 1.740404 4.803557 2.316876 0
M  V30 14 C 0.508947 5.317412 2.323650 0
M  V30 15 O 0.068386 6.133809 3.162826 0
M  V30 16 C -0.314060 4.888930 1.307101 0
M  V30 17 C -1.613865 5.368547 1.231323 0
M  V30 18 C -2.465292 4.973860 0.244033 0
M  V30 19 C -1.992710 4.070339 -0.692896 0
M  V30 20 C -0.709299 3.609877 -0.600744 0
M  V30 21 C 0.171405 3.989443 0.382531 0
M  V30 22 C 2.982038 -1.099469 0.199843 0
M  V30 23 C 2.140371 -2.191099 0.185987 0
M  V30 24 C -0.845817 -5.685992 0.260560 0
M  V30 25 C -0.537741 -6.920397 -0.269179 0
M  V30 26 C -1.438684 -7.984408 -0.249688 0
M  V30 27 C -2.682602 -7.841997 0.304625 0
M  V30 28 Cl -3.745807 -9.231427 0.283862 0
M  V30 29 C -3.007916 -6.618749 0.837744 0
M  V30 30 C -4.352742 -6.471983 1.434644 0
M  V30 31 F -5.296700 -6.725983 0.445468 0
M  V30 32 F -4.599447 -7.321705 2.478317 0
M  V30 33 F -4.570477 -5.167541 1.876821 0
M  V30 34 C -2.107923 -5.588515 0.807588 0
M  V30 35 H -0.966081 -3.205246 1.121348 0
M  V30 36 H -0.554814 -0.962531 1.687338 0
M  V30 37 H 0.884342 0.982262 1.738939 0
M  V30 38 H 4.517570 0.907268 0.849828 0
M  V30 39 H 3.261399 1.882606 1.641476 0
M  V30 40 H 3.959432 2.961822 -0.399461 0
M  V30 41 H 3.525483 1.481418 -1.400464 0
M  V30 42 H 1.369641 2.201817 -1.353068 0
M  V30 43 H 2.405752 5.097476 3.069292 0
M  V30 44 H -1.974886 6.082662 1.978658 0
M  V30 45 H -3.477128 5.371629 0.217324 0
M  V30 46 H -2.699719 3.774020 -1.471160 0
M  V30 47 H -0.449967 2.912830 -1.380884 0
M  V30 48 H 3.978698 -1.146699 -0.222125 0
M  V30 49 H 2.549457 -3.077063 -0.270740 0
M  V30 50 H 0.434355 -7.136772 -0.736784 0
M  V30 51 H -1.140510 -8.947992 -0.686750 0
M  V30 52 H -2.394123 -4.640147 1.234780 0
M  V30 END ATOM
M  V30 BEGIN BOND
M  V30 1 2 1 2
M  V30 2 1 2 3
M  V30 3 1 3 4
M  V30 4 2 4 5
M  V30 5 1 5 6
M  V30 6 2 6 7
M  V30 7 1 7 8
M  V30 8 1 8 9
M  V30 9 1 9 10
M  V30 10 1 10 11
M  V30 11 2 11 12
M  V30 12 1 12 13
M  V30 13 1 13 14
M  V30 14 2 14 15
M  V30 15 1 14 16
M  V30 16 2 16 17
M  V30 17 1 17 18
M  V30 18 2 18 19
M  V30 19 1 19 20
M  V30 20 2 20 21
M  V30 21 1 7 22
M  V30 22 2 22 23
M  V30 23 1 2 24
M  V30 24 2 24 25
M  V30 25 1 25 26
M  V30 26 2 26 27
M  V30 27 1 27 28
M  V30 28 1 27 29
M  V30 29 1 29 30
M  V30 30 1 30 31
M  V30 31 1 30 32
M  V30 32 1 30 33
M  V30 33 2 29 34
M  V30 34 1 23 4
M  V30 35 1 34 24
M  V30 36 1 21 11
M  V30 37 1 21 16
M  V30 38 1 3 35
M  V30 39 1 5 36
M  V30 40 1 6 37
M  V30 41 1 8 38
M  V30 42 1 8 39
M  V30 43 1 9 40
M  V30 44 1 9 41
M  V30 45 1 10 42
M  V30 46 1 13 43
M  V30 47 1 17 44
M  V30 48 1 18 45
M  V30 49 1 19 46
M  V30 50 1 20 47
M  V30 51 1 22 48
M  V30 52 1 23 49
M  V30 53 1 25 50
M  V30 54 1 26 51
M  V30 55 1 34 52
M  V30 END BOND
M  V30 END CTAB
M  END
>  <Dataset>  (345) 
ChEMBL_Kinases

>  <Ligand_Instance>  (345) 
nan

>  <PDB_ID>  (345) 
nan

>  <Standardized_SMILES>  (345) 
O=C(Nc1ccc(CCNc2n[nH]c(=O)c3ccccc23)cc1)c1ccc(Cl)c(C(F)(F)F)c1

>  <Name>  (345) 
nan

>  <Pocket>  (345) 
nan

>  <ATP_Site>  (345) 
nan

>  <Peripheral>  (345) 
nan

>  <Num_H_Atoms_ProtBoundConf>  (345) 
nan

>  <Num_Resolved_Atoms>  (345) 
nan

>  <Num_Not_Resolved_Atoms>  (345) 
nan

$$$$
CHEMBL4745902
     RDKit          3D

  0  0  0  0  0  0  0  0  0  0999 V3000
M  V30 BEGIN CTAB
M  V30 COUNTS 51 54 0 0 0
M  V30 BEGIN ATOM
M  V30 1 C 3.894951 -3.153879 8.486722 0
M  V30 2 O 4.691517 -2.593892 7.454574 0
M  V30 3 C 4.112956 -2.478480 6.151876 0
M  V30 4 C 2.838837 -2.975881 6.112084 0
M  V30 5 C 2.325444 -2.816386 4.811587 0
M  V30 6 C 2.979669 -2.241123 3.699673 0
M  V30 7 C 2.066128 -2.183590 2.501158 0
M  V30 8 C 1.643581 -0.701082 2.419498 0
M  V30 9 O 2.455600 -0.282386 3.187935 0
M  V30 10 N 0.568449 -0.559291 1.516926 0
M  V30 11 C 0.264491 0.852317 1.426199 0
M  V30 12 C -0.894887 1.013796 0.440538 0
M  V30 13 C -0.435940 0.441810 -0.860291 0
M  V30 14 N -1.359382 0.510664 -1.952335 0
M  V30 15 C -1.361174 1.496421 -2.879096 0
M  V30 16 O -0.502228 2.409886 -2.770547 0
M  V30 17 C -2.264219 1.592147 -3.987777 0
M  V30 18 C -2.247961 2.604145 -4.913150 0
M  V30 19 C -3.191123 2.566522 -5.923001 0
M  V30 20 F -3.120967 3.583000 -6.795919 0
M  V30 21 C -4.098088 1.539731 -5.969276 0
M  V30 22 C -4.108765 0.528741 -5.041826 0
M  V30 23 C -3.152760 0.550352 -4.004385 0
M  V30 24 N -3.247988 -0.471579 -3.151054 0
M  V30 25 C -3.994675 -1.547027 -2.971949 0
M  V30 26 S -5.235380 -2.091550 -3.860758 0
M  V30 27 N -3.543749 -2.194300 -1.852219 0
M  V30 28 N -2.572700 -1.485699 -1.437438 0
M  V30 29 C -2.340078 -0.422457 -2.179578 0
M  V30 30 C 4.292179 -1.774434 3.898107 0
M  V30 31 C 4.852551 -1.915361 5.180599 0
M  V30 32 H 3.857376 -4.241720 8.336633 0
M  V30 33 H 2.879934 -2.664127 8.558663 0
M  V30 34 H 4.447367 -2.951882 9.455170 0
M  V30 35 H 2.231431 -3.439435 6.856837 0
M  V30 36 H 1.292002 -3.218769 4.732559 0
M  V30 37 H 1.228208 -2.831977 2.631414 0
M  V30 38 H 2.622012 -2.357440 1.560570 0
M  V30 39 H 0.120979 -1.374702 1.050239 0
M  V30 40 H 0.079822 1.293700 2.398542 0
M  V30 41 H 1.188433 1.318951 0.954150 0
M  V30 42 H -1.138284 2.072284 0.450184 0
M  V30 43 H -1.775263 0.387525 0.763393 0
M  V30 44 H 0.537088 0.885777 -1.196957 0
M  V30 45 H -0.171935 -0.643017 -0.689206 0
M  V30 46 H -1.489737 3.359127 -4.780464 0
M  V30 47 H -4.773206 1.629262 -6.776704 0
M  V30 48 H -4.883694 -0.189328 -5.210862 0
M  V30 49 H -3.825092 -3.057923 -1.346823 0
M  V30 50 H 4.664198 -1.357286 2.987642 0
M  V30 51 H 5.841778 -1.546860 5.252804 0
M  V30 END ATOM
M  V30 BEGIN BOND
M  V30 1 1 1 2
M  V30 2 1 2 3
M  V30 3 2 3 4
M  V30 4 1 4 5
M  V30 5 2 5 6
M  V30 6 1 6 7
M  V30 7 1 7 8
M  V30 8 2 8 9
M  V30 9 1 8 10
M  V30 10 1 10 11
M  V30 11 1 11 12
M  V30 12 1 12 13
M  V30 13 1 13 14
M  V30 14 1 14 15
M  V30 15 2 15 16
M  V30 16 1 15 17
M  V30 17 2 17 18
M  V30 18 1 18 19
M  V30 19 1 19 20
M  V30 20 2 19 21
M  V30 21 1 21 22
M  V30 22 2 22 23
M  V30 23 1 23 24
M  V30 24 1 24 25
M  V30 25 2 25 26
M  V30 26 1 25 27
M  V30 27 1 27 28
M  V30 28 2 28 29
M  V30 29 1 6 30
M  V30 30 2 30 31
M  V30 31 1 31 3
M  V30 32 1 29 14
M  V30 33 1 23 17
M  V30 34 1 29 24
M  V30 35 1 1 32
M  V30 36 1 1 33
M  V30 37 1 1 34
M  V30 38 1 4 35
M  V30 39 1 5 36
M  V30 40 1 7 37
M  V30 41 1 7 38
M  V30 42 1 10 39
M  V30 43 1 11 40
M  V30 44 1 11 41
M  V30 45 1 12 42
M  V30 46 1 12 43
M  V30 47 1 13 44
M  V30 48 1 13 45
M  V30 49 1 18 46
M  V30 50 1 21 47
M  V30 51 1 22 48
M  V30 52 1 27 49
M  V30 53 1 30 50
M  V30 54 1 31 51
M  V30 END BOND
M  V30 END CTAB
M  END
>  <Dataset>  (346) 
ChEMBL_Kinases

>  <Ligand_Instance>  (346) 
nan

>  <PDB_ID>  (346) 
nan

>  <Standardized_SMILES>  (346) 
COc1ccc(CC(=O)NCCCn2c(=O)c3cc(F)ccc3n3c(=S)[nH]nc23)cc1

>  <Name>  (346) 
nan

>  <Pocket>  (346) 
nan

>  <ATP_Site>  (346) 
nan

>  <Peripheral>  (346) 
nan

>  <Num_H_Atoms_ProtBoundConf>  (346) 
nan

>  <Num_Resolved_Atoms>  (346) 
nan

>  <Num_Not_Resolved_Atoms>  (346) 
nan

$$$$
CHEMBL4745446
     RDKit          3D

  0  0  0  0  0  0  0  0  0  0999 V3000
M  V30 BEGIN CTAB
M  V30 COUNTS 43 45 0 0 0
M  V30 BEGIN ATOM
M  V30 1 C 4.920753 -6.818622 0.598172 0
M  V30 2 S 5.033530 -5.799712 -0.859762 0
M  V30 3 O 6.514250 -5.652539 -1.177645 0
M  V30 4 O 4.295272 -6.353976 -2.018076 0
M  V30 5 N 4.422005 -4.248249 -0.457982 0
M  V30 6 C 3.020152 -4.023063 -0.646689 0
M  V30 7 O 2.404778 -5.041031 -1.101676 0
M  V30 8 C 2.392712 -2.738659 -0.336676 0
M  V30 9 C 3.048304 -1.612215 0.155442 0
M  V30 10 C 2.319693 -0.464134 0.401991 0
M  V30 11 C 0.957905 -0.382903 0.180202 0
M  V30 12 C 0.372213 0.915560 0.501862 0
M  V30 13 C 1.128860 2.057167 0.337164 0
M  V30 14 N 0.574572 3.246719 0.638138 0
M  V30 15 C -0.704976 3.336140 1.096469 0
M  V30 16 N -1.164329 4.654265 1.375045 0
M  V30 17 C -1.475840 2.188901 1.265747 0
M  V30 18 C -2.846453 2.346869 1.762887 0
M  V30 19 C -3.138411 1.413198 2.762370 0
M  V30 20 C -4.419108 1.457249 3.322035 0
M  V30 21 C -5.313180 2.401935 2.868335 0
M  V30 22 Cl -6.899217 2.408614 3.606223 0
M  V30 23 C -5.033070 3.334740 1.875229 0
M  V30 24 C -3.753530 3.269314 1.335929 0
M  V30 25 C -0.929402 0.937059 0.961940 0
M  V30 26 C 0.307758 -1.500558 -0.308008 0
M  V30 27 C 1.030885 -2.656192 -0.558079 0
M  V30 28 H 5.885083 -6.869990 1.120978 0
M  V30 29 H 4.205837 -6.373973 1.322488 0
M  V30 30 H 4.505071 -7.803657 0.326926 0
M  V30 31 H 5.034756 -3.487381 -0.089283 0
M  V30 32 H 4.111468 -1.715553 0.315063 0
M  V30 33 H 2.956915 0.337044 0.783371 0
M  V30 34 H 2.154915 2.047273 -0.024959 0
M  V30 35 H -0.726303 4.885760 2.293350 0
M  V30 36 H -0.957632 5.273878 2.214555 0
M  V30 37 H -2.482595 0.652010 3.158257 0
M  V30 38 H -4.698618 0.758331 4.098105 0
M  V30 39 H -5.727471 4.066088 1.525509 0
M  V30 40 H -3.442950 3.945584 0.566057 0
M  V30 41 H -1.534067 0.050011 1.095778 0
M  V30 42 H -0.755324 -1.376311 -0.460690 0
M  V30 43 H 0.379754 -3.444372 -0.937302 0
M  V30 END ATOM
M  V30 BEGIN BOND
M  V30 1 1 1 2
M  V30 2 2 2 3
M  V30 3 2 2 4
M  V30 4 1 2 5
M  V30 5 1 5 6
M  V30 6 2 6 7
M  V30 7 1 6 8
M  V30 8 2 8 9
M  V30 9 1 9 10
M  V30 10 2 10 11
M  V30 11 1 11 12
M  V30 12 2 12 13
M  V30 13 1 13 14
M  V30 14 2 14 15
M  V30 15 1 15 16
M  V30 16 1 15 17
M  V30 17 1 17 18
M  V30 18 2 18 19
M  V30 19 1 19 20
M  V30 20 2 20 21
M  V30 21 1 21 22
M  V30 22 1 21 23
M  V30 23 2 23 24
M  V30 24 2 17 25
M  V30 25 1 11 26
M  V30 26 2 26 27
M  V30 27 1 27 8
M  V30 28 1 25 12
M  V30 29 1 24 18
M  V30 30 1 1 28
M  V30 31 1 1 29
M  V30 32 1 1 30
M  V30 33 1 5 31
M  V30 34 1 9 32
M  V30 35 1 10 33
M  V30 36 1 13 34
M  V30 37 1 16 35
M  V30 38 1 16 36
M  V30 39 1 19 37
M  V30 40 1 20 38
M  V30 41 1 23 39
M  V30 42 1 24 40
M  V30 43 1 25 41
M  V30 44 1 26 42
M  V30 45 1 27 43
M  V30 END BOND
M  V30 END CTAB
M  END
>  <Dataset>  (347) 
ChEMBL_Kinases

>  <Ligand_Instance>  (347) 
nan

>  <PDB_ID>  (347) 
nan

>  <Standardized_SMILES>  (347) 
CS(=O)(=O)NC(=O)c1ccc(-c2cnc(N)c(-c3ccc(Cl)cc3)c2)cc1

>  <Name>  (347) 
nan

>  <Pocket>  (347) 
nan

>  <ATP_Site>  (347) 
nan

>  <Peripheral>  (347) 
nan

>  <Num_H_Atoms_ProtBoundConf>  (347) 
nan

>  <Num_Resolved_Atoms>  (347) 
nan

>  <Num_Not_Resolved_Atoms>  (347) 
nan

$$$$
CHEMBL4744428
     RDKit          3D

  0  0  0  0  0  0  0  0  0  0999 V3000
M  V30 BEGIN CTAB
M  V30 COUNTS 59 63 0 0 0
M  V30 BEGIN ATOM
M  V30 1 C 2.850090 0.874897 3.664140 0
M  V30 2 C 2.764509 -0.618574 3.440717 0
M  V30 3 C 2.952373 -1.246326 4.827481 0
M  V30 4 N 3.743628 -1.129457 2.529443 0
M  V30 5 C 4.743668 -1.991771 2.866039 0
M  V30 6 N 5.436207 -2.230667 1.759331 0
M  V30 7 N 4.887688 -1.546971 0.786066 0
M  V30 8 C 3.826373 -0.847602 1.235929 0
M  V30 9 C 3.003035 0.013185 0.395877 0
M  V30 10 C 3.512356 0.473451 -0.823898 0
M  V30 11 C 2.870442 1.283580 -1.723160 0
M  V30 12 C 1.601536 1.644591 -1.326670 0
M  V30 13 C 1.046566 1.222656 -0.136795 0
M  V30 14 N -0.269949 1.630317 0.216502 0
M  V30 15 C -0.960814 1.283392 1.395125 0
M  V30 16 O -0.383280 0.544183 2.232325 0
M  V30 17 C -2.326134 1.752552 1.680275 0 CFG=1
M  V30 18 C -3.198143 1.306608 0.506891 0
M  V30 19 N -3.039399 -0.134970 0.486142 0
M  V30 20 C -2.695059 -0.896619 -0.626195 0
M  V30 21 C -2.550639 -2.266690 -0.560741 0
M  V30 22 C -2.212859 -3.070491 -1.627135 0
M  V30 23 C -1.999218 -2.463355 -2.868883 0
M  V30 24 C -1.636354 -3.364497 -3.998135 0
M  V30 25 C -0.756697 -4.558390 -3.749961 0
M  V30 26 C -2.210037 -4.730618 -4.070604 0
M  V30 27 N -2.136351 -1.128076 -2.948309 0
M  V30 28 C -2.467561 -0.376464 -1.883738 0
M  V30 29 C -3.268373 -0.802229 1.751913 0
M  V30 30 C -3.459978 0.121925 2.899248 0
M  V30 31 O -2.780791 1.300921 2.868914 0
M  V30 32 N 1.773682 0.426924 0.667918 0
M  V30 33 H 3.424003 1.315349 2.815213 0
M  V30 34 H 3.412397 1.120904 4.608148 0
M  V30 35 H 1.825940 1.285909 3.691460 0
M  V30 36 H 1.731459 -0.950604 3.137733 0
M  V30 37 H 3.053630 -2.361837 4.715477 0
M  V30 38 H 2.005484 -1.095234 5.389013 0
M  V30 39 H 3.833877 -0.834436 5.339479 0
M  V30 40 H 4.981521 -2.428045 3.809061 0
M  V30 41 H 4.533908 0.142717 -1.071860 0
M  V30 42 H 3.335060 1.588563 -2.633812 0
M  V30 43 H 1.003663 2.293941 -1.979003 0
M  V30 44 H -0.804568 2.244612 -0.434106 0
M  V30 45 H -2.387665 2.873820 1.680330 0
M  V30 46 H -4.269590 1.475558 0.771077 0
M  V30 47 H -2.891440 1.818815 -0.401733 0
M  V30 48 H -2.702857 -2.804351 0.377839 0
M  V30 49 H -2.110996 -4.131910 -1.532211 0
M  V30 50 H -1.481364 -2.841142 -4.952523 0
M  V30 51 H -0.427796 -4.670743 -2.683031 0
M  V30 52 H 0.006466 -4.867667 -4.502893 0
M  V30 53 H -2.816015 -5.148002 -3.252488 0
M  V30 54 H -2.396527 -5.186403 -5.053858 0
M  V30 55 H -2.552079 0.684530 -2.055369 0
M  V30 56 H -4.162073 -1.452736 1.605452 0
M  V30 57 H -2.417432 -1.495503 1.915810 0
M  V30 58 H -4.542562 0.355712 3.012778 0
M  V30 59 H -3.176091 -0.422170 3.827511 0
M  V30 END ATOM
M  V30 BEGIN BOND
M  V30 1 1 1 2
M  V30 2 1 2 3
M  V30 3 1 2 4
M  V30 4 1 4 5
M  V30 5 2 5 6
M  V30 6 1 6 7
M  V30 7 2 7 8
M  V30 8 1 8 9
M  V30 9 2 9 10
M  V30 10 1 10 11
M  V30 11 2 11 12
M  V30 12 1 12 13
M  V30 13 1 13 14
M  V30 14 1 14 15
M  V30 15 2 15 16
M  V30 16 1 15 17
M  V30 17 1 17 18
M  V30 18 1 18 19
M  V30 19 1 19 20
M  V30 20 2 20 21
M  V30 21 1 21 22
M  V30 22 2 22 23
M  V30 23 1 23 24
M  V30 24 1 24 25
M  V30 25 1 25 26
M  V30 26 1 23 27
M  V30 27 2 27 28
M  V30 28 1 19 29
M  V30 29 1 29 30
M  V30 30 1 30 31
M  V30 31 2 13 32
M  V30 32 1 8 4
M  V30 33 1 32 9
M  V30 34 1 31 17
M  V30 35 1 28 20
M  V30 36 1 26 24
M  V30 37 1 1 33
M  V30 38 1 1 34
M  V30 39 1 1 35
M  V30 40 1 2 36
M  V30 41 1 3 37
M  V30 42 1 3 38
M  V30 43 1 3 39
M  V30 44 1 5 40
M  V30 45 1 10 41
M  V30 46 1 11 42
M  V30 47 1 12 43
M  V30 48 1 14 44
M  V30 49 1 17 45 CFG=1
M  V30 50 1 18 46
M  V30 51 1 18 47
M  V30 52 1 21 48
M  V30 53 1 22 49
M  V30 54 1 24 50
M  V30 55 1 25 51
M  V30 56 1 25 52
M  V30 57 1 26 53
M  V30 58 1 26 54
M  V30 59 1 28 55
M  V30 60 1 29 56
M  V30 61 1 29 57
M  V30 62 1 30 58
M  V30 63 1 30 59
M  V30 END BOND
M  V30 END CTAB
M  END
>  <Dataset>  (348) 
ChEMBL_Kinases

>  <Ligand_Instance>  (348) 
nan

>  <PDB_ID>  (348) 
nan

>  <Standardized_SMILES>  (348) 
CC(C)n1cnnc1-c1cccc(NC(=O)[C@H]2CN(c3ccc(C4CC4)nc3)CCO2)n1

>  <Name>  (348) 
nan

>  <Pocket>  (348) 
nan

>  <ATP_Site>  (348) 
nan

>  <Peripheral>  (348) 
nan

>  <Num_H_Atoms_ProtBoundConf>  (348) 
nan

>  <Num_Resolved_Atoms>  (348) 
nan

>  <Num_Not_Resolved_Atoms>  (348) 
nan

$$$$
CHEMBL4457384
     RDKit          3D

  0  0  0  0  0  0  0  0  0  0999 V3000
M  V30 BEGIN CTAB
M  V30 COUNTS 41 44 0 0 0
M  V30 BEGIN ATOM
M  V30 1 C 4.647071 0.168517 1.574080 0
M  V30 2 C 3.486252 0.420551 2.484652 0
M  V30 3 C 3.505965 1.903756 2.890678 0
M  V30 4 N 2.159782 0.090378 1.985134 0
M  V30 5 C 1.090943 0.337742 2.890028 0
M  V30 6 N 1.397205 0.831171 4.098607 0
M  V30 7 C 0.474068 1.088327 5.023061 0
M  V30 8 C -0.837697 0.833975 4.714254 0
M  V30 9 C -1.124320 0.335369 3.486442 0
M  V30 10 N -2.336092 0.023082 3.009097 0
M  V30 11 N -2.165866 -0.418717 1.810430 0
M  V30 12 C -0.855726 -0.426005 1.427042 0
M  V30 13 C -0.247940 -0.850478 0.170891 0
M  V30 14 N 0.913492 -0.930168 -0.437693 0
M  V30 15 N 0.827015 -1.438424 -1.615597 0
M  V30 16 C -0.444887 -1.763779 -1.929907 0
M  V30 17 C -0.726290 -2.346749 -3.229924 0
M  V30 18 C -1.515346 -3.568130 -3.482234 0
M  V30 19 C -1.937896 -2.187798 -4.030855 0
M  V30 20 N -1.049389 -1.377130 -0.791119 0
M  V30 21 C -2.484003 -1.568339 -0.703222 0
M  V30 22 C -0.188195 0.062427 2.516173 0
M  V30 23 H 4.295008 -0.073722 0.543220 0
M  V30 24 H 5.364394 1.036877 1.551364 0
M  V30 25 H 5.228719 -0.727798 1.934690 0
M  V30 26 H 3.671180 -0.123434 3.456667 0
M  V30 27 H 4.405393 2.361896 2.460056 0
M  V30 28 H 2.629602 2.394250 2.410003 0
M  V30 29 H 3.440562 2.032984 3.969975 0
M  V30 30 H 2.563285 -0.210746 1.116451 0
M  V30 31 H 0.831841 1.489518 5.975943 0
M  V30 32 H -1.569871 1.041357 5.456917 0
M  V30 33 H -3.312726 0.053791 3.360347 0
M  V30 34 H 0.199163 -2.357766 -3.905728 0
M  V30 35 H -1.199672 -4.306824 -4.282433 0
M  V30 36 H -2.223417 -4.040228 -2.816389 0
M  V30 37 H -2.891677 -1.755281 -3.698537 0
M  V30 38 H -1.883728 -2.091153 -5.159311 0
M  V30 39 H -3.058991 -0.637492 -0.570029 0
M  V30 40 H -2.884167 -2.296558 -1.400538 0
M  V30 41 H -2.640209 -2.105299 0.292396 0
M  V30 END ATOM
M  V30 BEGIN BOND
M  V30 1 1 1 2
M  V30 2 1 2 3
M  V30 3 1 2 4
M  V30 4 1 4 5
M  V30 5 2 5 6
M  V30 6 1 6 7
M  V30 7 2 7 8
M  V30 8 1 8 9
M  V30 9 1 9 10
M  V30 10 1 10 11
M  V30 11 2 11 12
M  V30 12 1 12 13
M  V30 13 2 13 14
M  V30 14 1 14 15
M  V30 15 2 15 16
M  V30 16 1 16 17
M  V30 17 1 17 18
M  V30 18 1 18 19
M  V30 19 1 16 20
M  V30 20 1 20 21
M  V30 21 1 12 22
M  V30 22 1 22 5
M  V30 23 2 22 9
M  V30 24 1 20 13
M  V30 25 1 19 17
M  V30 26 1 1 23
M  V30 27 1 1 24
M  V30 28 1 1 25
M  V30 29 1 2 26
M  V30 30 1 3 27
M  V30 31 1 3 28
M  V30 32 1 3 29
M  V30 33 1 4 30
M  V30 34 1 7 31
M  V30 35 1 8 32
M  V30 36 1 10 33
M  V30 37 1 17 34
M  V30 38 1 18 35
M  V30 39 1 18 36
M  V30 40 1 19 37
M  V30 41 1 19 38
M  V30 42 1 21 39
M  V30 43 1 21 40
M  V30 44 1 21 41
M  V30 END BOND
M  V30 END CTAB
M  END
>  <Dataset>  (349) 
ChEMBL_Kinases

>  <Ligand_Instance>  (349) 
nan

>  <PDB_ID>  (349) 
nan

>  <Standardized_SMILES>  (349) 
CC(C)Nc1nccc2[nH]nc(-c3nnc(C4CC4)n3C)c12

>  <Name>  (349) 
nan

>  <Pocket>  (349) 
nan

>  <ATP_Site>  (349) 
nan

>  <Peripheral>  (349) 
nan

>  <Num_H_Atoms_ProtBoundConf>  (349) 
nan

>  <Num_Resolved_Atoms>  (349) 
nan

>  <Num_Not_Resolved_Atoms>  (349) 
nan

$$$$
CHEMBL4457324
     RDKit          3D

  0  0  0  0  0  0  0  0  0  0999 V3000
M  V30 BEGIN CTAB
M  V30 COUNTS 33 36 0 0 0
M  V30 BEGIN ATOM
M  V30 1 C -2.758092 -0.823733 4.560407 0
M  V30 2 C -1.991649 -0.124409 3.636164 0
M  V30 3 C -1.499226 -0.828598 2.555667 0
M  V30 4 C -0.690966 -0.118129 1.569573 0
M  V30 5 N -0.201822 -0.812124 0.498632 0
M  V30 6 C 0.548184 -0.208960 -0.440117 0
M  V30 7 N 1.024450 -0.987930 -1.526413 0
M  V30 8 C 0.657319 -2.396231 -1.536341 0
M  V30 9 C 1.107934 -3.302200 -2.627709 0
M  V30 10 C 1.725841 -3.377039 -1.243542 0
M  V30 11 C 0.801828 1.135622 -0.276430 0
M  V30 12 C 1.567977 1.789616 -1.219416 0
M  V30 13 C 1.848704 3.136772 -1.097741 0
M  V30 14 N 1.371536 3.834068 -0.044464 0
M  V30 15 C 0.614060 3.220649 0.901843 0
M  V30 16 C 0.319874 1.859597 0.795722 0
M  V30 17 N -0.423812 1.195272 1.698611 0
M  V30 18 C -1.734513 -2.173930 2.362342 0
M  V30 19 C -2.504678 -2.814868 3.317143 0
M  V30 20 N -3.007231 -2.152357 4.396170 0
M  V30 21 H -3.183953 -0.337603 5.443006 0
M  V30 22 H -1.794163 0.922639 3.763761 0
M  V30 23 H 1.598114 -0.704663 -2.319602 0
M  V30 24 H -0.378206 -2.586640 -1.148171 0
M  V30 25 H 0.435760 -4.147639 -2.908797 0
M  V30 26 H 1.691102 -2.887086 -3.471002 0
M  V30 27 H 2.778015 -3.033099 -1.192652 0
M  V30 28 H 1.493783 -4.266075 -0.623432 0
M  V30 29 H 1.969136 1.269134 -2.077175 0
M  V30 30 H 2.458873 3.612516 -1.867769 0
M  V30 31 H 0.203541 3.726421 1.768309 0
M  V30 32 H -1.351608 -2.732430 1.517545 0
M  V30 33 H -2.755130 -3.868634 3.270983 0
M  V30 END ATOM
M  V30 BEGIN BOND
M  V30 1 2 1 2
M  V30 2 1 2 3
M  V30 3 1 3 4
M  V30 4 2 4 5
M  V30 5 1 5 6
M  V30 6 1 6 7
M  V30 7 1 7 8
M  V30 8 1 8 9
M  V30 9 1 9 10
M  V30 10 2 6 11
M  V30 11 1 11 12
M  V30 12 2 12 13
M  V30 13 1 13 14
M  V30 14 2 14 15
M  V30 15 1 15 16
M  V30 16 2 16 17
M  V30 17 2 3 18
M  V30 18 1 18 19
M  V30 19 2 19 20
M  V30 20 1 20 1
M  V30 21 1 17 4
M  V30 22 1 10 8
M  V30 23 1 16 11
M  V30 24 1 1 21
M  V30 25 1 2 22
M  V30 26 1 7 23
M  V30 27 1 8 24
M  V30 28 1 9 25
M  V30 29 1 9 26
M  V30 30 1 10 27
M  V30 31 1 10 28
M  V30 32 1 12 29
M  V30 33 1 13 30
M  V30 34 1 15 31
M  V30 35 1 18 32
M  V30 36 1 19 33
M  V30 END BOND
M  V30 END CTAB
M  END
>  <Dataset>  (350) 
ChEMBL_Kinases

>  <Ligand_Instance>  (350) 
nan

>  <PDB_ID>  (350) 
nan

>  <Standardized_SMILES>  (350) 
c1cc(-c2nc(NC3CC3)c3ccncc3n2)ccn1

>  <Name>  (350) 
nan

>  <Pocket>  (350) 
nan

>  <ATP_Site>  (350) 
nan

>  <Peripheral>  (350) 
nan

>  <Num_H_Atoms_ProtBoundConf>  (350) 
nan

>  <Num_Resolved_Atoms>  (350) 
nan

>  <Num_Not_Resolved_Atoms>  (350) 
nan

$$$$
CHEMBL4457287
     RDKit          3D

  0  0  0  0  0  0  0  0  0  0999 V3000
M  V30 BEGIN CTAB
M  V30 COUNTS 52 55 0 0 0
M  V30 BEGIN ATOM
M  V30 1 C 2.036739 -8.333131 -3.242719 0
M  V30 2 O 2.984593 -7.399084 -2.827861 0
M  V30 3 C 2.706466 -6.106936 -2.388473 0
M  V30 4 C 1.436173 -5.576159 -2.305291 0
M  V30 5 C 1.218067 -4.291017 -1.863533 0
M  V30 6 C 2.285066 -3.472273 -1.480650 0
M  V30 7 C 2.192387 -2.103585 -0.998956 0
M  V30 8 C 1.146704 -1.589773 -0.270938 0
M  V30 9 N 1.205629 -0.305925 0.100464 0
M  V30 10 C 2.201907 0.546702 -0.171445 0
M  V30 11 N 2.268279 1.907838 0.219183 0
M  V30 12 C 1.318741 2.650087 0.962247 0
M  V30 13 C 1.625654 3.993896 1.214828 0
M  V30 14 N 0.803212 4.798864 1.908246 0
M  V30 15 C -0.357643 4.314964 2.383358 0
M  V30 16 C -1.221752 5.183286 3.117360 0
M  V30 17 N -1.905836 5.897826 3.702638 0
M  V30 18 C -0.786716 3.023110 2.212817 0
M  V30 19 O -1.875360 2.369163 2.595863 0
M  V30 20 C -3.027005 2.574828 3.283965 0
M  V30 21 C -4.219935 2.249202 2.363201 0
M  V30 22 C -4.044464 0.901893 1.710006 0
M  V30 23 C -3.465579 -0.063796 2.721709 0
M  V30 24 N -3.940577 0.404197 4.024124 0
M  V30 25 C -3.203740 1.579849 4.451378 0
M  V30 26 C 0.114274 2.233587 1.481767 0
M  V30 27 N 3.199296 0.000764 -0.883438 0
M  V30 28 C 3.240073 -1.266059 -1.303564 0
M  V30 29 C 3.536174 -4.070297 -1.589491 0
M  V30 30 C 3.799596 -5.351621 -2.026059 0
M  V30 31 H 1.240878 -8.510277 -2.477582 0
M  V30 32 H 2.581422 -9.309442 -3.357126 0
M  V30 33 H 1.547075 -8.103108 -4.216655 0
M  V30 34 H 0.594480 -6.191299 -2.596015 0
M  V30 35 H 0.241831 -3.840978 -1.784460 0
M  V30 36 H 0.323553 -2.239705 -0.028606 0
M  V30 37 H 3.144641 2.417379 -0.092478 0
M  V30 38 H 2.539425 4.492617 0.877609 0
M  V30 39 H -3.238210 3.547617 3.719945 0
M  V30 40 H -4.294979 3.002843 1.549150 0
M  V30 41 H -5.165338 2.313487 2.935342 0
M  V30 42 H -5.074552 0.553567 1.409854 0
M  V30 43 H -3.463939 0.974746 0.775838 0
M  V30 44 H -2.366045 -0.088714 2.678754 0
M  V30 45 H -3.842871 -1.094411 2.577559 0
M  V30 46 H -3.866955 -0.313527 4.752554 0
M  V30 47 H -2.242007 1.274071 4.863550 0
M  V30 48 H -3.807469 2.029491 5.261892 0
M  V30 49 H -0.106296 1.190958 1.276205 0
M  V30 50 H 4.139579 -1.520261 -1.870628 0
M  V30 51 H 4.394985 -3.466670 -1.301003 0
M  V30 52 H 4.814711 -5.715326 -2.070749 0
M  V30 END ATOM
M  V30 BEGIN BOND
M  V30 1 1 1 2
M  V30 2 1 2 3
M  V30 3 2 3 4
M  V30 4 1 4 5
M  V30 5 2 5 6
M  V30 6 1 6 7
M  V30 7 2 7 8
M  V30 8 1 8 9
M  V30 9 2 9 10
M  V30 10 1 10 11
M  V30 11 1 11 12
M  V30 12 2 12 13
M  V30 13 1 13 14
M  V30 14 2 14 15
M  V30 15 1 15 16
M  V30 16 3 16 17
M  V30 17 1 15 18
M  V30 18 1 18 19
M  V30 19 1 19 20
M  V30 20 1 20 21
M  V30 21 1 21 22
M  V30 22 1 22 23
M  V30 23 1 23 24
M  V30 24 1 24 25
M  V30 25 2 18 26
M  V30 26 1 10 27
M  V30 27 2 27 28
M  V30 28 1 6 29
M  V30 29 2 29 30
M  V30 30 1 30 3
M  V30 31 1 28 7
M  V30 32 1 26 12
M  V30 33 1 25 20
M  V30 34 1 1 31
M  V30 35 1 1 32
M  V30 36 1 1 33
M  V30 37 1 4 34
M  V30 38 1 5 35
M  V30 39 1 8 36
M  V30 40 1 11 37
M  V30 41 1 13 38
M  V30 42 1 20 39
M  V30 43 1 21 40
M  V30 44 1 21 41
M  V30 45 1 22 42
M  V30 46 1 22 43
M  V30 47 1 23 44
M  V30 48 1 23 45
M  V30 49 1 24 46
M  V30 50 1 25 47
M  V30 51 1 25 48
M  V30 52 1 26 49
M  V30 53 1 28 50
M  V30 54 1 29 51
M  V30 55 1 30 52
M  V30 END BOND
M  V30 END CTAB
M  END
>  <Dataset>  (351) 
ChEMBL_Kinases

>  <Ligand_Instance>  (351) 
nan

>  <PDB_ID>  (351) 
nan

>  <Standardized_SMILES>  (351) 
COc1ccc(-c2cnc(Nc3cnc(C#N)c(OC4CCCNC4)c3)nc2)cc1

>  <Name>  (351) 
nan

>  <Pocket>  (351) 
nan

>  <ATP_Site>  (351) 
nan

>  <Peripheral>  (351) 
nan

>  <Num_H_Atoms_ProtBoundConf>  (351) 
nan

>  <Num_Resolved_Atoms>  (351) 
nan

>  <Num_Not_Resolved_Atoms>  (351) 
nan

$$$$
CHEMBL4744430
     RDKit          3D

  0  0  0  0  0  0  0  0  0  0999 V3000
M  V30 BEGIN CTAB
M  V30 COUNTS 40 41 0 0 0
M  V30 BEGIN ATOM
M  V30 1 C 0.534809 -3.940090 3.831375 0
M  V30 2 C 0.977191 -4.098789 2.399591 0
M  V30 3 C 1.397773 -5.505197 2.080244 0
M  V30 4 O 1.969013 -3.130919 2.029706 0
M  V30 5 C 1.708838 -2.165712 1.062377 0
M  V30 6 O 0.614506 -2.074346 0.458366 0
M  V30 7 N 2.662520 -1.182280 0.660633 0
M  V30 8 C 2.105332 -0.321157 -0.358116 0
M  V30 9 C 2.202263 -0.579211 -1.711347 0
M  V30 10 C 1.602313 0.366369 -2.547822 0
M  V30 11 C 0.965245 1.470590 -2.020331 0
M  V30 12 C 0.891792 1.691209 -0.640488 0
M  V30 13 C 0.206390 2.874102 -0.144852 0
M  V30 14 N 0.752115 4.092879 -0.212898 0
M  V30 15 N -0.107651 4.975426 0.317940 0
M  V30 16 C -1.196419 4.269982 0.714604 0
M  V30 17 N -1.006018 2.961926 0.428873 0
M  V30 18 C -1.919391 1.876422 0.686989 0
M  V30 19 C -1.523953 0.972470 1.806022 0
M  V30 20 C -2.171094 1.000667 -0.524189 0
M  V30 21 N 1.478591 0.763725 0.140431 0
M  V30 22 H 0.733455 -2.896954 4.200127 0
M  V30 23 H -0.532873 -4.223190 3.936642 0
M  V30 24 H 1.160757 -4.625868 4.443343 0
M  V30 25 H 0.082673 -3.855266 1.758457 0
M  V30 26 H 0.488866 -6.074344 1.779523 0
M  V30 27 H 2.152145 -5.531799 1.264223 0
M  V30 28 H 1.753802 -5.964816 3.027722 0
M  V30 29 H 3.616465 -1.196306 1.129873 0
M  V30 30 H 2.723833 -1.472466 -1.990944 0
M  V30 31 H 1.681265 0.159393 -3.604604 0
M  V30 32 H 0.523358 2.159467 -2.743310 0
M  V30 33 H -2.067804 4.734942 1.187687 0
M  V30 34 H -2.931995 2.300966 0.942704 0
M  V30 35 H -1.027351 1.478335 2.658734 0
M  V30 36 H -0.927121 0.113178 1.416787 0
M  V30 37 H -2.444471 0.502612 2.212284 0
M  V30 38 H -2.524899 1.579054 -1.407913 0
M  V30 39 H -1.355443 0.294707 -0.738543 0
M  V30 40 H -3.045349 0.351844 -0.224073 0
M  V30 END ATOM
M  V30 BEGIN BOND
M  V30 1 1 1 2
M  V30 2 1 2 3
M  V30 3 1 2 4
M  V30 4 1 4 5
M  V30 5 2 5 6
M  V30 6 1 5 7
M  V30 7 1 7 8
M  V30 8 2 8 9
M  V30 9 1 9 10
M  V30 10 2 10 11
M  V30 11 1 11 12
M  V30 12 1 12 13
M  V30 13 2 13 14
M  V30 14 1 14 15
M  V30 15 2 15 16
M  V30 16 1 16 17
M  V30 17 1 17 18
M  V30 18 1 18 19
M  V30 19 1 18 20
M  V30 20 2 12 21
M  V30 21 1 21 8
M  V30 22 1 17 13
M  V30 23 1 1 22
M  V30 24 1 1 23
M  V30 25 1 1 24
M  V30 26 1 2 25
M  V30 27 1 3 26
M  V30 28 1 3 27
M  V30 29 1 3 28
M  V30 30 1 7 29
M  V30 31 1 9 30
M  V30 32 1 10 31
M  V30 33 1 11 32
M  V30 34 1 16 33
M  V30 35 1 18 34
M  V30 36 1 19 35
M  V30 37 1 19 36
M  V30 38 1 19 37
M  V30 39 1 20 38
M  V30 40 1 20 39
M  V30 41 1 20 40
M  V30 END BOND
M  V30 END CTAB
M  END
>  <Dataset>  (352) 
ChEMBL_Kinases

>  <Ligand_Instance>  (352) 
nan

>  <PDB_ID>  (352) 
nan

>  <Standardized_SMILES>  (352) 
CC(C)OC(=O)Nc1cccc(-c2nncn2C(C)C)n1

>  <Name>  (352) 
nan

>  <Pocket>  (352) 
nan

>  <ATP_Site>  (352) 
nan

>  <Peripheral>  (352) 
nan

>  <Num_H_Atoms_ProtBoundConf>  (352) 
nan

>  <Num_Resolved_Atoms>  (352) 
nan

>  <Num_Not_Resolved_Atoms>  (352) 
nan

$$$$
CHEMBL4744440
     RDKit          3D

  0  0  0  0  0  0  0  0  0  0999 V3000
M  V30 BEGIN CTAB
M  V30 COUNTS 54 58 0 0 0
M  V30 BEGIN ATOM
M  V30 1 O 1.789185 -0.407733 2.861219 0
M  V30 2 C 0.959501 -0.489451 3.811945 0
M  V30 3 N 1.067493 0.193003 5.035856 0
M  V30 4 C 2.160323 1.067369 5.321641 0
M  V30 5 C 3.356342 0.710169 5.911098 0
M  V30 6 C 4.327397 1.667261 6.127109 0
M  V30 7 C 4.141893 2.998550 5.767051 0
M  V30 8 C 2.945997 3.358238 5.177123 0
M  V30 9 C 2.680526 4.779595 4.763715 0
M  V30 10 F 3.890003 5.394835 4.552576 0
M  V30 11 F 1.971179 4.864025 3.593547 0
M  V30 12 F 2.002783 5.409717 5.776240 0
M  V30 13 C 1.972100 2.404127 4.959263 0
M  V30 14 N -0.178350 -1.328656 3.657176 0
M  V30 15 C -0.500121 -2.117493 2.507065 0 CFG=1
M  V30 16 C -0.745470 -3.569142 2.753263 0
M  V30 17 O -1.411713 -4.024544 1.642588 0
M  V30 18 C -2.010093 -2.956421 1.007841 0 CFG=1
M  V30 19 C -1.858636 -1.741432 1.907559 0 CFG=2
M  V30 20 O -1.787274 -0.644049 1.093807 0
M  V30 21 C -1.023423 -1.020296 0.015596 0
M  V30 22 C -1.244629 -2.489098 -0.216376 0 CFG=2
M  V30 23 N -2.011727 -2.642100 -1.434510 0
M  V30 24 C -1.349544 -2.221345 -2.621451 0
M  V30 25 N -0.102077 -1.719028 -2.606181 0
M  V30 26 C 0.517359 -1.320916 -3.751578 0
M  V30 27 C -0.123136 -1.419969 -4.991262 0
M  V30 28 C -1.397627 -1.938471 -4.965734 0
M  V30 29 C -2.065244 -2.041827 -6.257170 0
M  V30 30 C -3.363583 -2.522694 -6.598281 0
M  V30 31 C -3.722314 -2.499832 -7.900255 0
M  V30 32 C -2.854127 -2.024645 -8.863665 0
M  V30 33 S -1.342790 -1.552858 -7.784355 0
M  V30 34 N -1.967708 -2.314498 -3.836890 0
M  V30 35 H 0.352742 0.097598 5.804721 0
M  V30 36 H 3.460756 -0.336301 6.176324 0
M  V30 37 H 5.264226 1.359636 6.594686 0
M  V30 38 H 4.903993 3.751260 5.936249 0
M  V30 39 H 1.041714 2.746555 4.487130 0
M  V30 40 H -0.940114 -1.483921 4.369116 0
M  V30 41 H 0.234720 -2.032582 1.690145 0
M  V30 42 H -1.333711 -3.652239 3.688210 0
M  V30 43 H 0.234161 -4.076974 2.894900 0
M  V30 44 H -3.078895 -3.133488 0.770653 0
M  V30 45 H -2.657375 -1.690111 2.667401 0
M  V30 46 H 0.061824 -0.743744 0.106938 0
M  V30 47 H -1.384418 -0.399491 -0.842341 0
M  V30 48 H -0.300939 -3.067300 -0.374494 0
M  V30 49 H -2.978974 -3.022364 -1.517800 0
M  V30 50 H 1.527212 -0.916270 -3.723782 0
M  V30 51 H 0.433752 -1.083511 -5.854625 0
M  V30 52 H -3.938842 -2.864217 -5.753102 0
M  V30 53 H -4.698576 -2.856596 -8.194096 0
M  V30 54 H -3.034795 -1.959786 -9.933103 0
M  V30 END ATOM
M  V30 BEGIN BOND
M  V30 1 2 1 2
M  V30 2 1 2 3
M  V30 3 1 3 4
M  V30 4 2 4 5
M  V30 5 1 5 6
M  V30 6 2 6 7
M  V30 7 1 7 8
M  V30 8 1 8 9
M  V30 9 1 9 10
M  V30 10 1 9 11
M  V30 11 1 9 12
M  V30 12 2 8 13
M  V30 13 1 2 14
M  V30 14 1 14 15
M  V30 15 1 15 16
M  V30 16 1 16 17
M  V30 17 1 17 18
M  V30 18 1 18 19
M  V30 19 1 19 20
M  V30 20 1 20 21
M  V30 21 1 21 22
M  V30 22 1 22 23
M  V30 23 1 23 24
M  V30 24 2 24 25
M  V30 25 1 25 26
M  V30 26 2 26 27
M  V30 27 1 27 28
M  V30 28 1 28 29
M  V30 29 2 29 30
M  V30 30 1 30 31
M  V30 31 2 31 32
M  V30 32 1 32 33
M  V30 33 2 28 34
M  V30 34 1 13 4
M  V30 35 1 19 15
M  V30 36 1 34 24
M  V30 37 1 22 18
M  V30 38 1 33 29
M  V30 39 1 3 35
M  V30 40 1 5 36
M  V30 41 1 6 37
M  V30 42 1 7 38
M  V30 43 1 13 39
M  V30 44 1 14 40
M  V30 45 1 15 41 CFG=3
M  V30 46 1 16 42
M  V30 47 1 16 43
M  V30 48 1 18 44 CFG=3
M  V30 49 1 19 45 CFG=1
M  V30 50 1 21 46
M  V30 51 1 21 47
M  V30 52 1 22 48 CFG=3
M  V30 53 1 23 49
M  V30 54 1 26 50
M  V30 55 1 27 51
M  V30 56 1 30 52
M  V30 57 1 31 53
M  V30 58 1 32 54
M  V30 END BOND
M  V30 END CTAB
M  END
>  <Dataset>  (353) 
ChEMBL_Kinases

>  <Ligand_Instance>  (353) 
nan

>  <PDB_ID>  (353) 
nan

>  <Standardized_SMILES>  (353) 
O=C(Nc1cccc(C(F)(F)F)c1)N[C@H]1CO[C@H]2[C@@H]1OC[C@@H]2Nc1nccc(-c2cccs2)n1

>  <Name>  (353) 
nan

>  <Pocket>  (353) 
nan

>  <ATP_Site>  (353) 
nan

>  <Peripheral>  (353) 
nan

>  <Num_H_Atoms_ProtBoundConf>  (353) 
nan

>  <Num_Resolved_Atoms>  (353) 
nan

>  <Num_Not_Resolved_Atoms>  (353) 
nan

$$$$
CHEMBL4457273
     RDKit          3D

  0  0  0  0  0  0  0  0  0  0999 V3000
M  V30 BEGIN CTAB
M  V30 COUNTS 39 41 0 0 0
M  V30 BEGIN ATOM
M  V30 1 C -0.166247 3.103023 0.706668 0
M  V30 2 C -0.323418 1.704836 0.172154 0
M  V30 3 C -0.250925 1.746731 -1.345645 0
M  V30 4 N 0.710314 0.791753 0.668103 0
M  V30 5 C 0.671814 -0.562523 0.241652 0
M  V30 6 N -0.285472 -0.995651 -0.591780 0
M  V30 7 C -0.364607 -2.267460 -1.023090 0
M  V30 8 C -1.417333 -2.709034 -1.928669 0
M  V30 9 C -2.399293 -1.865780 -2.403500 0
M  V30 10 C -3.404812 -2.294824 -3.270302 0
M  V30 11 N -3.438401 -3.574653 -3.671866 0
M  V30 12 C -2.495850 -4.445950 -3.234304 0
M  V30 13 C -1.502590 -4.010941 -2.374779 0
M  V30 14 N 0.540593 -3.177141 -0.621851 0
M  V30 15 C 1.552344 -2.831420 0.226139 0
M  V30 16 C 2.490087 -3.753410 0.647775 0
M  V30 17 N 3.465290 -3.352671 1.484920 0
M  V30 18 C 3.546700 -2.081404 1.917769 0
M  V30 19 C 2.595616 -1.179171 1.480493 0
M  V30 20 C 1.584890 -1.513899 0.636493 0
M  V30 21 C -1.660999 1.152031 0.524054 0
M  V30 22 N -2.725493 1.992528 0.070470 0
M  V30 23 O -2.221686 0.186998 1.091716 0
M  V30 24 H -1.150218 3.608423 0.806537 0
M  V30 25 H 0.308486 3.117879 1.711490 0
M  V30 26 H 0.469636 3.740109 0.049221 0
M  V30 27 H -0.667720 2.740224 -1.657270 0
M  V30 28 H -0.910071 0.984087 -1.754820 0
M  V30 29 H 0.766441 1.718332 -1.746959 0
M  V30 30 H 1.388392 1.221963 1.295861 0
M  V30 31 H -2.420524 -0.843067 -2.117821 0
M  V30 32 H -4.177446 -1.640941 -3.646743 0
M  V30 33 H -2.441854 -5.493755 -3.503053 0
M  V30 34 H -0.727965 -4.697953 -2.006618 0
M  V30 35 H 2.405435 -4.779881 0.284306 0
M  V30 36 H 4.367732 -1.848346 2.591975 0
M  V30 37 H 2.708549 -0.184149 1.855589 0
M  V30 38 H -3.480809 2.608206 0.446658 0
M  V30 39 H -2.990698 2.177240 -0.935166 0
M  V30 END ATOM
M  V30 BEGIN BOND
M  V30 1 1 1 2
M  V30 2 1 2 3
M  V30 3 1 2 4
M  V30 4 1 4 5
M  V30 5 2 5 6
M  V30 6 1 6 7
M  V30 7 1 7 8
M  V30 8 2 8 9
M  V30 9 1 9 10
M  V30 10 2 10 11
M  V30 11 1 11 12
M  V30 12 2 12 13
M  V30 13 2 7 14
M  V30 14 1 14 15
M  V30 15 2 15 16
M  V30 16 1 16 17
M  V30 17 2 17 18
M  V30 18 1 18 19
M  V30 19 2 19 20
M  V30 20 1 2 21
M  V30 21 1 21 22
M  V30 22 2 21 23
M  V30 23 1 20 5
M  V30 24 1 13 8
M  V30 25 1 20 15
M  V30 26 1 1 24
M  V30 27 1 1 25
M  V30 28 1 1 26
M  V30 29 1 3 27
M  V30 30 1 3 28
M  V30 31 1 3 29
M  V30 32 1 4 30
M  V30 33 1 9 31
M  V30 34 1 10 32
M  V30 35 1 12 33
M  V30 36 1 13 34
M  V30 37 1 16 35
M  V30 38 1 18 36
M  V30 39 1 19 37
M  V30 40 1 22 38
M  V30 41 1 22 39
M  V30 END BOND
M  V30 END CTAB
M  END
>  <Dataset>  (354) 
ChEMBL_Kinases

>  <Ligand_Instance>  (354) 
nan

>  <PDB_ID>  (354) 
nan

>  <Standardized_SMILES>  (354) 
CC(C)(Nc1nc(-c2ccncc2)nc2cnccc12)C(N)=O

>  <Name>  (354) 
nan

>  <Pocket>  (354) 
nan

>  <ATP_Site>  (354) 
nan

>  <Peripheral>  (354) 
nan

>  <Num_H_Atoms_ProtBoundConf>  (354) 
nan

>  <Num_Resolved_Atoms>  (354) 
nan

>  <Num_Not_Resolved_Atoms>  (354) 
nan

$$$$
CHEMBL4457259
     RDKit          3D

  0  0  0  0  0  0  0  0  0  0999 V3000
M  V30 BEGIN CTAB
M  V30 COUNTS 45 50 0 0 0
M  V30 BEGIN ATOM
M  V30 1 O 5.035533 3.679217 -1.360784 0
M  V30 2 C 5.010528 2.438693 -1.163731 0
M  V30 3 N 6.123897 1.581963 -1.160401 0
M  V30 4 C 5.830793 0.217409 -0.912511 0
M  V30 5 C 6.598435 -0.924153 -0.828374 0
M  V30 6 C 5.962060 -2.139240 -0.568964 0
M  V30 7 C 4.603075 -2.185020 -0.404026 0
M  V30 8 C 3.868034 -1.011740 -0.496529 0
M  V30 9 C 4.441630 0.201462 -0.746945 0
M  V30 10 C 3.893036 1.537582 -0.891459 0
M  V30 11 C 2.649674 1.976670 -0.821467 0
M  V30 12 C 1.320260 1.443226 -0.577682 0
M  V30 13 C 1.162865 0.922665 0.711607 0
M  V30 14 C -0.022032 0.344762 1.120633 0
M  V30 15 C -1.094937 0.261851 0.262683 0
M  V30 16 C -2.352410 -0.271683 0.420550 0
M  V30 17 C -2.982294 -0.914724 1.545741 0
M  V30 18 C -2.688728 -1.230222 2.838930 0
M  V30 19 C -3.709194 -1.875348 3.523853 0
M  V30 20 C -3.751759 -2.330639 4.829797 0
M  V30 21 C -4.958383 -2.938071 5.185221 0
M  V30 22 C -5.996420 -3.051725 4.270790 0
M  V30 23 C -5.886984 -2.572914 2.975652 0
M  V30 24 C -4.697039 -1.955158 2.569582 0
M  V30 25 N -4.256754 -1.395358 1.436776 0
M  V30 26 N -2.920336 -0.066408 -0.772210 0
M  V30 27 N -2.095798 0.542717 -1.602340 0
M  V30 28 C -0.918347 0.779894 -1.004103 0
M  V30 29 C 0.255394 1.362872 -1.433971 0
M  V30 30 H 7.107017 1.914208 -1.326941 0
M  V30 31 H 7.671005 -0.827712 -0.970258 0
M  V30 32 H 6.579921 -3.028323 -0.506505 0
M  V30 33 H 4.076709 -3.119995 -0.199045 0
M  V30 34 H 2.809867 -1.104362 -0.363546 0
M  V30 35 H 2.387378 2.997641 -0.964695 0
M  V30 36 H 1.972080 0.947224 1.459247 0
M  V30 37 H -0.099046 -0.038115 2.110723 0
M  V30 38 H -1.747835 -1.000868 3.292855 0
M  V30 39 H -2.913837 -2.219713 5.501444 0
M  V30 40 H -5.016267 -3.302715 6.204474 0
M  V30 41 H -6.887446 -3.536692 4.642781 0
M  V30 42 H -6.686173 -2.662831 2.276415 0
M  V30 43 H -4.929888 -1.390546 0.612540 0
M  V30 44 H -2.324555 0.803374 -2.585565 0
M  V30 45 H 0.406103 1.767839 -2.410096 0
M  V30 END ATOM
M  V30 BEGIN BOND
M  V30 1 2 1 2
M  V30 2 1 2 3
M  V30 3 1 3 4
M  V30 4 2 4 5
M  V30 5 1 5 6
M  V30 6 2 6 7
M  V30 7 1 7 8
M  V30 8 2 8 9
M  V30 9 1 9 10
M  V30 10 2 10 11 CFG=2
M  V30 11 1 11 12
M  V30 12 2 12 13
M  V30 13 1 13 14
M  V30 14 2 14 15
M  V30 15 1 15 16
M  V30 16 1 16 17
M  V30 17 2 17 18
M  V30 18 1 18 19
M  V30 19 2 19 20
M  V30 20 1 20 21
M  V30 21 2 21 22
M  V30 22 1 22 23
M  V30 23 2 23 24
M  V30 24 1 24 25
M  V30 25 2 16 26
M  V30 26 1 26 27
M  V30 27 1 27 28
M  V30 28 2 28 29
M  V30 29 1 10 2
M  V30 30 1 29 12
M  V30 31 1 9 4
M  V30 32 1 28 15
M  V30 33 1 25 17
M  V30 34 1 24 19
M  V30 35 1 3 30
M  V30 36 1 5 31
M  V30 37 1 6 32
M  V30 38 1 7 33
M  V30 39 1 8 34
M  V30 40 1 11 35
M  V30 41 1 13 36
M  V30 42 1 14 37
M  V30 43 1 18 38
M  V30 44 1 20 39
M  V30 45 1 21 40
M  V30 46 1 22 41
M  V30 47 1 23 42
M  V30 48 1 25 43
M  V30 49 1 27 44
M  V30 50 1 29 45
M  V30 END BOND
M  V30 END CTAB
M  END
>  <Dataset>  (355) 
ChEMBL_Kinases

>  <Ligand_Instance>  (355) 
nan

>  <PDB_ID>  (355) 
nan

>  <Standardized_SMILES>  (355) 
O=C1Nc2ccccc2C1=Cc1ccc2c(-c3cc4ccccc4[nH]3)n[nH]c2c1

>  <Name>  (355) 
nan

>  <Pocket>  (355) 
nan

>  <ATP_Site>  (355) 
nan

>  <Peripheral>  (355) 
nan

>  <Num_H_Atoms_ProtBoundConf>  (355) 
nan

>  <Num_Resolved_Atoms>  (355) 
nan

>  <Num_Not_Resolved_Atoms>  (355) 
nan

$$$$
CHEMBL4457256
     RDKit          3D

  0  0  0  0  0  0  0  0  0  0999 V3000
M  V30 BEGIN CTAB
M  V30 COUNTS 33 36 0 0 0
M  V30 BEGIN ATOM
M  V30 1 C -0.022477 -3.362693 3.890809 0
M  V30 2 C 0.165275 -4.397957 2.841002 0
M  V30 3 N 0.219687 -5.734070 3.089294 0
M  V30 4 N 0.393419 -6.318074 1.918948 0
M  V30 5 C 0.448279 -5.397405 0.960200 0
M  V30 6 C 0.304747 -4.112416 1.499253 0
M  V30 7 C 0.311540 -2.890492 0.788877 0
M  V30 8 C 0.190074 -1.593155 1.128179 0
M  V30 9 C 0.240376 -0.618547 0.179490 0
M  V30 10 N 0.146854 0.720783 0.258560 0
M  V30 11 C 0.221773 1.523250 -0.807579 0
M  V30 12 C 0.097005 2.999651 -0.536465 0 CFG=2
M  V30 13 C -0.946972 3.324516 0.513441 0
M  V30 14 C -1.028049 4.604777 -0.331427 0
M  V30 15 N -0.794137 3.696872 -1.467444 0
M  V30 16 N 0.396849 1.108727 -2.074622 0
M  V30 17 C 0.505587 -0.212443 -2.292810 0
M  V30 18 O 0.668912 -0.786887 -3.374398 0
M  V30 19 C 0.422545 -1.004962 -1.162922 0
M  V30 20 S 0.521533 -2.872446 -1.006321 0
M  V30 21 H -0.100196 -3.855942 4.907815 0
M  V30 22 H -0.990753 -2.844295 3.678438 0
M  V30 23 H 0.802146 -2.656640 3.990515 0
M  V30 24 H 0.469823 -7.345268 1.814874 0
M  V30 25 H 0.588803 -5.678030 -0.088722 0
M  V30 26 H 0.051911 -1.339846 2.167267 0
M  V30 27 H 1.038723 3.517015 -0.301641 0
M  V30 28 H -1.905687 2.780212 0.400935 0
M  V30 29 H -0.595895 3.548055 1.519425 0
M  V30 30 H -0.103726 5.228647 -0.209298 0
M  V30 31 H -1.982805 5.122013 -0.324570 0
M  V30 32 H -0.248795 4.138221 -2.237770 0
M  V30 33 H 0.454613 1.726759 -2.896224 0
M  V30 END ATOM
M  V30 BEGIN BOND
M  V30 1 1 1 2
M  V30 2 2 2 3
M  V30 3 1 3 4
M  V30 4 1 4 5
M  V30 5 2 5 6
M  V30 6 1 6 7
M  V30 7 2 7 8
M  V30 8 1 8 9
M  V30 9 1 9 10
M  V30 10 2 10 11
M  V30 11 1 11 12
M  V30 12 1 12 13
M  V30 13 1 13 14
M  V30 14 1 14 15
M  V30 15 1 11 16
M  V30 16 1 16 17
M  V30 17 2 17 18
M  V30 18 1 17 19
M  V30 19 1 19 20
M  V30 20 1 6 2
M  V30 21 1 20 7
M  V30 22 2 19 9
M  V30 23 1 15 12
M  V30 24 1 1 21
M  V30 25 1 1 22
M  V30 26 1 1 23
M  V30 27 1 4 24
M  V30 28 1 5 25
M  V30 29 1 8 26
M  V30 30 1 12 27 CFG=1
M  V30 31 1 13 28
M  V30 32 1 13 29
M  V30 33 1 14 30
M  V30 34 1 14 31
M  V30 35 1 15 32
M  V30 36 1 16 33
M  V30 END BOND
M  V30 END CTAB
M  END
>  <Dataset>  (356) 
ChEMBL_Kinases

>  <Ligand_Instance>  (356) 
nan

>  <PDB_ID>  (356) 
nan

>  <Standardized_SMILES>  (356) 
Cc1n[nH]cc1-c1cc2nc([C@@H]3CCN3)[nH]c(=O)c2s1

>  <Name>  (356) 
nan

>  <Pocket>  (356) 
nan

>  <ATP_Site>  (356) 
nan

>  <Peripheral>  (356) 
nan

>  <Num_H_Atoms_ProtBoundConf>  (356) 
nan

>  <Num_Resolved_Atoms>  (356) 
nan

>  <Num_Not_Resolved_Atoms>  (356) 
nan

$$$$
CHEMBL4457197
     RDKit          3D

  0  0  0  0  0  0  0  0  0  0999 V3000
M  V30 BEGIN CTAB
M  V30 COUNTS 64 70 0 0 0
M  V30 BEGIN ATOM
M  V30 1 C 2.845027 -1.787856 -1.161653 0
M  V30 2 O 4.032232 -1.500230 -0.487576 0
M  V30 3 C 4.339800 -0.257341 0.005534 0
M  V30 4 C 5.516357 -0.025217 0.658931 0
M  V30 5 C 5.818993 1.215340 1.148351 0
M  V30 6 C 4.912597 2.261939 0.978498 0
M  V30 7 C 3.680438 2.118974 0.322781 0
M  V30 8 C 3.494531 0.813424 -0.126452 0
M  V30 9 C 2.980886 3.387239 0.321789 0 CFG=1
M  V30 10 C 2.245343 3.824763 -0.890954 0
M  V30 11 C 1.601025 3.719397 0.507414 0 CFG=1
M  V30 12 C 0.425229 2.876544 0.625520 0
M  V30 13 C 0.242233 1.579261 1.048121 0
M  V30 14 C -0.952782 0.897489 1.081979 0
M  V30 15 C -2.083357 1.522497 0.670242 0
M  V30 16 C -3.402539 1.132506 0.580959 0
M  V30 17 C -3.938646 -0.175450 0.945957 0
M  V30 18 C -5.117497 -0.264428 1.695408 0
M  V30 19 C -5.585021 -1.521443 2.015471 0
M  V30 20 N -4.974351 -2.663826 1.649462 0
M  V30 21 C -3.822551 -2.613428 0.917921 0
M  V30 22 N -3.169248 -3.819939 0.525972 0
M  V30 23 C -1.944890 -3.891255 -0.247079 0
M  V30 24 C -2.040082 -5.160332 -1.096524 0
M  V30 25 N -1.922283 -6.302597 -0.206589 0
M  V30 26 C -0.515958 -6.557681 0.041986 0
M  V30 27 C -2.548582 -6.042033 1.075153 0
M  V30 28 C -3.740285 -5.090451 0.909578 0
M  V30 29 C -3.360348 -1.374792 0.601573 0
M  V30 30 N -4.069431 2.196349 0.095316 0
M  V30 31 N -3.251740 3.210377 -0.119151 0
M  V30 32 C -2.011282 2.825611 0.227291 0
M  V30 33 C -0.786980 3.458328 0.215294 0
M  V30 34 C 3.968111 4.283418 0.999403 0
M  V30 35 O 3.791623 5.530165 1.185051 0
M  V30 36 N 5.132509 3.585770 1.416065 0
M  V30 37 H 2.649154 -2.884857 -1.083929 0
M  V30 38 H 2.966666 -1.497314 -2.227835 0
M  V30 39 H 1.936799 -1.308596 -0.746212 0
M  V30 40 H 6.204827 -0.844937 0.781256 0
M  V30 41 H 6.765057 1.318921 1.651122 0
M  V30 42 H 2.561326 0.629965 -0.644626 0
M  V30 43 H 2.540243 4.790085 -1.290443 0
M  V30 44 H 1.981766 3.015691 -1.606296 0
M  V30 45 H 1.374768 4.790053 0.855013 0
M  V30 46 H 1.143398 1.093781 1.386625 0
M  V30 47 H -0.941145 -0.119759 1.439519 0
M  V30 48 H -5.652120 0.610808 2.018177 0
M  V30 49 H -6.498512 -1.665881 2.597573 0
M  V30 50 H -1.053094 -3.936758 0.409412 0
M  V30 51 H -1.807336 -3.017148 -0.911125 0
M  V30 52 H -1.294269 -5.167095 -1.894192 0
M  V30 53 H -3.052729 -5.139857 -1.552240 0
M  V30 54 H -0.258736 -6.597512 1.118217 0
M  V30 55 H 0.134496 -5.764222 -0.400536 0
M  V30 56 H -0.168279 -7.533656 -0.381033 0
M  V30 57 H -2.841724 -7.016776 1.486805 0
M  V30 58 H -1.781261 -5.548980 1.715473 0
M  V30 59 H -4.245437 -5.061520 1.888050 0
M  V30 60 H -4.371062 -5.450201 0.088344 0
M  V30 61 H -2.459091 -1.328599 0.028889 0
M  V30 62 H -3.532706 4.157334 -0.497976 0
M  V30 63 H -0.814006 4.493198 -0.150849 0
M  V30 64 H 5.934389 4.007362 1.925493 0
M  V30 END ATOM
M  V30 BEGIN BOND
M  V30 1 1 1 2
M  V30 2 1 2 3
M  V30 3 2 3 4
M  V30 4 1 4 5
M  V30 5 2 5 6
M  V30 6 1 6 7
M  V30 7 2 7 8
M  V30 8 1 7 9
M  V30 9 1 9 10 CFG=3
M  V30 10 1 10 11
M  V30 11 1 11 12
M  V30 12 2 12 13
M  V30 13 1 13 14
M  V30 14 2 14 15
M  V30 15 1 15 16
M  V30 16 1 16 17
M  V30 17 2 17 18
M  V30 18 1 18 19
M  V30 19 2 19 20
M  V30 20 1 20 21
M  V30 21 1 21 22
M  V30 22 1 22 23
M  V30 23 1 23 24
M  V30 24 1 24 25
M  V30 25 1 25 26
M  V30 26 1 25 27
M  V30 27 1 27 28
M  V30 28 2 21 29
M  V30 29 2 16 30
M  V30 30 1 30 31
M  V30 31 1 31 32
M  V30 32 2 32 33
M  V30 33 1 9 34
M  V30 34 2 34 35
M  V30 35 1 34 36
M  V30 36 1 8 3
M  V30 37 1 11 9
M  V30 38 1 33 12
M  V30 39 1 36 6
M  V30 40 1 32 15
M  V30 41 1 29 17
M  V30 42 1 28 22
M  V30 43 1 1 37
M  V30 44 1 1 38
M  V30 45 1 1 39
M  V30 46 1 4 40
M  V30 47 1 5 41
M  V30 48 1 8 42
M  V30 49 1 10 43
M  V30 50 1 10 44
M  V30 51 1 11 45 CFG=1
M  V30 52 1 13 46
M  V30 53 1 14 47
M  V30 54 1 18 48
M  V30 55 1 19 49
M  V30 56 1 23 50
M  V30 57 1 23 51
M  V30 58 1 24 52
M  V30 59 1 24 53
M  V30 60 1 26 54
M  V30 61 1 26 55
M  V30 62 1 26 56
M  V30 63 1 27 57
M  V30 64 1 27 58
M  V30 65 1 28 59
M  V30 66 1 28 60
M  V30 67 1 29 61
M  V30 68 1 31 62
M  V30 69 1 33 63
M  V30 70 1 36 64
M  V30 END BOND
M  V30 END CTAB
M  END
>  <Dataset>  (357) 
ChEMBL_Kinases

>  <Ligand_Instance>  (357) 
nan

>  <PDB_ID>  (357) 
nan

>  <Standardized_SMILES>  (357) 
COc1ccc2c(c1)[C@]1(C[C@H]1c1ccc3c(-c4ccnc(N5CCN(C)CC5)c4)n[nH]c3c1)C(=O)N2

>  <Name>  (357) 
nan

>  <Pocket>  (357) 
nan

>  <ATP_Site>  (357) 
nan

>  <Peripheral>  (357) 
nan

>  <Num_H_Atoms_ProtBoundConf>  (357) 
nan

>  <Num_Resolved_Atoms>  (357) 
nan

>  <Num_Not_Resolved_Atoms>  (357) 
nan

$$$$
CHEMBL4457188
     RDKit          3D

  0  0  0  0  0  0  0  0  0  0999 V3000
M  V30 BEGIN CTAB
M  V30 COUNTS 52 55 0 0 0
M  V30 BEGIN ATOM
M  V30 1 C 0.074580 1.805204 -1.303308 0
M  V30 2 N 1.040462 1.777499 -0.222443 0
M  V30 3 C 1.861313 2.745780 0.214940 0
M  V30 4 C 2.631829 2.319480 1.269335 0
M  V30 5 C 3.632941 3.056097 2.018055 0
M  V30 6 C 4.378867 2.575494 3.070031 0
M  V30 7 Cl 4.403021 1.013118 3.846359 0
M  V30 8 C 5.240996 3.534035 3.559675 0
M  V30 9 N 5.007099 4.608192 2.786857 0
M  V30 10 N 4.058350 4.315869 1.882338 0
M  V30 11 C 3.615099 5.304941 0.921374 0
M  V30 12 C 2.219286 1.020575 1.441196 0
M  V30 13 C 1.228940 0.676918 0.516046 0
M  V30 14 C 0.697154 -0.670802 0.585857 0
M  V30 15 O 1.041781 -1.580048 1.379028 0
M  V30 16 N -0.315846 -1.187437 -0.245079 0
M  V30 17 C -0.883604 -2.518656 -0.221744 0 CFG=2
M  V30 18 C -0.465060 -3.243129 -1.499229 0
M  V30 19 N -1.272656 -2.654982 -2.553589 0
M  V30 20 C -2.575891 -3.269021 -2.383163 0
M  V30 21 C -3.238514 -2.900638 -1.100754 0
M  V30 22 C -2.359102 -2.521339 0.013782 0 CFG=1
M  V30 23 C -2.667289 -3.413619 1.166616 0
M  V30 24 C -2.497417 -4.780445 1.062196 0
M  V30 25 C -2.757789 -5.682410 2.078533 0
M  V30 26 C -3.222119 -5.188051 3.290165 0
M  V30 27 Cl -3.561908 -6.297108 4.596604 0
M  V30 28 C -3.406618 -3.826949 3.438766 0
M  V30 29 C -3.130205 -2.974821 2.390030 0
M  V30 30 H 0.170045 2.802920 -1.814699 0
M  V30 31 H 0.373792 1.082682 -2.096017 0
M  V30 32 H -0.960214 1.704248 -0.965905 0
M  V30 33 H 1.823717 3.689050 -0.281726 0
M  V30 34 H 5.972040 3.555128 4.354502 0
M  V30 35 H 4.093692 6.295978 1.105267 0
M  V30 36 H 3.776582 4.986657 -0.141596 0
M  V30 37 H 2.528445 5.505608 1.022885 0
M  V30 38 H 2.651153 0.393242 2.219283 0
M  V30 39 H -0.770000 -0.624037 -0.989337 0
M  V30 40 H -0.362370 -3.077137 0.583523 0
M  V30 41 H 0.618704 -2.973239 -1.642725 0
M  V30 42 H -0.581210 -4.324081 -1.421353 0
M  V30 43 H -0.900781 -3.019279 -3.451780 0
M  V30 44 H -2.410261 -4.377185 -2.440997 0
M  V30 45 H -3.174901 -2.980952 -3.266877 0
M  V30 46 H -3.918622 -2.037477 -1.348542 0
M  V30 47 H -3.938866 -3.728892 -0.858880 0
M  V30 48 H -2.598944 -1.483265 0.393134 0
M  V30 49 H -2.139745 -5.245417 0.152580 0
M  V30 50 H -2.613572 -6.748752 1.963019 0
M  V30 51 H -3.773778 -3.425013 4.394046 0
M  V30 52 H -3.278266 -1.911074 2.517405 0
M  V30 END ATOM
M  V30 BEGIN BOND
M  V30 1 1 1 2
M  V30 2 1 2 3
M  V30 3 2 3 4
M  V30 4 1 4 5
M  V30 5 2 5 6
M  V30 6 1 6 7
M  V30 7 1 6 8
M  V30 8 2 8 9
M  V30 9 1 9 10
M  V30 10 1 10 11
M  V30 11 1 4 12
M  V30 12 2 12 13
M  V30 13 1 13 14
M  V30 14 2 14 15
M  V30 15 1 14 16
M  V30 16 1 16 17
M  V30 17 1 17 18
M  V30 18 1 18 19
M  V30 19 1 19 20
M  V30 20 1 20 21
M  V30 21 1 21 22
M  V30 22 1 22 23
M  V30 23 2 23 24
M  V30 24 1 24 25
M  V30 25 2 25 26
M  V30 26 1 26 27
M  V30 27 1 26 28
M  V30 28 2 28 29
M  V30 29 1 13 2
M  V30 30 1 22 17
M  V30 31 1 29 23
M  V30 32 1 10 5
M  V30 33 1 1 30
M  V30 34 1 1 31
M  V30 35 1 1 32
M  V30 36 1 3 33
M  V30 37 1 8 34
M  V30 38 1 11 35
M  V30 39 1 11 36
M  V30 40 1 11 37
M  V30 41 1 12 38
M  V30 42 1 16 39
M  V30 43 1 17 40 CFG=1
M  V30 44 1 18 41
M  V30 45 1 18 42
M  V30 46 1 19 43
M  V30 47 1 20 44
M  V30 48 1 20 45
M  V30 49 1 21 46
M  V30 50 1 21 47
M  V30 51 1 22 48 CFG=1
M  V30 52 1 24 49
M  V30 53 1 25 50
M  V30 54 1 28 51
M  V30 55 1 29 52
M  V30 END BOND
M  V30 END CTAB
M  END
>  <Dataset>  (358) 
ChEMBL_Kinases

>  <Ligand_Instance>  (358) 
nan

>  <PDB_ID>  (358) 
nan

>  <Standardized_SMILES>  (358) 
Cn1cc(-c2c(Cl)cnn2C)cc1C(=O)N[C@@H]1CNCC[C@H]1c1ccc(Cl)cc1

>  <Name>  (358) 
nan

>  <Pocket>  (358) 
nan

>  <ATP_Site>  (358) 
nan

>  <Peripheral>  (358) 
nan

>  <Num_H_Atoms_ProtBoundConf>  (358) 
nan

>  <Num_Resolved_Atoms>  (358) 
nan

>  <Num_Not_Resolved_Atoms>  (358) 
nan

$$$$
CHEMBL4744966
     RDKit          3D

  0  0  0  0  0  0  0  0  0  0999 V3000
M  V30 BEGIN CTAB
M  V30 COUNTS 81 85 0 0 0
M  V30 BEGIN ATOM
M  V30 1 N 5.737358 -3.770348 4.450579 0
M  V30 2 C 6.015900 -2.403936 4.612663 0
M  V30 3 C 5.924979 -1.493790 3.591914 0
M  V30 4 C 5.548912 -1.643493 2.196557 0
M  V30 5 O 5.222133 -2.745627 1.706294 0
M  V30 6 N 5.545257 -0.533779 1.349868 0
M  V30 7 C 5.236820 -0.361709 -0.037381 0
M  V30 8 C 3.760978 -0.384253 -0.260303 0
M  V30 9 C 3.075138 -1.506514 -0.722611 0
M  V30 10 C 1.708666 -1.510073 -0.891439 0
M  V30 11 C 0.973752 -0.375442 -0.598416 0
M  V30 12 C -0.490733 -0.245884 -0.792860 0
M  V30 13 O -0.961507 0.057457 0.352418 0
M  V30 14 N -1.284732 -0.403158 -1.962440 0
M  V30 15 C -2.687176 -0.199544 -1.707512 0 CFG=1
M  V30 16 C -3.152361 1.199346 -2.011265 0
M  V30 17 C -4.620027 1.285954 -1.681181 0
M  V30 18 C -5.243331 2.621730 -1.881072 0
M  V30 19 C -6.724994 2.485903 -1.498688 0
M  V30 20 C -7.484447 3.716092 -1.960820 0
M  V30 21 C -6.525154 4.884464 -1.952115 0
M  V30 22 C -5.521702 4.707155 -3.079341 0
M  V30 23 C -5.137619 3.221823 -3.232706 0
M  V30 24 C -3.462659 -1.181902 -2.468727 0
M  V30 25 O -4.642063 -1.602672 -2.750096 0
M  V30 26 N -2.735274 -2.135840 -3.281652 0
M  V30 27 C -3.182550 -3.193433 -4.123981 0
M  V30 28 C -3.449694 -4.521220 -3.823513 0
M  V30 29 C -3.866512 -5.354183 -4.834833 0
M  V30 30 C -4.015487 -4.880364 -6.119352 0
M  V30 31 Cl -4.547894 -5.980799 -7.367737 0
M  V30 32 C -3.760159 -3.565682 -6.464115 0
M  V30 33 C -3.338067 -2.732290 -5.421232 0
M  V30 34 C 1.660298 0.745415 -0.136733 0
M  V30 35 C 3.029037 0.750483 0.032738 0
M  V30 36 C 6.290694 -0.288408 4.207230 0
M  V30 37 N 6.558904 -0.560492 5.495049 0
M  V30 38 N 6.400334 -1.826386 5.759925 0
M  V30 39 C 6.628401 -2.324997 7.061200 0
M  V30 40 C 6.141780 -1.595463 8.149781 0
M  V30 41 C 6.265353 -1.911171 9.489564 0
M  V30 42 C 6.950767 -3.080241 9.735867 0
M  V30 43 C 7.458009 -3.847257 8.691349 0
M  V30 44 C 7.292427 -3.465060 7.378465 0
M  V30 45 H 6.025928 -4.684222 4.845501 0
M  V30 46 H 5.043835 -4.115985 3.727133 0
M  V30 47 H 5.824756 0.390176 1.783657 0
M  V30 48 H 5.654204 0.518958 -0.501629 0
M  V30 49 H 5.694494 -1.234617 -0.561739 0
M  V30 50 H 3.645819 -2.404501 -0.951678 0
M  V30 51 H 1.159967 -2.360040 -1.245511 0
M  V30 52 H -0.611534 -0.629317 -2.720660 0
M  V30 53 H -2.902162 -0.327137 -0.609734 0
M  V30 54 H -2.668873 1.944213 -1.334022 0
M  V30 55 H -2.975117 1.388101 -3.079271 0
M  V30 56 H -5.236424 0.497452 -2.163449 0
M  V30 57 H -4.678464 1.026805 -0.584084 0
M  V30 58 H -4.804939 3.368033 -1.161221 0
M  V30 59 H -7.143460 1.583964 -2.003640 0
M  V30 60 H -6.867437 2.346100 -0.416989 0
M  V30 61 H -8.292737 3.888332 -1.226909 0
M  V30 62 H -7.925127 3.518016 -2.937617 0
M  V30 63 H -7.117277 5.821404 -2.124209 0
M  V30 64 H -6.067812 4.957805 -0.957137 0
M  V30 65 H -5.903809 5.072715 -4.031393 0
M  V30 66 H -4.625233 5.285452 -2.775470 0
M  V30 67 H -4.073193 3.228786 -3.571724 0
M  V30 68 H -5.809565 2.801935 -3.987961 0
M  V30 69 H -1.684200 -2.205743 -3.389886 0
M  V30 70 H -3.289546 -4.738987 -2.779315 0
M  V30 71 H -4.057973 -6.378893 -4.536272 0
M  V30 72 H -3.887762 -3.255427 -7.479191 0
M  V30 73 H -3.160701 -1.706243 -5.790866 0
M  V30 74 H 1.189837 1.700456 0.130744 0
M  V30 75 H 3.591668 1.625108 0.395423 0
M  V30 76 H 6.343258 0.683578 3.727154 0
M  V30 77 H 5.601351 -0.669083 7.908573 0
M  V30 78 H 5.839061 -1.250385 10.226914 0
M  V30 79 H 7.065119 -3.352533 10.791593 0
M  V30 80 H 7.984899 -4.746739 9.012085 0
M  V30 81 H 7.687874 -4.064885 6.604635 0
M  V30 END ATOM
M  V30 BEGIN BOND
M  V30 1 1 1 2
M  V30 2 2 2 3
M  V30 3 1 3 4
M  V30 4 2 4 5
M  V30 5 1 4 6
M  V30 6 1 6 7
M  V30 7 1 7 8
M  V30 8 2 8 9
M  V30 9 1 9 10
M  V30 10 2 10 11
M  V30 11 1 11 12
M  V30 12 2 12 13
M  V30 13 1 12 14
M  V30 14 1 14 15
M  V30 15 1 15 16
M  V30 16 1 16 17
M  V30 17 1 17 18
M  V30 18 1 18 19
M  V30 19 1 19 20
M  V30 20 1 20 21
M  V30 21 1 21 22
M  V30 22 1 22 23
M  V30 23 1 15 24
M  V30 24 2 24 25
M  V30 25 1 24 26
M  V30 26 1 26 27
M  V30 27 2 27 28
M  V30 28 1 28 29
M  V30 29 2 29 30
M  V30 30 1 30 31
M  V30 31 1 30 32
M  V30 32 2 32 33
M  V30 33 1 11 34
M  V30 34 2 34 35
M  V30 35 1 3 36
M  V30 36 2 36 37
M  V30 37 1 37 38
M  V30 38 1 38 39
M  V30 39 2 39 40
M  V30 40 1 40 41
M  V30 41 2 41 42
M  V30 42 1 42 43
M  V30 43 2 43 44
M  V30 44 1 38 2
M  V30 45 1 44 39
M  V30 46 1 35 8
M  V30 47 1 23 18
M  V30 48 1 33 27
M  V30 49 1 1 45
M  V30 50 1 1 46
M  V30 51 1 6 47
M  V30 52 1 7 48
M  V30 53 1 7 49
M  V30 54 1 9 50
M  V30 55 1 10 51
M  V30 56 1 14 52
M  V30 57 1 15 53 CFG=1
M  V30 58 1 16 54
M  V30 59 1 16 55
M  V30 60 1 17 56
M  V30 61 1 17 57
M  V30 62 1 18 58
M  V30 63 1 19 59
M  V30 64 1 19 60
M  V30 65 1 20 61
M  V30 66 1 20 62
M  V30 67 1 21 63
M  V30 68 1 21 64
M  V30 69 1 22 65
M  V30 70 1 22 66
M  V30 71 1 23 67
M  V30 72 1 23 68
M  V30 73 1 26 69
M  V30 74 1 28 70
M  V30 75 1 29 71
M  V30 76 1 32 72
M  V30 77 1 33 73
M  V30 78 1 34 74
M  V30 79 1 35 75
M  V30 80 1 36 76
M  V30 81 1 40 77
M  V30 82 1 41 78
M  V30 83 1 42 79
M  V30 84 1 43 80
M  V30 85 1 44 81
M  V30 END BOND
M  V30 END CTAB
M  END
>  <Dataset>  (359) 
ChEMBL_Kinases

>  <Ligand_Instance>  (359) 
nan

>  <PDB_ID>  (359) 
nan

>  <Standardized_SMILES>  (359) 
Nc1c(C(=O)NCc2ccc(C(=O)N[C@@H](CCC3CCCCC3)C(=O)Nc3ccc(Cl)cc3)cc2)cnn1-c1ccccc1

>  <Name>  (359) 
nan

>  <Pocket>  (359) 
nan

>  <ATP_Site>  (359) 
nan

>  <Peripheral>  (359) 
nan

>  <Num_H_Atoms_ProtBoundConf>  (359) 
nan

>  <Num_Resolved_Atoms>  (359) 
nan

>  <Num_Not_Resolved_Atoms>  (359) 
nan

$$$$
CHEMBL4744568
     RDKit          3D

  0  0  0  0  0  0  0  0  0  0999 V3000
M  V30 BEGIN CTAB
M  V30 COUNTS 41 43 0 0 0
M  V30 BEGIN ATOM
M  V30 1 C 0.728802 -5.161584 2.284956 0
M  V30 2 O -0.065931 -4.726163 1.178339 0
M  V30 3 C -0.002140 -3.384847 0.785240 0
M  V30 4 C 0.831446 -2.563204 1.498465 0
M  V30 5 C 0.873455 -1.246876 1.087962 0
M  V30 6 N 1.730556 -0.355673 1.791008 0
M  V30 7 C 1.987427 1.042634 1.760772 0
M  V30 8 C 3.257991 1.536140 1.440471 0
M  V30 9 C 3.563611 2.879868 1.397620 0
M  V30 10 N 2.567990 3.736249 1.683426 0
M  V30 11 C 1.320669 3.372572 2.001637 0
M  V30 12 C 0.354271 4.315839 2.286669 0
M  V30 13 C -0.926909 3.899950 2.617355 0
M  V30 14 C -1.231909 2.534942 2.660366 0
M  V30 15 F -2.482876 2.145965 2.983970 0
M  V30 16 C -0.222795 1.640564 2.365176 0
M  V30 17 C 1.058344 2.021160 2.032995 0
M  V30 18 C 0.101384 -0.841295 0.018831 0
M  V30 19 C -0.731265 -1.686936 -0.684875 0
M  V30 20 O -1.493597 -1.242386 -1.755971 0
M  V30 21 C -1.381213 0.126953 -2.100500 0
M  V30 22 C -0.786335 -3.007250 -0.288635 0
M  V30 23 O -1.609101 -3.917273 -0.957912 0
M  V30 24 C -1.064436 -4.637387 -2.073020 0
M  V30 25 H 1.809369 -5.095008 2.046026 0
M  V30 26 H 0.498789 -4.498449 3.143999 0
M  V30 27 H 0.404778 -6.174707 2.536795 0
M  V30 28 H 1.427790 -2.876839 2.324322 0
M  V30 29 H 2.371770 -0.699443 2.533500 0
M  V30 30 H 4.036878 0.793075 1.214962 0
M  V30 31 H 4.573478 3.176354 1.140275 0
M  V30 32 H 0.675840 5.348318 2.229963 0
M  V30 33 H -1.647720 4.671845 2.831785 0
M  V30 34 H -0.506773 0.601104 2.417636 0
M  V30 35 H 0.170072 0.219143 -0.270020 0
M  V30 36 H -0.321557 0.337823 -2.286899 0
M  V30 37 H -1.696262 0.716886 -1.211181 0
M  V30 38 H -1.970484 0.380201 -3.002478 0
M  V30 39 H -0.893672 -5.711369 -1.817073 0
M  V30 40 H -0.055784 -4.249095 -2.331611 0
M  V30 41 H -1.701117 -4.517853 -2.959266 0
M  V30 END ATOM
M  V30 BEGIN BOND
M  V30 1 1 1 2
M  V30 2 1 2 3
M  V30 3 2 3 4
M  V30 4 1 4 5
M  V30 5 1 5 6
M  V30 6 1 6 7
M  V30 7 2 7 8
M  V30 8 1 8 9
M  V30 9 2 9 10
M  V30 10 1 10 11
M  V30 11 2 11 12
M  V30 12 1 12 13
M  V30 13 2 13 14
M  V30 14 1 14 15
M  V30 15 1 14 16
M  V30 16 2 16 17
M  V30 17 2 5 18
M  V30 18 1 18 19
M  V30 19 1 19 20
M  V30 20 1 20 21
M  V30 21 2 19 22
M  V30 22 1 22 23
M  V30 23 1 23 24
M  V30 24 1 22 3
M  V30 25 1 17 7
M  V30 26 1 17 11
M  V30 27 1 1 25
M  V30 28 1 1 26
M  V30 29 1 1 27
M  V30 30 1 4 28
M  V30 31 1 6 29
M  V30 32 1 8 30
M  V30 33 1 9 31
M  V30 34 1 12 32
M  V30 35 1 13 33
M  V30 36 1 16 34
M  V30 37 1 18 35
M  V30 38 1 21 36
M  V30 39 1 21 37
M  V30 40 1 21 38
M  V30 41 1 24 39
M  V30 42 1 24 40
M  V30 43 1 24 41
M  V30 END BOND
M  V30 END CTAB
M  END
>  <Dataset>  (360) 
ChEMBL_Kinases

>  <Ligand_Instance>  (360) 
nan

>  <PDB_ID>  (360) 
nan

>  <Standardized_SMILES>  (360) 
COc1cc(Nc2ccnc3ccc(F)cc23)cc(OC)c1OC

>  <Name>  (360) 
nan

>  <Pocket>  (360) 
nan

>  <ATP_Site>  (360) 
nan

>  <Peripheral>  (360) 
nan

>  <Num_H_Atoms_ProtBoundConf>  (360) 
nan

>  <Num_Resolved_Atoms>  (360) 
nan

>  <Num_Not_Resolved_Atoms>  (360) 
nan

$$$$
CHEMBL4744604
     RDKit          3D

  0  0  0  0  0  0  0  0  0  0999 V3000
M  V30 BEGIN CTAB
M  V30 COUNTS 38 40 0 0 0
M  V30 BEGIN ATOM
M  V30 1 N 1.245661 -5.242095 2.162985 0
M  V30 2 C 0.850089 -4.175540 1.267833 0
M  V30 3 C 2.064451 -3.374734 0.778990 0
M  V30 4 N 1.566793 -2.334125 -0.114543 0
M  V30 5 C 2.484595 -1.409916 -0.740586 0
M  V30 6 O 3.725002 -1.555885 -0.469568 0
M  V30 7 C 1.811720 -0.421969 -1.614511 0
M  V30 8 C 2.006717 -0.187516 -2.961726 0
M  V30 9 N 1.272256 0.764082 -3.554893 0
M  V30 10 C 0.379000 1.461723 -2.856994 0
M  V30 11 N -0.396587 2.467085 -3.500130 0
M  V30 12 N 0.139373 1.286448 -1.546716 0
M  V30 13 N -0.693106 1.867827 -0.683582 0
M  V30 14 C -0.527678 1.303633 0.533608 0
M  V30 15 C -0.956295 1.297498 1.926019 0
M  V30 16 C -0.092783 1.902115 2.841634 0
M  V30 17 C -0.385429 1.956892 4.207248 0
M  V30 18 C -1.578039 1.373725 4.575437 0
M  V30 19 C -2.434337 0.774682 3.673398 0
M  V30 20 O -3.597892 0.230385 4.196008 0
M  V30 21 C -2.140889 0.723662 2.324742 0
M  V30 22 N 0.428373 0.375056 0.350919 0
M  V30 23 C 0.860491 0.339135 -0.922998 0
M  V30 24 H 0.889483 -5.101591 3.139488 0
M  V30 25 H 0.903831 -6.173483 1.846866 0
M  V30 26 H 0.144020 -3.494096 1.804227 0
M  V30 27 H 0.369414 -4.596860 0.354781 0
M  V30 28 H 2.809452 -4.029477 0.333647 0
M  V30 29 H 2.473872 -2.921758 1.723735 0
M  V30 30 H 0.519744 -2.258842 -0.301481 0
M  V30 31 H 2.775908 -0.847216 -3.382410 0
M  V30 32 H -0.226518 3.352233 -4.046445 0
M  V30 33 H -1.430204 2.385001 -3.472849 0
M  V30 34 H 0.839375 2.345917 2.489882 0
M  V30 35 H 0.275185 2.419075 4.904707 0
M  V30 36 H -1.777234 1.432131 5.650213 0
M  V30 37 H -4.332979 -0.022190 3.548619 0
M  V30 38 H -2.790117 0.267855 1.616627 0
M  V30 END ATOM
M  V30 BEGIN BOND
M  V30 1 1 1 2
M  V30 2 1 2 3
M  V30 3 1 3 4
M  V30 4 1 4 5
M  V30 5 2 5 6
M  V30 6 1 5 7
M  V30 7 2 7 8
M  V30 8 1 8 9
M  V30 9 2 9 10
M  V30 10 1 10 11
M  V30 11 1 10 12
M  V30 12 1 12 13
M  V30 13 2 13 14
M  V30 14 1 14 15
M  V30 15 2 15 16
M  V30 16 1 16 17
M  V30 17 2 17 18
M  V30 18 1 18 19
M  V30 19 1 19 20
M  V30 20 2 19 21
M  V30 21 1 14 22
M  V30 22 2 22 23
M  V30 23 1 23 7
M  V30 24 1 23 12
M  V30 25 1 21 15
M  V30 26 1 1 24
M  V30 27 1 1 25
M  V30 28 1 2 26
M  V30 29 1 2 27
M  V30 30 1 3 28
M  V30 31 1 3 29
M  V30 32 1 4 30
M  V30 33 1 8 31
M  V30 34 1 11 32
M  V30 35 1 11 33
M  V30 36 1 16 34
M  V30 37 1 17 35
M  V30 38 1 18 36
M  V30 39 1 20 37
M  V30 40 1 21 38
M  V30 END BOND
M  V30 END CTAB
M  END
>  <Dataset>  (361) 
ChEMBL_Kinases

>  <Ligand_Instance>  (361) 
nan

>  <PDB_ID>  (361) 
nan

>  <Standardized_SMILES>  (361) 
NCCNC(=O)c1cnc(N)n2nc(-c3cccc(O)c3)nc12

>  <Name>  (361) 
nan

>  <Pocket>  (361) 
nan

>  <ATP_Site>  (361) 
nan

>  <Peripheral>  (361) 
nan

>  <Num_H_Atoms_ProtBoundConf>  (361) 
nan

>  <Num_Resolved_Atoms>  (361) 
nan

>  <Num_Not_Resolved_Atoms>  (361) 
nan

$$$$
CHEMBL4744618
     RDKit          3D

  0  0  0  0  0  0  0  0  0  0999 V3000
M  V30 BEGIN CTAB
M  V30 COUNTS 45 49 0 0 0
M  V30 BEGIN ATOM
M  V30 1 C 3.526914 -4.968437 1.467661 0
M  V30 2 O 2.321286 -4.228642 1.374292 0
M  V30 3 C 2.381656 -2.952536 0.825250 0
M  V30 4 C 3.503829 -2.302501 0.347637 0
M  V30 5 N 3.390807 -1.058308 -0.156528 0
M  V30 6 N 4.295267 -0.239272 -0.665958 0
M  V30 7 C 3.725674 0.915492 -1.049653 0
M  V30 8 C 2.366812 0.850847 -0.775949 0
M  V30 9 C 1.269096 1.801756 -0.977860 0
M  V30 10 C 1.062802 2.532075 -2.130528 0
M  V30 11 C -0.019241 3.386948 -2.162650 0
M  V30 12 N -0.868195 3.520000 -1.101333 0
M  V30 13 C -0.653259 2.794353 0.028305 0
M  V30 14 O -1.642955 3.107065 0.947013 0
M  V30 15 C -1.721397 2.537319 2.219154 0
M  V30 16 C -3.014934 2.292511 2.893998 0
M  V30 17 C -2.095736 3.384856 3.384367 0
M  V30 18 C 0.417280 1.929210 0.099228 0
M  V30 19 C 2.211296 -0.410256 -0.215916 0
M  V30 20 N 1.119582 -1.046177 0.250221 0
M  V30 21 C 1.165740 -2.288708 0.765823 0
M  V30 22 C -0.129110 -2.793796 1.213796 0
M  V30 23 C -0.309545 -3.441214 2.417756 0
M  V30 24 N -1.639173 -3.745301 2.453501 0
M  V30 25 N -2.211091 -3.306373 1.341770 0
M  V30 26 C -3.620132 -3.403636 0.934696 0
M  V30 27 C -1.331140 -2.702467 0.521570 0
M  V30 28 H 3.818433 -5.378153 0.460867 0
M  V30 29 H 4.379056 -4.349615 1.807052 0
M  V30 30 H 3.429271 -5.838022 2.153410 0
M  V30 31 H 4.413485 -2.844200 0.411098 0
M  V30 32 H 4.159468 1.804138 -1.503111 0
M  V30 33 H 1.758903 2.394709 -2.943851 0
M  V30 34 H -0.151792 3.951746 -3.096257 0
M  V30 35 H -0.922766 1.803098 2.447962 0
M  V30 36 H -3.970210 2.671472 2.491477 0
M  V30 37 H -3.142609 1.363022 3.463620 0
M  V30 38 H -2.371834 4.443841 3.192090 0
M  V30 39 H -1.683485 3.226538 4.383785 0
M  V30 40 H 0.472157 1.425524 1.031303 0
M  V30 41 H 0.389634 -3.688772 3.205084 0
M  V30 42 H -4.228938 -3.835435 1.743973 0
M  V30 43 H -3.930669 -2.395076 0.615699 0
M  V30 44 H -3.677455 -4.054052 0.037773 0
M  V30 45 H -1.413947 -2.238575 -0.431490 0
M  V30 END ATOM
M  V30 BEGIN BOND
M  V30 1 1 1 2
M  V30 2 1 2 3
M  V30 3 2 3 4
M  V30 4 1 4 5
M  V30 5 1 5 6
M  V30 6 2 6 7
M  V30 7 1 7 8
M  V30 8 1 8 9
M  V30 9 2 9 10
M  V30 10 1 10 11
M  V30 11 2 11 12
M  V30 12 1 12 13
M  V30 13 1 13 14
M  V30 14 1 14 15
M  V30 15 1 15 16
M  V30 16 1 16 17
M  V30 17 2 13 18
M  V30 18 2 8 19
M  V30 19 1 19 20
M  V30 20 2 20 21
M  V30 21 1 21 22
M  V30 22 1 22 23
M  V30 23 2 23 24
M  V30 24 1 24 25
M  V30 25 1 25 26
M  V30 26 1 25 27
M  V30 27 1 21 3
M  V30 28 2 27 22
M  V30 29 1 19 5
M  V30 30 1 18 9
M  V30 31 1 17 15
M  V30 32 1 1 28
M  V30 33 1 1 29
M  V30 34 1 1 30
M  V30 35 1 4 31
M  V30 36 1 7 32
M  V30 37 1 10 33
M  V30 38 1 11 34
M  V30 39 1 15 35
M  V30 40 1 16 36
M  V30 41 1 16 37
M  V30 42 1 17 38
M  V30 43 1 17 39
M  V30 44 1 18 40
M  V30 45 1 23 41
M  V30 46 1 26 42
M  V30 47 1 26 43
M  V30 48 1 26 44
M  V30 49 1 27 45
M  V30 END BOND
M  V30 END CTAB
M  END
>  <Dataset>  (362) 
ChEMBL_Kinases

>  <Ligand_Instance>  (362) 
nan

>  <PDB_ID>  (362) 
nan

>  <Standardized_SMILES>  (362) 
COc1cn2ncc(-c3ccnc(OC4CC4)c3)c2nc1-c1cnn(C)c1

>  <Name>  (362) 
nan

>  <Pocket>  (362) 
nan

>  <ATP_Site>  (362) 
nan

>  <Peripheral>  (362) 
nan

>  <Num_H_Atoms_ProtBoundConf>  (362) 
nan

>  <Num_Resolved_Atoms>  (362) 
nan

>  <Num_Not_Resolved_Atoms>  (362) 
nan

$$$$
CHEMBL4744662
     RDKit          3D

  0  0  0  0  0  0  0  0  0  0999 V3000
M  V30 BEGIN CTAB
M  V30 COUNTS 63 70 0 0 0
M  V30 BEGIN ATOM
M  V30 1 C -2.752729 0.459062 -2.685923 0
M  V30 2 O -1.994557 -0.064819 -1.652439 0
M  V30 3 C -1.169206 -1.122722 -2.032417 0 CFG=2
M  V30 4 C -1.723600 -2.337393 -1.385845 0 CFG=2
M  V30 5 N -2.682868 -2.032109 -0.301190 0
M  V30 6 C -4.105227 -2.419305 -0.319371 0
M  V30 7 C -2.525597 -1.350606 0.937766 0
M  V30 8 O -3.243515 -1.034334 1.920160 0
M  V30 9 C -0.764674 -3.340066 -0.869188 0
M  V30 10 C 0.581080 -2.826734 -0.556635 0 CFG=1
M  V30 11 O 1.032523 -1.948007 -1.444223 0
M  V30 12 C 0.286810 -0.878156 -1.867370 0 CFG=1
M  V30 13 C 0.980123 -0.491919 -3.177904 0
M  V30 14 N 0.445899 0.137457 -0.841058 0
M  V30 15 C 0.387515 1.458726 -0.987617 0
M  V30 16 C 0.172052 2.277090 -2.075716 0
M  V30 17 C 0.138490 3.654303 -2.061986 0
M  V30 18 C 0.337301 4.288988 -0.853120 0
M  V30 19 C 0.558458 3.529463 0.276983 0
M  V30 20 C 0.578965 2.152712 0.189928 0
M  V30 21 C 0.771397 1.212732 1.150986 0
M  V30 22 C 1.003946 1.235413 2.510153 0
M  V30 23 C 1.150333 0.068450 3.219174 0
M  V30 24 C 1.064200 -1.120517 2.567933 0
M  V30 25 C 1.167687 -2.392094 3.025675 0
M  V30 26 C 1.379851 -3.063219 4.190944 0
M  V30 27 C 1.432155 -4.429842 4.338759 0
M  V30 28 C 1.253387 -5.223163 3.199181 0
M  V30 29 C 1.034488 -4.582107 1.990964 0
M  V30 30 C 0.998608 -3.197489 1.941439 0
M  V30 31 N 0.795816 -2.436235 0.840942 0
M  V30 32 C 0.836706 -1.149547 1.234600 0
M  V30 33 C 0.685888 0.027742 0.502951 0
M  V30 34 C 1.375625 0.462148 4.583268 0
M  V30 35 O 1.569935 -0.148599 5.641228 0
M  V30 36 N 1.363533 1.868662 4.688081 0
M  V30 37 C 1.127765 2.455830 3.383963 0
M  V30 38 H -3.434951 -0.283637 -3.143383 0
M  V30 39 H -3.391153 1.248719 -2.242481 0
M  V30 40 H -2.122557 0.879695 -3.491287 0
M  V30 41 H -1.357639 -1.226354 -3.143218 0
M  V30 42 H -2.399286 -2.890402 -2.116204 0
M  V30 43 H -4.686685 -1.488355 -0.366842 0
M  V30 44 H -4.315948 -3.005044 -1.238023 0
M  V30 45 H -4.408371 -2.991032 0.554899 0
M  V30 46 H -1.995882 -0.811555 1.708884 0
M  V30 47 H -1.224874 -3.918103 -0.032344 0
M  V30 48 H -0.640703 -4.131896 -1.674839 0
M  V30 49 H 1.268284 -3.736650 -0.661726 0
M  V30 50 H 1.540206 -1.378969 -3.622267 0
M  V30 51 H 0.235930 -0.297968 -3.996587 0
M  V30 52 H 1.759218 0.256106 -3.061208 0
M  V30 53 H 0.007252 1.829543 -3.041406 0
M  V30 54 H -0.032275 4.248589 -2.933126 0
M  V30 55 H 0.336518 5.359542 -0.700748 0
M  V30 56 H 0.718620 4.008765 1.246562 0
M  V30 57 H 1.525764 -2.545179 5.106355 0
M  V30 58 H 1.601895 -4.944349 5.273642 0
M  V30 59 H 1.282306 -6.298266 3.243855 0
M  V30 60 H 0.895890 -5.173186 1.110242 0
M  V30 61 H 1.483752 2.542460 5.474519 0
M  V30 62 H 0.182817 3.022249 3.437104 0
M  V30 63 H 1.967843 3.092915 3.106844 0
M  V30 END ATOM
M  V30 BEGIN BOND
M  V30 1 1 1 2
M  V30 2 1 2 3
M  V30 3 1 3 4
M  V30 4 1 4 5
M  V30 5 1 5 6
M  V30 6 1 5 7
M  V30 7 2 7 8
M  V30 8 1 4 9
M  V30 9 1 9 10
M  V30 10 1 10 11
M  V30 11 1 11 12
M  V30 12 1 12 13 CFG=3
M  V30 13 1 12 14
M  V30 14 1 14 15
M  V30 15 2 15 16
M  V30 16 1 16 17
M  V30 17 2 17 18
M  V30 18 1 18 19
M  V30 19 2 19 20
M  V30 20 1 20 21
M  V30 21 2 21 22
M  V30 22 1 22 23
M  V30 23 2 23 24
M  V30 24 1 24 25
M  V30 25 2 25 26
M  V30 26 1 26 27
M  V30 27 2 27 28
M  V30 28 1 28 29
M  V30 29 2 29 30
M  V30 30 1 30 31
M  V30 31 1 31 32
M  V30 32 2 32 33
M  V30 33 1 23 34
M  V30 34 2 34 35
M  V30 35 1 34 36
M  V30 36 1 36 37
M  V30 37 1 12 3
M  V30 38 1 33 14
M  V30 39 1 31 10
M  V30 40 1 20 15
M  V30 41 1 33 21
M  V30 42 1 37 22
M  V30 43 1 32 24
M  V30 44 1 30 25
M  V30 45 1 1 38
M  V30 46 1 1 39
M  V30 47 1 1 40
M  V30 48 1 3 41 CFG=3
M  V30 49 1 4 42 CFG=3
M  V30 50 1 6 43
M  V30 51 1 6 44
M  V30 52 1 6 45
M  V30 53 1 7 46
M  V30 54 1 9 47
M  V30 55 1 9 48
M  V30 56 1 10 49 CFG=3
M  V30 57 1 13 50
M  V30 58 1 13 51
M  V30 59 1 13 52
M  V30 60 1 16 53
M  V30 61 1 17 54
M  V30 62 1 18 55
M  V30 63 1 19 56
M  V30 64 1 26 57
M  V30 65 1 27 58
M  V30 66 1 28 59
M  V30 67 1 29 60
M  V30 68 1 36 61
M  V30 69 1 37 62
M  V30 70 1 37 63
M  V30 END BOND
M  V30 END CTAB
M  END
>  <Dataset>  (363) 
ChEMBL_Kinases

>  <Ligand_Instance>  (363) 
nan

>  <PDB_ID>  (363) 
nan

>  <Standardized_SMILES>  (363) 
CO[C@@H]1[C@H](N(C)C=O)C[C@H]2O[C@]1(C)n1c3ccccc3c3c4c(c5c6ccccc6n2c5c31)C(=O)NC4

>  <Name>  (363) 
nan

>  <Pocket>  (363) 
nan

>  <ATP_Site>  (363) 
nan

>  <Peripheral>  (363) 
nan

>  <Num_H_Atoms_ProtBoundConf>  (363) 
nan

>  <Num_Resolved_Atoms>  (363) 
nan

>  <Num_Not_Resolved_Atoms>  (363) 
nan

$$$$
CHEMBL4744675
     RDKit          3D

  0  0  0  0  0  0  0  0  0  0999 V3000
M  V30 BEGIN CTAB
M  V30 COUNTS 58 61 0 0 0
M  V30 BEGIN ATOM
M  V30 1 C 3.369737 -0.897795 4.047400 0
M  V30 2 N 3.820219 0.379362 4.456378 0
M  V30 3 C 4.088416 0.450677 5.884012 0
M  V30 4 C 4.774845 1.058727 3.668405 0
M  V30 5 C 4.358845 1.558450 2.336032 0
M  V30 6 N 3.935310 0.567358 1.387942 0
M  V30 7 C 5.029677 -0.271309 0.950540 0
M  V30 8 C 2.625635 0.370229 0.875166 0
M  V30 9 C 1.525511 1.130174 1.211905 0
M  V30 10 C 0.254819 0.935315 0.709517 0
M  V30 11 C -0.865375 1.783274 1.087738 0
M  V30 12 C -1.836726 2.490830 0.413365 0
M  V30 13 N -2.659016 3.111812 1.264083 0
M  V30 14 N -2.243121 2.824390 2.508504 0
M  V30 15 C -1.168571 2.028440 2.411821 0
M  V30 16 C 0.147168 -0.111772 -0.188252 0
M  V30 17 C -1.075417 -0.407418 -0.757009 0
M  V30 18 C -1.215783 -1.446264 -1.654515 0
M  V30 19 C -2.475401 -1.783215 -2.275791 0
M  V30 20 C -3.521122 -2.082274 -2.804860 0
M  V30 21 C -4.776013 -2.455778 -3.465406 0
M  V30 22 C -5.955755 -1.646220 -2.967933 0
M  V30 23 O -4.595968 -2.113766 -4.804613 0
M  V30 24 C -5.077734 -3.907750 -3.350193 0
M  V30 25 N -5.601875 -4.797580 -4.123591 0
M  V30 26 C -5.713638 -6.027217 -3.660245 0
M  V30 27 C -5.270946 -6.432051 -2.308609 0
M  V30 28 S -4.642452 -4.721459 -1.769980 0
M  V30 29 C -0.119737 -2.219457 -2.003384 0
M  V30 30 C 1.122893 -1.947820 -1.448779 0
M  V30 31 C 1.226591 -0.894200 -0.549202 0
M  V30 32 N 2.428565 -0.628258 -0.006799 0
M  V30 33 H 4.128775 -1.550673 3.590921 0
M  V30 34 H 2.424241 -0.877708 3.441952 0
M  V30 35 H 3.054517 -1.438888 4.995071 0
M  V30 36 H 3.789243 1.457867 6.238788 0
M  V30 37 H 5.171334 0.358207 6.044646 0
M  V30 38 H 3.549405 -0.337188 6.446484 0
M  V30 39 H 5.690801 0.421389 3.634175 0
M  V30 40 H 5.115124 1.954093 4.275102 0
M  V30 41 H 3.591687 2.375278 2.449752 0
M  V30 42 H 5.222092 2.106454 1.850186 0
M  V30 43 H 4.758752 -0.595998 -0.098279 0
M  V30 44 H 5.172078 -1.189948 1.505865 0
M  V30 45 H 5.972041 0.311085 0.797326 0
M  V30 46 H 1.679971 1.920735 1.909518 0
M  V30 47 H -1.871181 2.506782 -0.674254 0
M  V30 48 H -2.825761 3.266515 3.254728 0
M  V30 49 H -0.746018 1.731557 3.371329 0
M  V30 50 H -1.958672 0.161715 -0.510716 0
M  V30 51 H -5.631107 -1.195994 -1.990169 0
M  V30 52 H -6.779960 -2.338749 -2.708135 0
M  V30 53 H -6.249462 -0.825325 -3.646437 0
M  V30 54 H -5.464858 -2.367122 -5.243598 0
M  V30 55 H -6.180006 -6.620240 -4.470447 0
M  V30 56 H -5.499545 -7.559982 -2.199557 0
M  V30 57 H -0.229642 -3.050044 -2.719388 0
M  V30 58 H 1.967181 -2.559100 -1.731243 0
M  V30 END ATOM
M  V30 BEGIN BOND
M  V30 1 1 1 2
M  V30 2 1 2 3
M  V30 3 1 2 4
M  V30 4 1 4 5
M  V30 5 1 5 6
M  V30 6 1 6 7
M  V30 7 1 6 8
M  V30 8 2 8 9
M  V30 9 1 9 10
M  V30 10 1 10 11
M  V30 11 1 11 12
M  V30 12 2 12 13
M  V30 13 1 13 14
M  V30 14 1 14 15
M  V30 15 2 10 16
M  V30 16 1 16 17
M  V30 17 2 17 18
M  V30 18 1 18 19
M  V30 19 3 19 20
M  V30 20 1 20 21
M  V30 21 1 21 22
M  V30 22 1 21 23
M  V30 23 1 21 24
M  V30 24 2 24 25
M  V30 25 1 25 26
M  V30 26 2 26 27
M  V30 27 1 27 28
M  V30 28 1 18 29
M  V30 29 2 29 30
M  V30 30 1 30 31
M  V30 31 2 31 32
M  V30 32 1 32 8
M  V30 33 2 15 11
M  V30 34 1 31 16
M  V30 35 1 28 24
M  V30 36 1 1 33
M  V30 37 1 1 34
M  V30 38 1 1 35
M  V30 39 1 3 36
M  V30 40 1 3 37
M  V30 41 1 3 38
M  V30 42 1 4 39
M  V30 43 1 4 40
M  V30 44 1 5 41
M  V30 45 1 5 42
M  V30 46 1 7 43
M  V30 47 1 7 44
M  V30 48 1 7 45
M  V30 49 1 9 46
M  V30 50 1 12 47
M  V30 51 1 14 48
M  V30 52 1 15 49
M  V30 53 1 17 50
M  V30 54 1 22 51
M  V30 55 1 22 52
M  V30 56 1 22 53
M  V30 57 1 23 54
M  V30 58 1 26 55
M  V30 59 1 27 56
M  V30 60 1 29 57
M  V30 61 1 30 58
M  V30 END BOND
M  V30 END CTAB
M  END
>  <Dataset>  (364) 
ChEMBL_Kinases

>  <Ligand_Instance>  (364) 
nan

>  <PDB_ID>  (364) 
nan

>  <Standardized_SMILES>  (364) 
CN(C)CCN(C)c1cc(-c2cn[nH]c2)c2cc(C#CC(C)(O)c3nccs3)ccc2n1

>  <Name>  (364) 
nan

>  <Pocket>  (364) 
nan

>  <ATP_Site>  (364) 
nan

>  <Peripheral>  (364) 
nan

>  <Num_H_Atoms_ProtBoundConf>  (364) 
nan

>  <Num_Resolved_Atoms>  (364) 
nan

>  <Num_Not_Resolved_Atoms>  (364) 
nan

$$$$
CHEMBL4744728
     RDKit          3D

  0  0  0  0  0  0  0  0  0  0999 V3000
M  V30 BEGIN CTAB
M  V30 COUNTS 62 64 0 0 0
M  V30 BEGIN ATOM
M  V30 1 C 1.722941 1.016359 7.587311 0
M  V30 2 O 1.557895 1.274617 6.225094 0
M  V30 3 C 0.749353 2.215002 5.647705 0
M  V30 4 O 0.091924 2.911076 6.464816 0
M  V30 5 C 0.653014 2.400315 4.204039 0
M  V30 6 C 1.421849 1.578097 3.402119 0
M  V30 7 C 1.355752 1.725755 2.027600 0
M  V30 8 C 0.513944 2.699716 1.523433 0
M  V30 9 C 0.532388 2.757993 0.043013 0
M  V30 10 C 0.604259 3.830001 -0.828685 0
M  V30 11 N 0.588881 3.350722 -2.084628 0
M  V30 12 N 0.511450 2.032653 -2.087313 0
M  V30 13 C 0.463736 1.061614 -3.005267 0
M  V30 14 C 0.382866 -0.258049 -2.679053 0
M  V30 15 C 0.346454 -0.649528 -1.362676 0
M  V30 16 N 0.262902 -1.994369 -0.918144 0
M  V30 17 C 0.230690 -2.290480 0.498733 0
M  V30 18 C -1.187654 -2.321431 1.027281 0
M  V30 19 O -1.776882 -1.093315 0.823794 0
M  V30 20 C -3.076001 -0.989729 1.262815 0
M  V30 21 C -3.234258 -1.236895 2.749723 0
M  V30 22 O -4.598863 -1.099830 3.054971 0
M  V30 23 C 0.204937 -3.131305 -1.755652 0
M  V30 24 O 0.130749 -4.325855 -1.377128 0
M  V30 25 O 0.209313 -3.303852 -3.129698 0
M  V30 26 C 0.143245 -4.542066 -3.763501 0
M  V30 27 C 0.175297 -4.266745 -5.259719 0
M  V30 28 C 1.300643 -5.453248 -3.452980 0
M  V30 29 C -1.137082 -5.290923 -3.474241 0
M  V30 30 N 0.395432 0.341044 -0.455935 0
M  V30 31 C 0.475215 1.639357 -0.798406 0
M  V30 32 C -0.253106 3.519778 2.328059 0
M  V30 33 C -0.188477 3.373767 3.702702 0
M  V30 34 O -0.959833 4.199076 4.499866 0
M  V30 35 H 1.383462 1.892297 8.161666 0
M  V30 36 H 1.256132 0.064961 7.917418 0
M  V30 37 H 2.827810 0.840528 7.740903 0
M  V30 38 H 2.084371 0.810992 3.809658 0
M  V30 39 H 1.967275 1.070043 1.421943 0
M  V30 40 H 0.660830 4.856581 -0.460178 0
M  V30 41 H 0.491633 1.355511 -4.049521 0
M  V30 42 H 0.346990 -1.001163 -3.444616 0
M  V30 43 H 0.801251 -3.198477 0.730000 0
M  V30 44 H 0.785145 -1.458412 1.008405 0
M  V30 45 H -1.259063 -2.732924 2.031519 0
M  V30 46 H -1.736490 -3.042797 0.358474 0
M  V30 47 H -3.391038 0.061765 1.083672 0
M  V30 48 H -3.756419 -1.628247 0.678573 0
M  V30 49 H -2.949132 -2.246004 3.065291 0
M  V30 50 H -2.670328 -0.491510 3.318143 0
M  V30 51 H -4.718511 -0.512929 3.863019 0
M  V30 52 H 0.723030 -5.063519 -5.798485 0
M  V30 53 H -0.870023 -4.162873 -5.599730 0
M  V30 54 H 0.685593 -3.286949 -5.461234 0
M  V30 55 H 1.513410 -6.106385 -4.324414 0
M  V30 56 H 2.228672 -4.929561 -3.168556 0
M  V30 57 H 0.968899 -6.140845 -2.634618 0
M  V30 58 H -1.534522 -5.814223 -4.368390 0
M  V30 59 H -1.951451 -4.642552 -3.100419 0
M  V30 60 H -0.957793 -6.069067 -2.689537 0
M  V30 61 H -0.877192 4.249226 1.815671 0
M  V30 62 H -0.466696 4.824971 5.139005 0
M  V30 END ATOM
M  V30 BEGIN BOND
M  V30 1 1 1 2
M  V30 2 1 2 3
M  V30 3 2 3 4
M  V30 4 1 3 5
M  V30 5 2 5 6
M  V30 6 1 6 7
M  V30 7 2 7 8
M  V30 8 1 8 9
M  V30 9 1 9 10
M  V30 10 2 10 11
M  V30 11 1 11 12
M  V30 12 1 12 13
M  V30 13 2 13 14
M  V30 14 1 14 15
M  V30 15 1 15 16
M  V30 16 1 16 17
M  V30 17 1 17 18
M  V30 18 1 18 19
M  V30 19 1 19 20
M  V30 20 1 20 21
M  V30 21 1 21 22
M  V30 22 1 16 23
M  V30 23 2 23 24
M  V30 24 1 23 25
M  V30 25 1 25 26
M  V30 26 1 26 27
M  V30 27 1 26 28
M  V30 28 1 26 29
M  V30 29 2 15 30
M  V30 30 1 30 31
M  V30 31 1 8 32
M  V30 32 2 32 33
M  V30 33 1 33 34
M  V30 34 1 33 5
M  V30 35 2 31 9
M  V30 36 1 31 12
M  V30 37 1 1 35
M  V30 38 1 1 36
M  V30 39 1 1 37
M  V30 40 1 6 38
M  V30 41 1 7 39
M  V30 42 1 10 40
M  V30 43 1 13 41
M  V30 44 1 14 42
M  V30 45 1 17 43
M  V30 46 1 17 44
M  V30 47 1 18 45
M  V30 48 1 18 46
M  V30 49 1 20 47
M  V30 50 1 20 48
M  V30 51 1 21 49
M  V30 52 1 21 50
M  V30 53 1 22 51
M  V30 54 1 27 52
M  V30 55 1 27 53
M  V30 56 1 27 54
M  V30 57 1 28 55
M  V30 58 1 28 56
M  V30 59 1 28 57
M  V30 60 1 29 58
M  V30 61 1 29 59
M  V30 62 1 29 60
M  V30 63 1 32 61
M  V30 64 1 34 62
M  V30 END BOND
M  V30 END CTAB
M  END
>  <Dataset>  (365) 
ChEMBL_Kinases

>  <Ligand_Instance>  (365) 
nan

>  <PDB_ID>  (365) 
nan

>  <Standardized_SMILES>  (365) 
COC(=O)c1ccc(-c2cnn3ccc(N(CCOCCO)C(=O)OC(C)(C)C)nc23)cc1O

>  <Name>  (365) 
nan

>  <Pocket>  (365) 
nan

>  <ATP_Site>  (365) 
nan

>  <Peripheral>  (365) 
nan

>  <Num_H_Atoms_ProtBoundConf>  (365) 
nan

>  <Num_Resolved_Atoms>  (365) 
nan

>  <Num_Not_Resolved_Atoms>  (365) 
nan

$$$$
CHEMBL4744778
     RDKit          3D

  0  0  0  0  0  0  0  0  0  0999 V3000
M  V30 BEGIN CTAB
M  V30 COUNTS 70 74 0 0 0
M  V30 BEGIN ATOM
M  V30 1 C 0.602272 3.088028 -3.301377 0
M  V30 2 C 1.808968 2.603885 -2.525802 0
M  V30 3 C 2.894178 2.153274 -3.457331 0
M  V30 4 O 3.475274 1.050611 -3.574491 0
M  V30 5 N 3.279484 3.229455 -4.336778 0
M  V30 6 C 4.298821 3.024076 -5.306864 0
M  V30 7 C 3.860216 2.563730 -6.542810 0
M  V30 8 C 4.990782 2.419932 -7.351862 0
M  V30 9 C 5.150579 1.966206 -8.758723 0
M  V30 10 C 4.124643 0.919156 -9.242936 0
M  V30 11 C 4.004153 2.316781 -9.710204 0
M  V30 12 N 6.057779 2.793532 -6.585954 0
M  V30 13 N 5.634868 3.143945 -5.393167 0
M  V30 14 C 1.464651 1.439747 -1.677252 0
M  V30 15 C 1.563532 1.613225 -0.292212 0
M  V30 16 C 1.229642 0.500063 0.449323 0
M  V30 17 C 0.824896 -0.710902 -0.062487 0
M  V30 18 C 0.501230 -1.766306 0.892523 0
M  V30 19 C -0.471660 -2.612730 0.416642 0
M  V30 20 C -0.857667 -3.650575 1.277160 0
M  V30 21 C -0.209258 -3.696664 2.505508 0
M  V30 22 N -0.625995 -4.797291 3.345286 0
M  V30 23 C -1.707677 -4.049684 3.978653 0
M  V30 24 O -1.816852 -2.821557 3.552590 0
M  V30 25 C -2.779116 -4.247641 5.003372 0
M  V30 26 C -3.674806 -3.388263 5.439418 0
M  V30 27 C -4.604951 -3.875733 6.456178 0
M  V30 28 N -4.492350 -3.104584 7.677640 0
M  V30 29 C -5.381953 -3.532984 8.722497 0
M  V30 30 C -6.794417 -3.031887 8.527240 0
M  V30 31 O -6.873483 -1.705771 8.145502 0
M  V30 32 C -6.010573 -1.359437 7.118165 0
M  V30 33 C -4.579451 -1.687273 7.494561 0
M  V30 34 C 0.765451 -2.838739 2.967961 0
M  V30 35 C 1.136098 -1.821306 2.110058 0
M  V30 36 C 0.740602 -0.840501 -1.448508 0
M  V30 37 C 1.067995 0.255467 -2.217135 0
M  V30 38 H 0.961246 3.624779 -4.202617 0
M  V30 39 H -0.010320 3.762386 -2.670596 0
M  V30 40 H -0.079700 2.229730 -3.562465 0
M  V30 41 H 2.160069 3.450454 -1.904184 0
M  V30 42 H 2.902369 4.205084 -4.380387 0
M  V30 43 H 2.928845 2.305837 -7.008182 0
M  V30 44 H 6.165745 1.910719 -9.200838 0
M  V30 45 H 3.413710 0.512820 -8.507011 0
M  V30 46 H 4.446852 0.192034 -10.014262 0
M  V30 47 H 3.183011 2.923624 -9.277528 0
M  V30 48 H 4.281318 2.598427 -10.738456 0
M  V30 49 H 7.084258 2.842073 -6.781853 0
M  V30 50 H 1.874471 2.528602 0.194859 0
M  V30 51 H 1.304393 0.624721 1.532197 0
M  V30 52 H -0.954740 -2.548534 -0.542251 0
M  V30 53 H -1.610937 -4.364955 0.999544 0
M  V30 54 H -0.879136 -5.612002 3.921603 0
M  V30 55 H -2.725793 -5.249831 5.370848 0
M  V30 56 H -3.596250 -2.421193 4.975706 0
M  V30 57 H -5.629972 -3.793152 6.017729 0
M  V30 58 H -4.413247 -4.925506 6.726067 0
M  V30 59 H -5.392027 -4.624495 8.783131 0
M  V30 60 H -4.990534 -3.075298 9.669372 0
M  V30 61 H -7.343437 -3.704278 7.817255 0
M  V30 62 H -7.314374 -3.127890 9.503606 0
M  V30 63 H -6.256482 -1.840738 6.166816 0
M  V30 64 H -6.076651 -0.269909 6.969125 0
M  V30 65 H -4.333606 -1.230172 8.485310 0
M  V30 66 H -3.897895 -1.294325 6.739905 0
M  V30 67 H 1.184794 -2.994243 3.951666 0
M  V30 68 H 1.893839 -1.118476 2.412185 0
M  V30 69 H 0.421915 -1.795121 -1.841093 0
M  V30 70 H 0.984129 0.103218 -3.281081 0
M  V30 END ATOM
M  V30 BEGIN BOND
M  V30 1 1 1 2
M  V30 2 1 2 3
M  V30 3 2 3 4
M  V30 4 1 3 5
M  V30 5 1 5 6
M  V30 6 1 6 7
M  V30 7 2 7 8
M  V30 8 1 8 9
M  V30 9 1 9 10
M  V30 10 1 10 11
M  V30 11 1 8 12
M  V30 12 1 12 13
M  V30 13 1 2 14
M  V30 14 2 14 15
M  V30 15 1 15 16
M  V30 16 2 16 17
M  V30 17 1 17 18
M  V30 18 2 18 19
M  V30 19 1 19 20
M  V30 20 2 20 21
M  V30 21 1 21 22
M  V30 22 1 22 23
M  V30 23 2 23 24
M  V30 24 1 23 25
M  V30 25 2 25 26
M  V30 26 1 26 27
M  V30 27 1 27 28
M  V30 28 1 28 29
M  V30 29 1 29 30
M  V30 30 1 30 31
M  V30 31 1 31 32
M  V30 32 1 32 33
M  V30 33 1 21 34
M  V30 34 2 34 35
M  V30 35 1 17 36
M  V30 36 2 36 37
M  V30 37 2 13 6
M  V30 38 1 37 14
M  V30 39 1 11 9
M  V30 40 1 35 18
M  V30 41 1 33 28
M  V30 42 1 1 38
M  V30 43 1 1 39
M  V30 44 1 1 40
M  V30 45 1 2 41
M  V30 46 1 5 42
M  V30 47 1 7 43
M  V30 48 1 9 44
M  V30 49 1 10 45
M  V30 50 1 10 46
M  V30 51 1 11 47
M  V30 52 1 11 48
M  V30 53 1 12 49
M  V30 54 1 15 50
M  V30 55 1 16 51
M  V30 56 1 19 52
M  V30 57 1 20 53
M  V30 58 1 22 54
M  V30 59 1 25 55
M  V30 60 1 26 56
M  V30 61 1 27 57
M  V30 62 1 27 58
M  V30 63 1 29 59
M  V30 64 1 29 60
M  V30 65 1 30 61
M  V30 66 1 30 62
M  V30 67 1 32 63
M  V30 68 1 32 64
M  V30 69 1 33 65
M  V30 70 1 33 66
M  V30 71 1 34 67
M  V30 72 1 35 68
M  V30 73 1 36 69
M  V30 74 1 37 70
M  V30 END BOND
M  V30 END CTAB
M  END
>  <Dataset>  (366) 
ChEMBL_Kinases

>  <Ligand_Instance>  (366) 
nan

>  <PDB_ID>  (366) 
nan

>  <Standardized_SMILES>  (366) 
CC(C(=O)Nc1cc(C2CC2)[nH]n1)c1ccc(-c2ccc(NC(=O)/C=C/CN3CCOCC3)cc2)cc1

>  <Name>  (366) 
nan

>  <Pocket>  (366) 
nan

>  <ATP_Site>  (366) 
nan

>  <Peripheral>  (366) 
nan

>  <Num_H_Atoms_ProtBoundConf>  (366) 
nan

>  <Num_Resolved_Atoms>  (366) 
nan

>  <Num_Not_Resolved_Atoms>  (366) 
nan

$$$$
CHEMBL4744805
     RDKit          3D

  0  0  0  0  0  0  0  0  0  0999 V3000
M  V30 BEGIN CTAB
M  V30 COUNTS 51 55 0 0 0
M  V30 BEGIN ATOM
M  V30 1 N 0.731885 -5.352020 1.709627 0
M  V30 2 C 0.811599 -3.961119 1.385181 0
M  V30 3 N 1.856926 -3.248994 1.772439 0
M  V30 4 C 1.956464 -1.920556 1.474683 0
M  V30 5 C 0.938448 -1.293464 0.746822 0
M  V30 6 C 1.145339 0.115451 0.468280 0
M  V30 7 C 1.074481 0.892759 -0.642436 0
M  V30 8 N 1.363573 2.161721 -0.310707 0
M  V30 9 N 1.623409 2.249124 0.983296 0
M  V30 10 C 1.952543 3.561455 1.492567 0
M  V30 11 C 3.136365 4.176091 0.773152 0
M  V30 12 C 3.678073 5.336347 1.578200 0
M  V30 13 N 4.130727 4.931048 2.886228 0
M  V30 14 C 3.534978 3.696723 3.332410 0
M  V30 15 C 2.072143 3.589475 2.983241 0
M  V30 16 C 1.496495 1.001040 1.489909 0
M  V30 17 C -0.125803 -2.082625 0.370047 0
M  V30 18 C -1.113412 -1.468032 -0.332020 0
M  V30 19 C -2.241842 -2.126530 -0.774782 0
M  V30 20 C -2.350311 -3.489843 -0.473760 0
M  V30 21 C -3.532682 -4.210820 -0.930342 0
M  V30 22 C -4.688141 -3.441681 -0.982958 0
M  V30 23 C -5.898050 -3.997602 -1.402365 0
M  V30 24 C -5.925741 -5.346746 -1.769762 0
M  V30 25 C -4.768394 -6.094934 -1.711119 0
M  V30 26 F -4.793160 -7.409363 -2.068562 0
M  V30 27 C -3.561585 -5.542106 -1.293145 0
M  V30 28 C -1.354616 -4.126397 0.239168 0
M  V30 29 C -0.243538 -3.423069 0.660767 0
M  V30 30 H 0.818289 -5.553542 2.746329 0
M  V30 31 H 0.610772 -6.258676 1.224934 0
M  V30 32 H 2.864797 -1.455714 1.852559 0
M  V30 33 H 0.825945 0.504497 -1.617252 0
M  V30 34 H 1.081508 4.231176 1.227591 0
M  V30 35 H 2.789036 4.603815 -0.195517 0
M  V30 36 H 3.884186 3.411470 0.524376 0
M  V30 37 H 2.845301 6.058622 1.675133 0
M  V30 38 H 4.505898 5.796612 0.983547 0
M  V30 39 H 5.171963 4.812320 2.851084 0
M  V30 40 H 4.081985 2.842708 2.884407 0
M  V30 41 H 3.622687 3.712591 4.453626 0
M  V30 42 H 1.530419 4.444547 3.442113 0
M  V30 43 H 1.674841 2.679660 3.451569 0
M  V30 44 H 1.668961 0.860383 2.533291 0
M  V30 45 H -1.077143 -0.438060 -0.578883 0
M  V30 46 H -3.023600 -1.622218 -1.335917 0
M  V30 47 H -4.813751 -2.398863 -0.731924 0
M  V30 48 H -6.830026 -3.480750 -1.472792 0
M  V30 49 H -6.856157 -5.801620 -2.099675 0
M  V30 50 H -2.629473 -6.094191 -1.232742 0
M  V30 51 H -1.404910 -5.156807 0.484745 0
M  V30 END ATOM
M  V30 BEGIN BOND
M  V30 1 1 1 2
M  V30 2 2 2 3
M  V30 3 1 3 4
M  V30 4 2 4 5
M  V30 5 1 5 6
M  V30 6 1 6 7
M  V30 7 2 7 8
M  V30 8 1 8 9
M  V30 9 1 9 10
M  V30 10 1 10 11
M  V30 11 1 11 12
M  V30 12 1 12 13
M  V30 13 1 13 14
M  V30 14 1 14 15
M  V30 15 1 9 16
M  V30 16 1 5 17
M  V30 17 2 17 18
M  V30 18 1 18 19
M  V30 19 2 19 20
M  V30 20 1 20 21
M  V30 21 2 21 22
M  V30 22 1 22 23
M  V30 23 2 23 24
M  V30 24 1 24 25
M  V30 25 1 25 26
M  V30 26 2 25 27
M  V30 27 1 20 28
M  V30 28 2 28 29
M  V30 29 1 29 2
M  V30 30 2 16 6
M  V30 31 1 29 17
M  V30 32 1 15 10
M  V30 33 1 27 21
M  V30 34 1 1 30
M  V30 35 1 1 31
M  V30 36 1 4 32
M  V30 37 1 7 33
M  V30 38 1 10 34
M  V30 39 1 11 35
M  V30 40 1 11 36
M  V30 41 1 12 37
M  V30 42 1 12 38
M  V30 43 1 13 39
M  V30 44 1 14 40
M  V30 45 1 14 41
M  V30 46 1 15 42
M  V30 47 1 15 43
M  V30 48 1 16 44
M  V30 49 1 18 45
M  V30 50 1 19 46
M  V30 51 1 22 47
M  V30 52 1 23 48
M  V30 53 1 24 49
M  V30 54 1 27 50
M  V30 55 1 28 51
M  V30 END BOND
M  V30 END CTAB
M  END
>  <Dataset>  (367) 
ChEMBL_Kinases

>  <Ligand_Instance>  (367) 
nan

>  <PDB_ID>  (367) 
nan

>  <Standardized_SMILES>  (367) 
Nc1ncc(-c2cnn(C3CCNCC3)c2)c2ccc(-c3cccc(F)c3)cc12

>  <Name>  (367) 
nan

>  <Pocket>  (367) 
nan

>  <ATP_Site>  (367) 
nan

>  <Peripheral>  (367) 
nan

>  <Num_H_Atoms_ProtBoundConf>  (367) 
nan

>  <Num_Resolved_Atoms>  (367) 
nan

>  <Num_Not_Resolved_Atoms>  (367) 
nan

$$$$
CHEMBL4744828
     RDKit          3D

  0  0  0  0  0  0  0  0  0  0999 V3000
M  V30 BEGIN CTAB
M  V30 COUNTS 55 58 0 0 0
M  V30 BEGIN ATOM
M  V30 1 O -3.669623 -2.910877 0.152657 0
M  V30 2 C -2.675839 -3.409786 0.726670 0
M  V30 3 N -1.654572 -2.562239 1.201514 0
M  V30 4 C -1.549400 -1.151829 1.138283 0
M  V30 5 C -0.435815 -0.553163 1.684299 0
M  V30 6 C -0.266008 0.815005 1.659222 0
M  V30 7 C -1.195357 1.659319 1.089444 0
M  V30 8 C -1.027954 3.135573 1.051596 0
M  V30 9 C -0.308804 3.551950 -0.228406 0
M  V30 10 N 1.004692 2.956722 -0.327518 0
M  V30 11 C 2.010190 3.269033 0.635136 0
M  V30 12 N 1.732831 4.125477 1.631972 0
M  V30 13 N 2.628868 4.449821 2.544779 0
M  V30 14 C 3.891313 3.997688 2.615293 0
M  V30 15 O 4.682489 4.357770 3.519825 0
M  V30 16 C 4.216076 3.113813 1.607137 0
M  V30 17 C 5.495470 2.579049 1.576234 0
M  V30 18 C 5.842307 1.684607 0.565776 0
M  V30 19 C 4.909735 1.325956 -0.412429 0
M  V30 20 C 3.655502 1.886864 -0.333134 0
M  V30 21 C 3.292926 2.762831 0.644217 0
M  V30 22 C -2.318742 1.078336 0.536714 0
M  V30 23 C -2.460882 -0.291825 0.576816 0
M  V30 24 C -2.672935 -4.888518 0.853339 0
M  V30 25 C -3.914863 -5.402461 0.238555 0
M  V30 26 C -3.817107 -5.906562 -1.164230 0
M  V30 27 C -2.513120 -6.505745 -1.539370 0
M  V30 28 C -1.387871 -5.593607 -1.181361 0
M  V30 29 C -1.391810 -5.469196 0.320846 0
M  V30 30 H -0.892689 -3.111954 1.656275 0
M  V30 31 H 0.337873 -1.178197 2.151975 0
M  V30 32 H 0.628403 1.203144 2.107281 0
M  V30 33 H -0.519443 3.505124 1.938556 0
M  V30 34 H -2.055271 3.569794 0.972104 0
M  V30 35 H -0.917079 3.356109 -1.115511 0
M  V30 36 H -0.148221 4.666055 -0.227130 0
M  V30 37 H 1.135965 2.314391 -1.124681 0
M  V30 38 H 2.254731 5.135439 3.261462 0
M  V30 39 H 6.210750 2.859068 2.333125 0
M  V30 40 H 6.842986 1.283933 0.565156 0
M  V30 41 H 5.239828 0.622609 -1.176326 0
M  V30 42 H 2.986027 1.577774 -1.104344 0
M  V30 43 H -3.056276 1.718415 0.087169 0
M  V30 44 H -3.344824 -0.665581 0.134783 0
M  V30 45 H -2.712920 -5.087203 1.951831 0
M  V30 46 H -4.272602 -6.283926 0.847975 0
M  V30 47 H -4.707516 -4.647622 0.373100 0
M  V30 48 H -4.051233 -5.068193 -1.851070 0
M  V30 49 H -4.600889 -6.682017 -1.372058 0
M  V30 50 H -2.516502 -6.603068 -2.664383 0
M  V30 51 H -2.351565 -7.542662 -1.181997 0
M  V30 52 H -0.439624 -6.082251 -1.464061 0
M  V30 53 H -1.508996 -4.634744 -1.695873 0
M  V30 54 H -1.154651 -6.466128 0.745088 0
M  V30 55 H -0.542877 -4.803249 0.574926 0
M  V30 END ATOM
M  V30 BEGIN BOND
M  V30 1 2 1 2
M  V30 2 1 2 3
M  V30 3 1 3 4
M  V30 4 2 4 5
M  V30 5 1 5 6
M  V30 6 2 6 7
M  V30 7 1 7 8
M  V30 8 1 8 9
M  V30 9 1 9 10
M  V30 10 1 10 11
M  V30 11 2 11 12
M  V30 12 1 12 13
M  V30 13 1 13 14
M  V30 14 2 14 15
M  V30 15 1 14 16
M  V30 16 2 16 17
M  V30 17 1 17 18
M  V30 18 2 18 19
M  V30 19 1 19 20
M  V30 20 2 20 21
M  V30 21 1 7 22
M  V30 22 2 22 23
M  V30 23 1 2 24
M  V30 24 1 24 25
M  V30 25 1 25 26
M  V30 26 1 26 27
M  V30 27 1 27 28
M  V30 28 1 28 29
M  V30 29 1 23 4
M  V30 30 1 29 24
M  V30 31 1 21 11
M  V30 32 1 21 16
M  V30 33 1 3 30
M  V30 34 1 5 31
M  V30 35 1 6 32
M  V30 36 1 8 33
M  V30 37 1 8 34
M  V30 38 1 9 35
M  V30 39 1 9 36
M  V30 40 1 10 37
M  V30 41 1 13 38
M  V30 42 1 17 39
M  V30 43 1 18 40
M  V30 44 1 19 41
M  V30 45 1 20 42
M  V30 46 1 22 43
M  V30 47 1 23 44
M  V30 48 1 24 45
M  V30 49 1 25 46
M  V30 50 1 25 47
M  V30 51 1 26 48
M  V30 52 1 26 49
M  V30 53 1 27 50
M  V30 54 1 27 51
M  V30 55 1 28 52
M  V30 56 1 28 53
M  V30 57 1 29 54
M  V30 58 1 29 55
M  V30 END BOND
M  V30 END CTAB
M  END
>  <Dataset>  (368) 
ChEMBL_Kinases

>  <Ligand_Instance>  (368) 
nan

>  <PDB_ID>  (368) 
nan

>  <Standardized_SMILES>  (368) 
O=C(Nc1ccc(CCNc2n[nH]c(=O)c3ccccc23)cc1)C1CCCCC1

>  <Name>  (368) 
nan

>  <Pocket>  (368) 
nan

>  <ATP_Site>  (368) 
nan

>  <Peripheral>  (368) 
nan

>  <Num_H_Atoms_ProtBoundConf>  (368) 
nan

>  <Num_Resolved_Atoms>  (368) 
nan

>  <Num_Not_Resolved_Atoms>  (368) 
nan

$$$$
CHEMBL4744861
     RDKit          3D

  0  0  0  0  0  0  0  0  0  0999 V3000
M  V30 BEGIN CTAB
M  V30 COUNTS 75 79 0 0 0
M  V30 BEGIN ATOM
M  V30 1 C 2.281537 -3.120816 4.250301 0
M  V30 2 N 2.707406 -4.081983 3.236218 0
M  V30 3 C 1.808596 -4.000720 2.130878 0
M  V30 4 C 2.387899 -4.472320 0.814321 0
M  V30 5 N 3.656734 -3.876099 0.555782 0
M  V30 6 C 3.602984 -2.392856 0.537868 0
M  V30 7 C 2.876424 -2.011744 -0.673271 0
M  V30 8 C 2.568135 -0.628818 -1.032975 0
M  V30 9 C 3.568108 0.411669 -1.229255 0
M  V30 10 C 4.399559 0.847419 -0.025460 0
M  V30 11 O 3.647780 1.390543 0.882977 0
M  V30 12 C 2.913291 1.928456 1.787482 0
M  V30 13 C 3.228661 2.361400 3.054374 0
M  V30 14 C 2.315550 2.924949 3.911672 0
M  V30 15 C 1.006143 3.085194 3.526177 0
M  V30 16 C 0.557198 2.699979 2.299170 0
M  V30 17 N -0.718962 2.707986 1.620224 0
M  V30 18 C -1.263179 1.394704 1.855856 0
M  V30 19 O -1.156820 0.197943 2.159937 0
M  V30 20 S -3.037855 1.698192 1.522299 0
M  V30 21 C -2.670786 2.970134 0.292649 0
M  V30 22 C -3.162358 3.307610 -0.888324 0
M  V30 23 C -4.269877 2.401264 -1.270530 0
M  V30 24 C -3.945882 2.009199 -2.583203 0
M  V30 25 C -4.742818 1.082035 -3.272888 0
M  V30 26 C -5.849358 0.617512 -2.537830 0
M  V30 27 O -6.574914 -0.314548 -3.301852 0
M  V30 28 C -6.121961 -1.655290 -3.288016 0
M  V30 29 C -5.106681 -1.879678 -2.347021 0
M  V30 30 C -4.501323 -3.133704 -2.155067 0
M  V30 31 C -4.926174 -4.182442 -2.926926 0
M  V30 32 Cl -4.214466 -5.760486 -2.746976 0
M  V30 33 C -5.906877 -3.947581 -3.831068 0
M  V30 34 C -6.518871 -2.730406 -4.040327 0
M  V30 35 C -6.158112 1.008300 -1.266701 0
M  V30 36 C -5.355172 1.917150 -0.614987 0
M  V30 37 C -1.456041 3.614446 0.776336 0
M  V30 38 O -0.959679 4.749630 0.604842 0
M  V30 39 C 1.565758 2.130283 1.480756 0
M  V30 40 C 4.553059 -4.261919 1.599764 0
M  V30 41 C 4.085475 -3.862779 2.968395 0
M  V30 42 H 1.853619 -2.275915 3.676645 0
M  V30 43 H 3.206176 -2.681278 4.725892 0
M  V30 44 H 1.584532 -3.546119 4.981715 0
M  V30 45 H 1.276284 -3.014631 2.038239 0
M  V30 46 H 0.971200 -4.730067 2.344455 0
M  V30 47 H 1.623996 -4.397875 0.052373 0
M  V30 48 H 2.610120 -5.573859 1.001640 0
M  V30 49 H 3.158089 -2.146084 1.513162 0
M  V30 50 H 4.679307 -2.124200 0.590067 0
M  V30 51 H 3.376775 -2.554001 -1.553306 0
M  V30 52 H 1.868252 -2.550797 -0.640718 0
M  V30 53 H 1.989171 -0.689749 -2.034284 0
M  V30 54 H 1.747521 -0.197983 -0.367854 0
M  V30 55 H 2.988487 1.359677 -1.487756 0
M  V30 56 H 4.217398 0.288690 -2.125469 0
M  V30 57 H 5.104109 0.030176 0.242918 0
M  V30 58 H 5.149588 1.644887 -0.416004 0
M  V30 59 H 4.252470 2.248140 3.386776 0
M  V30 60 H 2.501607 3.283057 4.913243 0
M  V30 61 H 0.194383 3.508965 4.091233 0
M  V30 62 H -2.790344 4.136795 -1.465491 0
M  V30 63 H -3.090325 2.335447 -3.214828 0
M  V30 64 H -4.512742 0.755130 -4.297078 0
M  V30 65 H -4.652634 -1.146587 -1.651229 0
M  V30 66 H -3.709638 -3.330285 -1.428166 0
M  V30 67 H -6.263031 -4.755636 -4.456341 0
M  V30 68 H -7.301207 -2.469761 -4.740286 0
M  V30 69 H -7.017816 0.629011 -0.749881 0
M  V30 70 H -5.446184 2.326504 0.353603 0
M  V30 71 H 1.252670 1.830446 0.480620 0
M  V30 72 H 5.531974 -3.758752 1.406293 0
M  V30 73 H 4.636049 -5.385960 1.597819 0
M  V30 74 H 4.678688 -4.474437 3.685635 0
M  V30 75 H 4.375443 -2.795874 3.211608 0
M  V30 END ATOM
M  V30 BEGIN BOND
M  V30 1 1 1 2
M  V30 2 1 2 3
M  V30 3 1 3 4
M  V30 4 1 4 5
M  V30 5 1 5 6
M  V30 6 1 6 7
M  V30 7 1 7 8
M  V30 8 1 8 9
M  V30 9 1 9 10
M  V30 10 1 10 11
M  V30 11 1 11 12
M  V30 12 2 12 13
M  V30 13 1 13 14
M  V30 14 2 14 15
M  V30 15 1 15 16
M  V30 16 1 16 17
M  V30 17 1 17 18
M  V30 18 2 18 19
M  V30 19 1 18 20
M  V30 20 1 20 21
M  V30 21 2 21 22
M  V30 22 1 22 23
M  V30 23 2 23 24
M  V30 24 1 24 25
M  V30 25 2 25 26
M  V30 26 1 26 27
M  V30 27 1 27 28
M  V30 28 2 28 29
M  V30 29 1 29 30
M  V30 30 2 30 31
M  V30 31 1 31 32
M  V30 32 1 31 33
M  V30 33 2 33 34
M  V30 34 1 26 35
M  V30 35 2 35 36
M  V30 36 1 21 37
M  V30 37 2 37 38
M  V30 38 2 16 39
M  V30 39 1 5 40
M  V30 40 1 40 41
M  V30 41 1 41 2
M  V30 42 1 39 12
M  V30 43 1 37 17
M  V30 44 1 36 23
M  V30 45 1 34 28
M  V30 46 1 1 42
M  V30 47 1 1 43
M  V30 48 1 1 44
M  V30 49 1 3 45
M  V30 50 1 3 46
M  V30 51 1 4 47
M  V30 52 1 4 48
M  V30 53 1 6 49
M  V30 54 1 6 50
M  V30 55 1 7 51
M  V30 56 1 7 52
M  V30 57 1 8 53
M  V30 58 1 8 54
M  V30 59 1 9 55
M  V30 60 1 9 56
M  V30 61 1 10 57
M  V30 62 1 10 58
M  V30 63 1 13 59
M  V30 64 1 14 60
M  V30 65 1 15 61
M  V30 66 1 22 62
M  V30 67 1 24 63
M  V30 68 1 25 64
M  V30 69 1 29 65
M  V30 70 1 30 66
M  V30 71 1 33 67
M  V30 72 1 34 68
M  V30 73 1 35 69
M  V30 74 1 36 70
M  V30 75 1 39 71
M  V30 76 1 40 72
M  V30 77 1 40 73
M  V30 78 1 41 74
M  V30 79 1 41 75
M  V30 END BOND
M  V30 END CTAB
M  END
>  <Dataset>  (369) 
ChEMBL_Kinases

>  <Ligand_Instance>  (369) 
nan

>  <PDB_ID>  (369) 
nan

>  <Standardized_SMILES>  (369) 
CN1CCN(CCCCCOc2cccc(N3C(=O)S/C(=C\c4ccc(Oc5ccc(Cl)cc5)cc4)C3=O)c2)CC1

>  <Name>  (369) 
nan

>  <Pocket>  (369) 
nan

>  <ATP_Site>  (369) 
nan

>  <Peripheral>  (369) 
nan

>  <Num_H_Atoms_ProtBoundConf>  (369) 
nan

>  <Num_Resolved_Atoms>  (369) 
nan

>  <Num_Not_Resolved_Atoms>  (369) 
nan

$$$$
CHEMBL4744911
     RDKit          3D

  0  0  0  0  0  0  0  0  0  0999 V3000
M  V30 BEGIN CTAB
M  V30 COUNTS 88 94 0 0 0
M  V30 BEGIN ATOM
M  V30 1 C -1.017350 -10.166588 2.406915 0
M  V30 2 N -1.339734 -8.770596 2.239514 0
M  V30 3 C -0.328390 -7.908991 2.719825 0
M  V30 4 O 0.746167 -8.395961 3.243157 0
M  V30 5 C -0.269149 -6.487322 2.734310 0
M  V30 6 S 1.127173 -5.603514 3.397407 0
M  V30 7 C 0.397510 -3.895505 3.006988 0
M  V30 8 C 1.280125 -2.773516 3.403517 0
M  V30 9 C 2.504400 -2.896860 3.987993 0
M  V30 10 C 3.272823 -1.800395 4.317341 0
M  V30 11 N 2.752594 -0.580537 4.034201 0
M  V30 12 C 1.533287 -0.461517 3.453493 0
M  V30 13 N 1.171026 0.895250 3.228995 0
M  V30 14 C 0.476356 1.516531 4.303695 0
M  V30 15 O 0.279787 0.776112 5.304309 0
M  V30 16 C 0.082226 2.949438 4.095359 0
M  V30 17 C -1.095392 3.423780 4.863566 0
M  V30 18 C 0.322203 3.810980 5.347581 0
M  V30 19 C 0.738692 -1.543810 3.110289 0
M  V30 20 N -0.618218 -4.175636 2.518231 0
M  V30 21 C -1.103141 -5.384880 2.306048 0
M  V30 22 O -2.229247 -5.929124 1.767637 0
M  V30 23 C -3.350882 -5.335589 1.203700 0
M  V30 24 C -2.993025 -4.481711 0.025186 0
M  V30 25 C -4.205125 -3.870363 -0.664846 0
M  V30 26 C -3.673537 -3.032149 -1.792621 0
M  V30 27 C -3.407697 -1.683011 -1.697014 0
M  V30 28 N -2.970474 -1.289897 -2.900219 0
M  V30 29 C -2.600978 0.049470 -3.296453 0
M  V30 30 C -1.180533 0.413130 -3.005031 0
M  V30 31 N -0.895276 1.775662 -3.477714 0
M  V30 32 C 0.323197 2.392717 -3.117280 0
M  V30 33 C 0.163844 3.134942 -1.950828 0
M  V30 34 C 1.225978 3.827577 -1.387262 0
M  V30 35 N 2.410548 3.749611 -2.020318 0
M  V30 36 C 2.598039 3.039097 -3.152952 0
M  V30 37 C 3.806622 2.936940 -3.807994 0
M  V30 38 C 3.917163 2.168199 -4.974070 0
M  V30 39 C 2.814103 1.491121 -5.499676 0
M  V30 40 O 2.995123 0.741278 -6.672656 0
M  V30 41 C 4.324183 0.753105 -7.213961 0
M  V30 42 C 1.590934 1.572842 -4.868357 0
M  V30 43 C 1.553320 2.344820 -3.724708 0
M  V30 44 C 1.206544 4.649517 -0.161619 0
M  V30 45 C -0.171783 5.049040 0.268653 0
M  V30 46 C -1.224875 4.765412 -0.790752 0
M  V30 47 C -1.097198 3.295813 -1.177822 0
M  V30 48 N -2.948834 -2.318864 -3.743030 0
M  V30 49 N -3.377576 -3.364090 -3.060125 0
M  V30 50 H -0.104737 -10.462765 1.852869 0
M  V30 51 H -0.780589 -10.385980 3.477408 0
M  V30 52 H -1.908449 -10.759230 2.119905 0
M  V30 53 H -2.150328 -8.250155 1.847452 0
M  V30 54 H 2.887653 -3.880216 4.197557 0
M  V30 55 H 4.247527 -1.971910 4.780381 0
M  V30 56 H 1.407564 1.391260 2.327081 0
M  V30 57 H 0.346858 3.434703 3.132090 0
M  V30 58 H -1.652315 2.662054 5.417520 0
M  V30 59 H -1.679506 4.293505 4.553785 0
M  V30 60 H 0.589309 3.288828 6.293672 0
M  V30 61 H 0.669912 4.836808 5.226555 0
M  V30 62 H -0.206260 -1.395036 2.656655 0
M  V30 63 H -3.783885 -4.641513 1.987916 0
M  V30 64 H -4.114766 -6.110383 0.956613 0
M  V30 65 H -2.494815 -5.114434 -0.737574 0
M  V30 66 H -2.368359 -3.635495 0.359662 0
M  V30 67 H -4.914975 -4.626574 -1.009770 0
M  V30 68 H -4.773500 -3.186389 0.027281 0
M  V30 69 H -3.519211 -1.052748 -0.852382 0
M  V30 70 H -3.293478 0.785390 -2.820324 0
M  V30 71 H -2.775301 0.170141 -4.396017 0
M  V30 72 H -0.470186 -0.252040 -3.558667 0
M  V30 73 H -0.917594 0.350566 -1.937302 0
M  V30 74 H -1.513862 2.366462 -4.068653 0
M  V30 75 H 4.643499 3.460845 -3.402103 0
M  V30 76 H 4.904216 2.166357 -5.396276 0
M  V30 77 H 5.046457 0.405609 -6.413234 0
M  V30 78 H 4.401036 0.044608 -8.056430 0
M  V30 79 H 4.655839 1.773783 -7.486583 0
M  V30 80 H 0.723238 1.059147 -5.246423 0
M  V30 81 H 1.803505 5.594822 -0.320020 0
M  V30 82 H 1.722041 4.114783 0.660637 0
M  V30 83 H -0.455969 4.412424 1.137465 0
M  V30 84 H -0.256732 6.112698 0.577780 0
M  V30 85 H -1.105374 5.407161 -1.685877 0
M  V30 86 H -2.213652 4.929973 -0.324570 0
M  V30 87 H -1.057590 2.678974 -0.288956 0
M  V30 88 H -1.928235 3.070145 -1.875073 0
M  V30 END ATOM
M  V30 BEGIN BOND
M  V30 1 1 1 2
M  V30 2 1 2 3
M  V30 3 2 3 4
M  V30 4 1 3 5
M  V30 5 1 5 6
M  V30 6 1 6 7
M  V30 7 1 7 8
M  V30 8 2 8 9
M  V30 9 1 9 10
M  V30 10 2 10 11
M  V30 11 1 11 12
M  V30 12 1 12 13
M  V30 13 1 13 14
M  V30 14 2 14 15
M  V30 15 1 14 16
M  V30 16 1 16 17
M  V30 17 1 17 18
M  V30 18 2 12 19
M  V30 19 2 7 20
M  V30 20 1 20 21
M  V30 21 1 21 22
M  V30 22 1 22 23
M  V30 23 1 23 24
M  V30 24 1 24 25
M  V30 25 1 25 26
M  V30 26 2 26 27
M  V30 27 1 27 28
M  V30 28 1 28 29
M  V30 29 1 29 30
M  V30 30 1 30 31
M  V30 31 1 31 32
M  V30 32 2 32 33
M  V30 33 1 33 34
M  V30 34 2 34 35
M  V30 35 1 35 36
M  V30 36 2 36 37
M  V30 37 1 37 38
M  V30 38 2 38 39
M  V30 39 1 39 40
M  V30 40 1 40 41
M  V30 41 1 39 42
M  V30 42 2 42 43
M  V30 43 1 34 44
M  V30 44 1 44 45
M  V30 45 1 45 46
M  V30 46 1 46 47
M  V30 47 1 28 48
M  V30 48 2 48 49
M  V30 49 2 21 5
M  V30 50 1 49 26
M  V30 51 1 19 8
M  V30 52 1 43 32
M  V30 53 1 18 16
M  V30 54 1 47 33
M  V30 55 1 43 36
M  V30 56 1 1 50
M  V30 57 1 1 51
M  V30 58 1 1 52
M  V30 59 1 2 53
M  V30 60 1 9 54
M  V30 61 1 10 55
M  V30 62 1 13 56
M  V30 63 1 16 57
M  V30 64 1 17 58
M  V30 65 1 17 59
M  V30 66 1 18 60
M  V30 67 1 18 61
M  V30 68 1 19 62
M  V30 69 1 23 63
M  V30 70 1 23 64
M  V30 71 1 24 65
M  V30 72 1 24 66
M  V30 73 1 25 67
M  V30 74 1 25 68
M  V30 75 1 27 69
M  V30 76 1 29 70
M  V30 77 1 29 71
M  V30 78 1 30 72
M  V30 79 1 30 73
M  V30 80 1 31 74
M  V30 81 1 37 75
M  V30 82 1 38 76
M  V30 83 1 41 77
M  V30 84 1 41 78
M  V30 85 1 41 79
M  V30 86 1 42 80
M  V30 87 1 44 81
M  V30 88 1 44 82
M  V30 89 1 45 83
M  V30 90 1 45 84
M  V30 91 1 46 85
M  V30 92 1 46 86
M  V30 93 1 47 87
M  V30 94 1 47 88
M  V30 END BOND
M  V30 END CTAB
M  END
>  <Dataset>  (370) 
ChEMBL_Kinases

>  <Ligand_Instance>  (370) 
nan

>  <PDB_ID>  (370) 
nan

>  <Standardized_SMILES>  (370) 
CNC(=O)c1sc(-c2ccnc(NC(=O)C3CC3)c2)nc1OCCCc1cn(CCNc2c3c(nc4ccc(OC)cc24)CCCC3)nn1

>  <Name>  (370) 
nan

>  <Pocket>  (370) 
nan

>  <ATP_Site>  (370) 
nan

>  <Peripheral>  (370) 
nan

>  <Num_H_Atoms_ProtBoundConf>  (370) 
nan

>  <Num_Resolved_Atoms>  (370) 
nan

>  <Num_Not_Resolved_Atoms>  (370) 
nan

$$$$
CHEMBL4744945
     RDKit          3D

  0  0  0  0  0  0  0  0  0  0999 V3000
M  V30 BEGIN CTAB
M  V30 COUNTS 60 63 0 0 0
M  V30 BEGIN ATOM
M  V30 1 C 4.092818 -7.330945 6.736089 0
M  V30 2 O 4.299390 -7.163896 5.346698 0
M  V30 3 C 4.660536 -5.960777 4.762692 0
M  V30 4 C 4.795975 -6.085923 3.375038 0
M  V30 5 C 5.156785 -4.971881 2.610941 0
M  V30 6 C 5.379472 -3.752576 3.217152 0
M  V30 7 C 5.765258 -2.504002 2.515716 0
M  V30 8 C 4.578821 -1.721827 2.096452 0
M  V30 9 O 3.500370 -2.276750 2.423684 0
M  V30 10 N 4.617264 -0.486783 1.404695 0
M  V30 11 C 3.440950 0.219370 1.027816 0
M  V30 12 C 2.117097 -0.107752 1.232033 0
M  V30 13 C 1.313259 0.882726 0.691531 0
M  V30 14 C -0.171448 0.900653 0.707124 0 CFG=1
M  V30 15 C -0.749488 2.134685 1.360562 0
M  V30 16 C -1.971260 2.533987 0.536399 0
M  V30 17 C -2.202948 1.370952 -0.403367 0 CFG=1
M  V30 18 O -2.923324 1.686165 -1.549943 0
M  V30 19 C -4.071891 1.017671 -1.953988 0
M  V30 20 O -4.364199 0.084438 -1.131747 0
M  V30 21 N -4.791210 1.345450 -3.111557 0
M  V30 22 C -4.661716 2.335279 -4.173661 0
M  V30 23 C -5.351900 1.339761 -5.075146 0
M  V30 24 C -5.966440 0.864199 -3.768645 0
M  V30 25 C -7.176854 1.695679 -3.359371 0
M  V30 26 C -6.217051 -0.625079 -3.690819 0
M  V30 27 C -0.779969 0.947882 -0.681697 0
M  V30 28 N 2.158147 1.787284 0.172140 0
M  V30 29 N 3.401437 1.391668 0.373098 0
M  V30 30 C 5.228712 -3.705384 4.576250 0
M  V30 31 N 4.882525 -4.762283 5.332235 0
M  V30 32 H 3.088541 -6.943808 7.015362 0
M  V30 33 H 4.050216 -8.421502 6.947799 0
M  V30 34 H 4.887369 -6.872117 7.349568 0
M  V30 35 H 4.644337 -7.001031 2.790040 0
M  V30 36 H 5.275172 -5.018727 1.523490 0
M  V30 37 H 6.402769 -1.921370 3.177058 0
M  V30 38 H 6.347370 -2.782232 1.614097 0
M  V30 39 H 5.552288 -0.089928 1.168980 0
M  V30 40 H 1.727182 -0.964685 1.717444 0
M  V30 41 H -0.574103 -0.024866 1.202109 0
M  V30 42 H -1.083375 1.822991 2.387301 0
M  V30 43 H -0.036217 2.943441 1.504141 0
M  V30 44 H -2.853131 2.581009 1.211519 0
M  V30 45 H -1.820937 3.481674 0.002172 0
M  V30 46 H -2.676745 0.526239 0.126000 0
M  V30 47 H -5.365106 3.165000 -3.945706 0
M  V30 48 H -3.640531 2.621767 -4.424399 0
M  V30 49 H -6.044074 1.804463 -5.792956 0
M  V30 50 H -4.647689 0.598105 -5.491476 0
M  V30 51 H -6.924973 2.520043 -2.673486 0
M  V30 52 H -7.857889 1.018528 -2.774035 0
M  V30 53 H -7.745337 2.001291 -4.259354 0
M  V30 54 H -5.895189 -1.084375 -2.747667 0
M  V30 55 H -5.830992 -1.153830 -4.588636 0
M  V30 56 H -7.338601 -0.750735 -3.729640 0
M  V30 57 H -0.711519 -0.048339 -1.166698 0
M  V30 58 H -0.198586 1.678145 -1.265974 0
M  V30 59 H 1.846352 2.666240 -0.314161 0
M  V30 60 H 5.390960 -2.778348 5.103573 0
M  V30 END ATOM
M  V30 BEGIN BOND
M  V30 1 1 1 2
M  V30 2 1 2 3
M  V30 3 2 3 4
M  V30 4 1 4 5
M  V30 5 2 5 6
M  V30 6 1 6 7
M  V30 7 1 7 8
M  V30 8 2 8 9
M  V30 9 1 8 10
M  V30 10 1 10 11
M  V30 11 1 11 12
M  V30 12 2 12 13
M  V30 13 1 13 14
M  V30 14 1 14 15
M  V30 15 1 15 16
M  V30 16 1 16 17
M  V30 17 1 17 18
M  V30 18 1 18 19
M  V30 19 2 19 20
M  V30 20 1 19 21
M  V30 21 1 21 22
M  V30 22 1 22 23
M  V30 23 1 23 24
M  V30 24 1 24 25
M  V30 25 1 24 26
M  V30 26 1 17 27
M  V30 27 1 13 28
M  V30 28 1 28 29
M  V30 29 1 6 30
M  V30 30 2 30 31
M  V30 31 1 31 3
M  V30 32 2 29 11
M  V30 33 1 27 14
M  V30 34 1 24 21
M  V30 35 1 1 32
M  V30 36 1 1 33
M  V30 37 1 1 34
M  V30 38 1 4 35
M  V30 39 1 5 36
M  V30 40 1 7 37
M  V30 41 1 7 38
M  V30 42 1 10 39
M  V30 43 1 12 40
M  V30 44 1 14 41 CFG=1
M  V30 45 1 15 42
M  V30 46 1 15 43
M  V30 47 1 16 44
M  V30 48 1 16 45
M  V30 49 1 17 46 CFG=1
M  V30 50 1 22 47
M  V30 51 1 22 48
M  V30 52 1 23 49
M  V30 53 1 23 50
M  V30 54 1 25 51
M  V30 55 1 25 52
M  V30 56 1 25 53
M  V30 57 1 26 54
M  V30 58 1 26 55
M  V30 59 1 26 56
M  V30 60 1 27 57
M  V30 61 1 27 58
M  V30 62 1 28 59
M  V30 63 1 30 60
M  V30 END BOND
M  V30 END CTAB
M  END
>  <Dataset>  (371) 
ChEMBL_Kinases

>  <Ligand_Instance>  (371) 
nan

>  <PDB_ID>  (371) 
nan

>  <Standardized_SMILES>  (371) 
COc1ccc(CC(=O)Nc2cc([C@H]3CC[C@@H](OC(=O)N4CCC4(C)C)C3)[nH]n2)cn1

>  <Name>  (371) 
nan

>  <Pocket>  (371) 
nan

>  <ATP_Site>  (371) 
nan

>  <Peripheral>  (371) 
nan

>  <Num_H_Atoms_ProtBoundConf>  (371) 
nan

>  <Num_Resolved_Atoms>  (371) 
nan

>  <Num_Not_Resolved_Atoms>  (371) 
nan

$$$$
CHEMBL4744527
     RDKit          3D

  0  0  0  0  0  0  0  0  0  0999 V3000
M  V30 BEGIN CTAB
M  V30 COUNTS 39 41 0 0 0
M  V30 BEGIN ATOM
M  V30 1 O -0.427618 -1.699723 2.839050 0
M  V30 2 C -0.998657 -2.484443 2.030284 0
M  V30 3 N -0.592566 -2.203546 0.717621 0
M  V30 4 C 0.333326 -1.164272 0.441501 0
M  V30 5 C -0.072940 0.133316 0.186936 0
M  V30 6 C 0.843773 1.132537 -0.080072 0
M  V30 7 C 2.196400 0.840896 -0.095669 0
M  V30 8 O 3.224421 1.752342 -0.350301 0
M  V30 9 C 2.885799 3.073620 -0.613931 0
M  V30 10 C 2.688598 3.283749 -1.982769 0
M  V30 11 C 2.340013 4.541042 -2.477635 0
M  V30 12 C 2.192530 5.589298 -1.565176 0
M  V30 13 C 2.390043 5.370490 -0.212317 0
M  V30 14 C 2.734969 4.120805 0.265206 0
M  V30 15 C 2.645888 -0.459559 0.157016 0
M  V30 16 C 1.702409 -1.440919 0.421744 0
M  V30 17 O 2.126463 -2.756062 0.679044 0
M  V30 18 C -1.919440 -3.483857 2.537556 0
M  V30 19 C -2.136990 -3.537935 3.897460 0
M  V30 20 C -2.992911 -4.452312 4.468838 0
M  V30 21 Cl -3.203668 -4.442565 6.209488 0
M  V30 22 C -3.680970 -5.363340 3.729514 0
M  V30 23 C -3.487131 -5.335220 2.381159 0
M  V30 24 Cl -4.337120 -6.477095 1.355857 0
M  V30 25 C -2.628479 -4.415907 1.821702 0
M  V30 26 O -2.475108 -4.438353 0.450402 0
M  V30 27 H -1.002971 -2.792989 -0.037185 0
M  V30 28 H -1.135821 0.375573 0.196379 0
M  V30 29 H 0.570624 2.160978 -0.284655 0
M  V30 30 H 2.777931 2.541603 -2.768362 0
M  V30 31 H 2.179871 4.741771 -3.523858 0
M  V30 32 H 1.922855 6.592029 -1.882733 0
M  V30 33 H 2.294057 6.130914 0.551436 0
M  V30 34 H 2.911037 3.845377 1.296540 0
M  V30 35 H 3.679375 -0.777120 0.165401 0
M  V30 36 H 2.937734 -3.130536 0.175932 0
M  V30 37 H -1.623141 -2.841933 4.556114 0
M  V30 38 H -4.352768 -6.082512 4.167892 0
M  V30 39 H -1.922853 -5.086948 -0.079297 0
M  V30 END ATOM
M  V30 BEGIN BOND
M  V30 1 2 1 2
M  V30 2 1 2 3
M  V30 3 1 3 4
M  V30 4 2 4 5
M  V30 5 1 5 6
M  V30 6 2 6 7
M  V30 7 1 7 8
M  V30 8 1 8 9
M  V30 9 2 9 10
M  V30 10 1 10 11
M  V30 11 2 11 12
M  V30 12 1 12 13
M  V30 13 2 13 14
M  V30 14 1 7 15
M  V30 15 2 15 16
M  V30 16 1 16 17
M  V30 17 1 2 18
M  V30 18 2 18 19
M  V30 19 1 19 20
M  V30 20 1 20 21
M  V30 21 2 20 22
M  V30 22 1 22 23
M  V30 23 1 23 24
M  V30 24 2 23 25
M  V30 25 1 25 26
M  V30 26 1 16 4
M  V30 27 1 25 18
M  V30 28 1 14 9
M  V30 29 1 3 27
M  V30 30 1 5 28
M  V30 31 1 6 29
M  V30 32 1 10 30
M  V30 33 1 11 31
M  V30 34 1 12 32
M  V30 35 1 13 33
M  V30 36 1 14 34
M  V30 37 1 15 35
M  V30 38 1 17 36
M  V30 39 1 19 37
M  V30 40 1 22 38
M  V30 41 1 26 39
M  V30 END BOND
M  V30 END CTAB
M  END
>  <Dataset>  (372) 
ChEMBL_Kinases

>  <Ligand_Instance>  (372) 
nan

>  <PDB_ID>  (372) 
nan

>  <Standardized_SMILES>  (372) 
O=C(Nc1ccc(Oc2ccccc2)cc1O)c1cc(Cl)cc(Cl)c1O

>  <Name>  (372) 
nan

>  <Pocket>  (372) 
nan

>  <ATP_Site>  (372) 
nan

>  <Peripheral>  (372) 
nan

>  <Num_H_Atoms_ProtBoundConf>  (372) 
nan

>  <Num_Resolved_Atoms>  (372) 
nan

>  <Num_Not_Resolved_Atoms>  (372) 
nan

$$$$
CHEMBL4758448
     RDKit          3D

  0  0  0  0  0  0  0  0  0  0999 V3000
M  V30 BEGIN CTAB
M  V30 COUNTS 63 70 0 0 0
M  V30 BEGIN ATOM
M  V30 1 C -2.842982 0.519734 -0.359825 0
M  V30 2 O -1.896606 -0.471621 -0.148073 0
M  V30 3 C -1.580423 -1.170811 -1.315764 0 CFG=2
M  V30 4 C -1.957501 -2.623183 -1.053941 0 CFG=2
M  V30 5 N -3.386142 -2.788873 -1.108166 0
M  V30 6 C -4.052532 -3.672685 -2.002190 0
M  V30 7 C -5.537353 -3.722367 -1.926590 0
M  V30 8 O -3.337309 -4.350258 -2.794213 0
M  V30 9 C -1.369841 -2.895190 0.318356 0
M  V30 10 C 0.130483 -2.773752 0.191589 0 CFG=1
M  V30 11 O 0.567158 -2.214887 -0.950137 0
M  V30 12 C -0.097886 -1.122089 -1.479476 0 CFG=1
M  V30 13 C 0.314655 -1.137327 -2.959598 0
M  V30 14 N 0.394149 0.068055 -0.816147 0
M  V30 15 C 0.497271 1.332872 -1.251004 0
M  V30 16 C 0.140099 1.890239 -2.453312 0
M  V30 17 C 0.329080 3.232867 -2.696037 0
M  V30 18 C 0.872710 4.089511 -1.779795 0
M  V30 19 C 1.231099 3.529816 -0.571174 0
M  V30 20 C 1.044437 2.188300 -0.323350 0
M  V30 21 C 1.309472 1.419731 0.786728 0
M  V30 22 C 1.844841 1.689076 2.026912 0
M  V30 23 C 1.981292 0.686421 2.955997 0
M  V30 24 C 1.577390 -0.569992 2.624625 0
M  V30 25 C 1.596690 -1.713137 3.359479 0
M  V30 26 C 1.970935 -2.143225 4.595526 0
M  V30 27 C 1.853990 -3.431662 5.061918 0
M  V30 28 C 1.308684 -4.404543 4.219423 0
M  V30 29 C 0.916562 -4.012206 2.959255 0
M  V30 30 C 1.073025 -2.687014 2.574136 0
M  V30 31 N 0.739124 -2.157046 1.383433 0
M  V30 32 C 1.051484 -0.827185 1.400837 0
M  V30 33 C 0.906790 0.169278 0.449554 0
M  V30 34 C 2.562817 1.326059 4.102625 0
M  V30 35 O 2.899686 0.908111 5.218201 0
M  V30 36 N 2.777105 2.693059 3.877493 0
M  V30 37 C 2.333163 3.021377 2.536279 0
M  V30 38 H -3.806452 0.172414 -0.743493 0
M  V30 39 H -3.059117 0.940153 0.658488 0
M  V30 40 H -2.499576 1.362876 -0.967117 0
M  V30 41 H -2.143802 -0.802692 -2.189003 0
M  V30 42 H -1.453858 -3.276413 -1.801113 0
M  V30 43 H -3.947692 -2.202448 -0.427663 0
M  V30 44 H -5.945999 -2.689833 -1.721758 0
M  V30 45 H -5.892577 -4.331878 -1.056132 0
M  V30 46 H -6.015361 -4.031034 -2.869579 0
M  V30 47 H -1.702491 -2.053537 0.972348 0
M  V30 48 H -1.717807 -3.827482 0.766573 0
M  V30 49 H 0.494564 -3.824640 0.194890 0
M  V30 50 H 0.674585 -2.177791 -3.261252 0
M  V30 51 H 1.198223 -0.513062 -3.159856 0
M  V30 52 H -0.548740 -0.987636 -3.632080 0
M  V30 53 H -0.295576 1.288140 -3.203108 0
M  V30 54 H 0.030215 3.638736 -3.670724 0
M  V30 55 H 1.036085 5.146814 -1.934522 0
M  V30 56 H 1.665188 4.177414 0.180601 0
M  V30 57 H 2.396009 -1.490166 5.315175 0
M  V30 58 H 2.155138 -3.763574 6.048078 0
M  V30 59 H 1.195277 -5.425288 4.534663 0
M  V30 60 H 0.495396 -4.740431 2.294661 0
M  V30 61 H 3.163433 3.477746 4.432430 0
M  V30 62 H 1.501413 3.738636 2.627495 0
M  V30 63 H 3.202441 3.386957 1.978720 0
M  V30 END ATOM
M  V30 BEGIN BOND
M  V30 1 1 1 2
M  V30 2 1 2 3
M  V30 3 1 3 4
M  V30 4 1 4 5
M  V30 5 1 5 6
M  V30 6 1 6 7
M  V30 7 2 6 8
M  V30 8 1 4 9
M  V30 9 1 9 10
M  V30 10 1 10 11
M  V30 11 1 11 12
M  V30 12 1 12 13 CFG=3
M  V30 13 1 12 14
M  V30 14 1 14 15
M  V30 15 2 15 16
M  V30 16 1 16 17
M  V30 17 2 17 18
M  V30 18 1 18 19
M  V30 19 2 19 20
M  V30 20 1 20 21
M  V30 21 2 21 22
M  V30 22 1 22 23
M  V30 23 2 23 24
M  V30 24 1 24 25
M  V30 25 2 25 26
M  V30 26 1 26 27
M  V30 27 2 27 28
M  V30 28 1 28 29
M  V30 29 2 29 30
M  V30 30 1 30 31
M  V30 31 1 31 32
M  V30 32 2 32 33
M  V30 33 1 23 34
M  V30 34 2 34 35
M  V30 35 1 34 36
M  V30 36 1 36 37
M  V30 37 1 12 3
M  V30 38 1 33 14
M  V30 39 1 31 10
M  V30 40 1 20 15
M  V30 41 1 33 21
M  V30 42 1 37 22
M  V30 43 1 32 24
M  V30 44 1 30 25
M  V30 45 1 1 38
M  V30 46 1 1 39
M  V30 47 1 1 40
M  V30 48 1 3 41 CFG=3
M  V30 49 1 4 42 CFG=3
M  V30 50 1 5 43
M  V30 51 1 7 44
M  V30 52 1 7 45
M  V30 53 1 7 46
M  V30 54 1 9 47
M  V30 55 1 9 48
M  V30 56 1 10 49 CFG=3
M  V30 57 1 13 50
M  V30 58 1 13 51
M  V30 59 1 13 52
M  V30 60 1 16 53
M  V30 61 1 17 54
M  V30 62 1 18 55
M  V30 63 1 19 56
M  V30 64 1 26 57
M  V30 65 1 27 58
M  V30 66 1 28 59
M  V30 67 1 29 60
M  V30 68 1 36 61
M  V30 69 1 37 62
M  V30 70 1 37 63
M  V30 END BOND
M  V30 END CTAB
M  END
>  <Dataset>  (373) 
ChEMBL_Kinases

>  <Ligand_Instance>  (373) 
nan

>  <PDB_ID>  (373) 
nan

>  <Standardized_SMILES>  (373) 
CO[C@@H]1[C@H](NC(C)=O)C[C@H]2O[C@]1(C)n1c3ccccc3c3c4c(c5c6ccccc6n2c5c31)C(=O)NC4

>  <Name>  (373) 
nan

>  <Pocket>  (373) 
nan

>  <ATP_Site>  (373) 
nan

>  <Peripheral>  (373) 
nan

>  <Num_H_Atoms_ProtBoundConf>  (373) 
nan

>  <Num_Resolved_Atoms>  (373) 
nan

>  <Num_Not_Resolved_Atoms>  (373) 
nan

$$$$
CHEMBL4758452
     RDKit          3D

  0  0  0  0  0  0  0  0  0  0999 V3000
M  V30 BEGIN CTAB
M  V30 COUNTS 54 57 0 0 0
M  V30 BEGIN ATOM
M  V30 1 O -0.249654 -2.900101 -0.604050 0
M  V30 2 C 0.076251 -3.890167 0.080212 0
M  V30 3 N 1.177144 -3.693020 0.956748 0
M  V30 4 C 1.800095 -2.406847 0.976858 0
M  V30 5 C 1.238822 -1.532826 1.909235 0
M  V30 6 C 1.755987 -0.239622 2.031347 0
M  V30 7 C 2.808277 0.124028 1.219521 0
M  V30 8 C 3.450056 1.451062 1.241248 0
M  V30 9 C 2.828611 2.435874 0.303290 0
M  V30 10 N 1.432449 2.704368 0.556543 0
M  V30 11 C 1.015650 3.279630 1.781877 0
M  V30 12 N 1.882418 3.599806 2.740207 0
M  V30 13 N 1.533771 4.139616 3.892169 0
M  V30 14 C 0.262813 4.427271 4.227985 0
M  V30 15 O -0.016845 4.945182 5.347282 0
M  V30 16 C -0.683060 4.126132 3.293155 0
M  V30 17 C -2.026122 4.390394 3.556718 0
M  V30 18 C -2.993751 4.098053 2.636563 0
M  V30 19 C -2.630717 3.525970 1.414073 0
M  V30 20 C -1.290534 3.284080 1.201222 0
M  V30 21 C -0.291690 3.564732 2.102501 0
M  V30 22 C 3.342543 -0.762707 0.306400 0
M  V30 23 C 2.853457 -2.050694 0.160524 0
M  V30 24 N -0.634639 -5.086611 -0.052639 0
M  V30 25 C -1.739880 -5.278259 -0.935179 0
M  V30 26 C -3.058443 -5.062810 -0.634922 0
M  V30 27 C -4.041274 -5.291376 -1.596828 0
M  V30 28 C -3.709887 -5.735172 -2.859503 0
M  V30 29 Cl -5.012141 -5.993667 -3.998877 0
M  V30 30 C -2.371483 -5.940744 -3.124301 0
M  V30 31 C -2.039535 -6.418833 -4.491286 0
M  V30 32 F -2.698289 -7.635158 -4.650596 0
M  V30 33 F -0.687715 -6.612363 -4.662964 0
M  V30 34 F -2.525052 -5.592269 -5.481537 0
M  V30 35 C -1.379360 -5.727330 -2.206059 0
M  V30 36 H 1.476808 -4.518748 1.551609 0
M  V30 37 H 0.414743 -1.797362 2.554477 0
M  V30 38 H 1.365430 0.471403 2.728212 0
M  V30 39 H 4.538957 1.390147 0.983712 0
M  V30 40 H 3.398230 1.856755 2.268838 0
M  V30 41 H 3.068604 2.240274 -0.758439 0
M  V30 42 H 3.349260 3.420087 0.514260 0
M  V30 43 H 0.824117 2.433949 -0.231175 0
M  V30 44 H 2.334377 4.329996 4.535068 0
M  V30 45 H -2.250341 4.836738 4.525648 0
M  V30 46 H -4.037840 4.318819 2.876705 0
M  V30 47 H -3.402915 3.297697 0.691316 0
M  V30 48 H -1.073419 2.844538 0.246198 0
M  V30 49 H 4.182954 -0.504742 -0.357153 0
M  V30 50 H 3.239005 -2.778371 -0.539459 0
M  V30 51 H -0.320967 -5.891387 0.545922 0
M  V30 52 H -3.212190 -4.717801 0.374753 0
M  V30 53 H -5.032822 -5.084333 -1.233853 0
M  V30 54 H -0.349309 -5.916735 -2.504879 0
M  V30 END ATOM
M  V30 BEGIN BOND
M  V30 1 2 1 2
M  V30 2 1 2 3
M  V30 3 1 3 4
M  V30 4 2 4 5
M  V30 5 1 5 6
M  V30 6 2 6 7
M  V30 7 1 7 8
M  V30 8 1 8 9
M  V30 9 1 9 10
M  V30 10 1 10 11
M  V30 11 2 11 12
M  V30 12 1 12 13
M  V30 13 1 13 14
M  V30 14 2 14 15
M  V30 15 1 14 16
M  V30 16 2 16 17
M  V30 17 1 17 18
M  V30 18 2 18 19
M  V30 19 1 19 20
M  V30 20 2 20 21
M  V30 21 1 7 22
M  V30 22 2 22 23
M  V30 23 1 2 24
M  V30 24 1 24 25
M  V30 25 2 25 26
M  V30 26 1 26 27
M  V30 27 2 27 28
M  V30 28 1 28 29
M  V30 29 1 28 30
M  V30 30 1 30 31
M  V30 31 1 31 32
M  V30 32 1 31 33
M  V30 33 1 31 34
M  V30 34 2 30 35
M  V30 35 1 23 4
M  V30 36 1 35 25
M  V30 37 1 21 11
M  V30 38 1 21 16
M  V30 39 1 3 36
M  V30 40 1 5 37
M  V30 41 1 6 38
M  V30 42 1 8 39
M  V30 43 1 8 40
M  V30 44 1 9 41
M  V30 45 1 9 42
M  V30 46 1 10 43
M  V30 47 1 13 44
M  V30 48 1 17 45
M  V30 49 1 18 46
M  V30 50 1 19 47
M  V30 51 1 20 48
M  V30 52 1 22 49
M  V30 53 1 23 50
M  V30 54 1 24 51
M  V30 55 1 26 52
M  V30 56 1 27 53
M  V30 57 1 35 54
M  V30 END BOND
M  V30 END CTAB
M  END
>  <Dataset>  (374) 
ChEMBL_Kinases

>  <Ligand_Instance>  (374) 
nan

>  <PDB_ID>  (374) 
nan

>  <Standardized_SMILES>  (374) 
O=C(Nc1ccc(CCNc2n[nH]c(=O)c3ccccc23)cc1)Nc1ccc(Cl)c(C(F)(F)F)c1

>  <Name>  (374) 
nan

>  <Pocket>  (374) 
nan

>  <ATP_Site>  (374) 
nan

>  <Peripheral>  (374) 
nan

>  <Num_H_Atoms_ProtBoundConf>  (374) 
nan

>  <Num_Resolved_Atoms>  (374) 
nan

>  <Num_Not_Resolved_Atoms>  (374) 
nan

$$$$
CHEMBL4758465
     RDKit          3D

  0  0  0  0  0  0  0  0  0  0999 V3000
M  V30 BEGIN CTAB
M  V30 COUNTS 37 39 0 0 0
M  V30 BEGIN ATOM
M  V30 1 C -1.589114 -1.930392 3.568888 0
M  V30 2 C -1.056037 -1.978181 2.181910 0
M  V30 3 C -1.101383 -3.169170 1.486118 0
M  V30 4 C -0.606046 -3.239388 0.179799 0
M  V30 5 C -0.081106 -2.088954 -0.370534 0
M  V30 6 C 0.429154 -2.189926 -1.735586 0
M  V30 7 O 0.360121 -3.302752 -2.317709 0
M  V30 8 N 1.001748 -1.113197 -2.457335 0
M  V30 9 C 1.479876 -1.290472 -3.792669 0
M  V30 10 C 1.656380 -0.175649 -4.751041 0
M  V30 11 C 2.873681 -0.725316 -4.053472 0
M  V30 12 C -0.043438 -0.910835 0.335992 0
M  V30 13 C -0.530080 -0.823680 1.631758 0
M  V30 14 N -0.496514 0.396508 2.377371 0
M  V30 15 C -1.385795 1.407015 2.306426 0
M  V30 16 C -1.209742 2.523340 3.097662 0
M  V30 17 N -0.164590 2.623306 3.941235 0
M  V30 18 C 0.722379 1.620156 4.014788 0
M  V30 19 N 1.827938 1.750116 4.921416 0
M  V30 20 C 0.549955 0.508330 3.228935 0
M  V30 21 O 1.448242 -0.385023 3.375813 0
M  V30 22 H -2.428149 -1.177452 3.611439 0
M  V30 23 H -2.046973 -2.880897 3.857885 0
M  V30 24 H -0.822363 -1.628838 4.303094 0
M  V30 25 H -1.527514 -4.038876 1.976565 0
M  V30 26 H -0.680158 -4.197720 -0.284478 0
M  V30 27 H 1.069277 -0.181168 -1.994494 0
M  V30 28 H 1.357768 -2.333460 -4.192483 0
M  V30 29 H 1.578851 -0.446666 -5.823826 0
M  V30 30 H 1.221241 0.789989 -4.463564 0
M  V30 31 H 3.591800 -1.321109 -4.650321 0
M  V30 32 H 3.369111 -0.105539 -3.298364 0
M  V30 33 H 0.360980 -0.024226 -0.087811 0
M  V30 34 H -2.191963 1.246667 1.606594 0
M  V30 35 H -1.966446 3.318346 2.999019 0
M  V30 36 H 2.047365 1.056416 5.666285 0
M  V30 37 H 2.579193 2.462274 5.047665 0
M  V30 END ATOM
M  V30 BEGIN BOND
M  V30 1 1 1 2
M  V30 2 2 2 3
M  V30 3 1 3 4
M  V30 4 2 4 5
M  V30 5 1 5 6
M  V30 6 2 6 7
M  V30 7 1 6 8
M  V30 8 1 8 9
M  V30 9 1 9 10
M  V30 10 1 10 11
M  V30 11 1 5 12
M  V30 12 2 12 13
M  V30 13 1 13 14
M  V30 14 1 14 15
M  V30 15 2 15 16
M  V30 16 1 16 17
M  V30 17 2 17 18
M  V30 18 1 18 19
M  V30 19 1 18 20
M  V30 20 2 20 21
M  V30 21 1 13 2
M  V30 22 1 20 14
M  V30 23 1 11 9
M  V30 24 1 1 22
M  V30 25 1 1 23
M  V30 26 1 1 24
M  V30 27 1 3 25
M  V30 28 1 4 26
M  V30 29 1 8 27
M  V30 30 1 9 28
M  V30 31 1 10 29
M  V30 32 1 10 30
M  V30 33 1 11 31
M  V30 34 1 11 32
M  V30 35 1 12 33
M  V30 36 1 15 34
M  V30 37 1 16 35
M  V30 38 1 19 36
M  V30 39 1 19 37
M  V30 END BOND
M  V30 END CTAB
M  END
>  <Dataset>  (375) 
ChEMBL_Kinases

>  <Ligand_Instance>  (375) 
nan

>  <PDB_ID>  (375) 
nan

>  <Standardized_SMILES>  (375) 
Cc1ccc(C(=O)NC2CC2)cc1-n1ccnc(N)c1=O

>  <Name>  (375) 
nan

>  <Pocket>  (375) 
nan

>  <ATP_Site>  (375) 
nan

>  <Peripheral>  (375) 
nan

>  <Num_H_Atoms_ProtBoundConf>  (375) 
nan

>  <Num_Resolved_Atoms>  (375) 
nan

>  <Num_Not_Resolved_Atoms>  (375) 
nan

$$$$
CHEMBL4286130
     RDKit          3D

  0  0  0  0  0  0  0  0  0  0999 V3000
M  V30 BEGIN CTAB
M  V30 COUNTS 52 55 0 0 0
M  V30 BEGIN ATOM
M  V30 1 C 2.682090 -7.619597 0.631806 0
M  V30 2 N 1.859127 -6.477017 0.201432 0
M  V30 3 C 2.678363 -5.722247 -0.699928 0
M  V30 4 C 1.787754 -5.241841 -1.853836 0
M  V30 5 N 0.530136 -4.865961 -1.235477 0
M  V30 6 C 0.135538 -3.540595 -0.915830 0
M  V30 7 C 0.959233 -2.454998 -1.112281 0
M  V30 8 C 0.589905 -1.157310 -0.808937 0
M  V30 9 C -0.656983 -0.901596 -0.282392 0
M  V30 10 C -1.152593 0.417968 0.073978 0
M  V30 11 O -2.306209 0.632524 0.559237 0
M  V30 12 N -0.370407 1.585283 -0.096799 0
M  V30 13 C -0.869177 2.873574 0.257331 0
M  V30 14 C -0.722775 3.452506 1.499208 0
M  V30 15 C -1.222698 4.701030 1.794384 0
M  V30 16 C -1.030658 5.263712 3.145714 0
M  V30 17 C -1.978128 6.106475 3.656790 0
M  V30 18 C -1.703049 6.581472 4.935070 0
M  V30 19 N -0.589234 6.247910 5.637075 0
M  V30 20 C 0.293319 5.412551 5.061235 0
M  V30 21 C 0.134500 4.874577 3.800350 0
M  V30 22 C -1.905165 5.414587 0.804128 0
M  V30 23 N -2.038531 4.828539 -0.409618 0
M  V30 24 C -1.548702 3.599817 -0.706563 0
M  V30 25 O -1.742424 3.162962 -1.886901 0
M  V30 26 C -1.509178 -1.989466 -0.074933 0
M  V30 27 C -1.111912 -3.295243 -0.390419 0
M  V30 28 C -0.263044 -6.030066 -0.987545 0
M  V30 29 C 0.713281 -7.081275 -0.449392 0
M  V30 30 H 3.325506 -7.336032 1.503621 0
M  V30 31 H 1.958717 -8.364358 1.041272 0
M  V30 32 H 3.259511 -8.050671 -0.185021 0
M  V30 33 H 3.026614 -4.803687 -0.184276 0
M  V30 34 H 3.560186 -6.285620 -1.094008 0
M  V30 35 H 1.674071 -6.045942 -2.614562 0
M  V30 36 H 2.278796 -4.373314 -2.325913 0
M  V30 37 H 1.954345 -2.553558 -1.518843 0
M  V30 38 H 1.256156 -0.320687 -0.972761 0
M  V30 39 H 0.595103 1.546547 -0.486211 0
M  V30 40 H -0.180713 2.854596 2.241640 0
M  V30 41 H -2.868356 6.402083 3.153508 0
M  V30 42 H -2.367573 7.247355 5.442154 0
M  V30 43 H 1.210180 5.106246 5.576058 0
M  V30 44 H 0.862198 4.207144 3.368078 0
M  V30 45 H -2.304114 6.390170 1.010422 0
M  V30 46 H -2.555343 5.389810 -1.130385 0
M  V30 47 H -2.500032 -1.795104 0.342325 0
M  V30 48 H -1.841678 -4.036717 -0.190641 0
M  V30 49 H -1.122615 -5.917684 -0.337285 0
M  V30 50 H -0.658319 -6.485436 -1.940763 0
M  V30 51 H 0.162987 -7.627202 0.343343 0
M  V30 52 H 0.996337 -7.822756 -1.204950 0
M  V30 END ATOM
M  V30 BEGIN BOND
M  V30 1 1 1 2
M  V30 2 1 2 3
M  V30 3 1 3 4
M  V30 4 1 4 5
M  V30 5 1 5 6
M  V30 6 2 6 7
M  V30 7 1 7 8
M  V30 8 2 8 9
M  V30 9 1 9 10
M  V30 10 2 10 11
M  V30 11 1 10 12
M  V30 12 1 12 13
M  V30 13 2 13 14
M  V30 14 1 14 15
M  V30 15 1 15 16
M  V30 16 2 16 17
M  V30 17 1 17 18
M  V30 18 2 18 19
M  V30 19 1 19 20
M  V30 20 2 20 21
M  V30 21 2 15 22
M  V30 22 1 22 23
M  V30 23 1 23 24
M  V30 24 2 24 25
M  V30 25 1 9 26
M  V30 26 2 26 27
M  V30 27 1 5 28
M  V30 28 1 28 29
M  V30 29 1 29 2
M  V30 30 1 27 6
M  V30 31 1 24 13
M  V30 32 1 21 16
M  V30 33 1 1 30
M  V30 34 1 1 31
M  V30 35 1 1 32
M  V30 36 1 3 33
M  V30 37 1 3 34
M  V30 38 1 4 35
M  V30 39 1 4 36
M  V30 40 1 7 37
M  V30 41 1 8 38
M  V30 42 1 12 39
M  V30 43 1 14 40
M  V30 44 1 17 41
M  V30 45 1 18 42
M  V30 46 1 20 43
M  V30 47 1 21 44
M  V30 48 1 22 45
M  V30 49 1 23 46
M  V30 50 1 26 47
M  V30 51 1 27 48
M  V30 52 1 28 49
M  V30 53 1 28 50
M  V30 54 1 29 51
M  V30 55 1 29 52
M  V30 END BOND
M  V30 END CTAB
M  END
>  <Dataset>  (376) 
ChEMBL_Kinases

>  <Ligand_Instance>  (376) 
nan

>  <PDB_ID>  (376) 
nan

>  <Standardized_SMILES>  (376) 
CN1CCN(c2ccc(C(=O)Nc3cc(-c4ccncc4)c[nH]c3=O)cc2)CC1

>  <Name>  (376) 
nan

>  <Pocket>  (376) 
nan

>  <ATP_Site>  (376) 
nan

>  <Peripheral>  (376) 
nan

>  <Num_H_Atoms_ProtBoundConf>  (376) 
nan

>  <Num_Resolved_Atoms>  (376) 
nan

>  <Num_Not_Resolved_Atoms>  (376) 
nan

$$$$
CHEMBL4286123
     RDKit          3D

  0  0  0  0  0  0  0  0  0  0999 V3000
M  V30 BEGIN CTAB
M  V30 COUNTS 51 53 0 0 0
M  V30 BEGIN ATOM
M  V30 1 C 4.176773 -4.481356 2.888570 0
M  V30 2 C 5.291649 -3.601384 3.408272 0
M  V30 3 S 4.750273 -2.512632 4.700580 0
M  V30 4 O 5.985259 -1.744395 5.141177 0
M  V30 5 O 4.232710 -3.308272 5.848652 0
M  V30 6 N 3.502181 -1.470063 4.151355 0
M  V30 7 C 3.667569 -0.533064 3.100837 0
M  V30 8 C 4.796227 0.266402 3.055055 0
M  V30 9 C 4.910596 1.162823 2.012251 0
M  V30 10 C 3.922676 1.269635 1.025395 0
M  V30 11 C 2.793835 0.468458 1.073202 0
M  V30 12 C 1.791079 0.615890 0.021900 0
M  V30 13 O 2.036218 1.476347 -0.862045 0
M  V30 14 N 0.613100 -0.169781 0.007237 0
M  V30 15 C -0.432016 -0.119014 -0.957520 0
M  V30 16 C -0.374327 -0.925751 -2.077165 0
M  V30 17 C -1.342995 -0.955068 -3.082722 0
M  V30 18 C -2.445780 -0.107155 -2.941728 0
M  V30 19 C -2.466564 0.684282 -1.807721 0
M  V30 20 C -3.644004 1.570110 -1.685538 0
M  V30 21 N -3.738276 2.901061 -1.919698 0
M  V30 22 N -4.977464 3.280033 -1.683979 0
M  V30 23 C -5.685405 2.183466 -1.295107 0
M  V30 24 N -4.859952 1.102182 -1.291653 0
M  V30 25 C -5.192717 -0.268761 -0.943240 0
M  V30 26 C -6.635324 -0.283667 -0.466994 0
M  V30 27 C -4.323787 -0.827122 0.146737 0
M  V30 28 N -1.511555 0.687802 -0.853390 0
M  V30 29 C 2.703087 -0.416305 2.121502 0
M  V30 30 H 3.180537 -4.071412 3.044840 0
M  V30 31 H 4.422919 -4.698011 1.815217 0
M  V30 32 H 4.191261 -5.499267 3.367260 0
M  V30 33 H 5.749563 -3.000479 2.595559 0
M  V30 34 H 6.051324 -4.288724 3.845160 0
M  V30 35 H 2.534179 -1.455477 4.554970 0
M  V30 36 H 5.544804 0.163188 3.831177 0
M  V30 37 H 5.816450 1.788596 1.995711 0
M  V30 38 H 4.116898 2.005782 0.255416 0
M  V30 39 H 0.413067 -0.882855 0.742481 0
M  V30 40 H 0.492667 -1.581927 -2.172781 0
M  V30 41 H -1.232923 -1.614587 -3.935514 0
M  V30 42 H -3.212950 -0.094950 -3.686435 0
M  V30 43 H -6.737510 2.106403 -1.017769 0
M  V30 44 H -5.153030 -0.933566 -1.830950 0
M  V30 45 H -6.751556 0.395370 0.387438 0
M  V30 46 H -6.901498 -1.334175 -0.163195 0
M  V30 47 H -7.344920 0.034984 -1.247327 0
M  V30 48 H -3.779599 -0.065612 0.734197 0
M  V30 49 H -3.621755 -1.585994 -0.298961 0
M  V30 50 H -4.918129 -1.411500 0.888385 0
M  V30 51 H 1.844839 -1.047192 2.185559 0
M  V30 END ATOM
M  V30 BEGIN BOND
M  V30 1 1 1 2
M  V30 2 1 2 3
M  V30 3 2 3 4
M  V30 4 2 3 5
M  V30 5 1 3 6
M  V30 6 1 6 7
M  V30 7 2 7 8
M  V30 8 1 8 9
M  V30 9 2 9 10
M  V30 10 1 10 11
M  V30 11 1 11 12
M  V30 12 2 12 13
M  V30 13 1 12 14
M  V30 14 1 14 15
M  V30 15 2 15 16
M  V30 16 1 16 17
M  V30 17 2 17 18
M  V30 18 1 18 19
M  V30 19 1 19 20
M  V30 20 2 20 21
M  V30 21 1 21 22
M  V30 22 2 22 23
M  V30 23 1 23 24
M  V30 24 1 24 25
M  V30 25 1 25 26
M  V30 26 1 25 27
M  V30 27 2 19 28
M  V30 28 2 11 29
M  V30 29 1 29 7
M  V30 30 1 28 15
M  V30 31 1 24 20
M  V30 32 1 1 30
M  V30 33 1 1 31
M  V30 34 1 1 32
M  V30 35 1 2 33
M  V30 36 1 2 34
M  V30 37 1 6 35
M  V30 38 1 8 36
M  V30 39 1 9 37
M  V30 40 1 10 38
M  V30 41 1 14 39
M  V30 42 1 16 40
M  V30 43 1 17 41
M  V30 44 1 18 42
M  V30 45 1 23 43
M  V30 46 1 25 44
M  V30 47 1 26 45
M  V30 48 1 26 46
M  V30 49 1 26 47
M  V30 50 1 27 48
M  V30 51 1 27 49
M  V30 52 1 27 50
M  V30 53 1 29 51
M  V30 END BOND
M  V30 END CTAB
M  END
>  <Dataset>  (377) 
ChEMBL_Kinases

>  <Ligand_Instance>  (377) 
nan

>  <PDB_ID>  (377) 
nan

>  <Standardized_SMILES>  (377) 
CCS(=O)(=O)Nc1cccc(C(=O)Nc2cccc(-c3nncn3C(C)C)n2)c1

>  <Name>  (377) 
nan

>  <Pocket>  (377) 
nan

>  <ATP_Site>  (377) 
nan

>  <Peripheral>  (377) 
nan

>  <Num_H_Atoms_ProtBoundConf>  (377) 
nan

>  <Num_Resolved_Atoms>  (377) 
nan

>  <Num_Not_Resolved_Atoms>  (377) 
nan

$$$$
CHEMBL4286045
     RDKit          3D

  0  0  0  0  0  0  0  0  0  0999 V3000
M  V30 BEGIN CTAB
M  V30 COUNTS 57 61 0 0 0
M  V30 BEGIN ATOM
M  V30 1 N 1.623106 -4.512757 4.682346 0
M  V30 2 C 1.923482 -3.542496 4.110672 0
M  V30 3 C 2.288574 -2.339405 3.378610 0
M  V30 4 C 2.994609 -1.423415 4.112667 0
M  V30 5 N 3.348787 -0.286427 3.453549 0
M  V30 6 C 3.000178 -0.118709 2.149929 0
M  V30 7 N 3.449372 1.103195 1.598667 0
M  V30 8 C 3.167057 2.505392 1.434176 0
M  V30 9 C 1.914768 2.819070 0.744637 0
M  V30 10 C 1.913202 3.241427 -0.587489 0
M  V30 11 C 0.728553 3.540061 -1.229465 0
M  V30 12 C -0.464206 3.420656 -0.552530 0
M  V30 13 C -0.468308 3.008441 0.749889 0
M  V30 14 C 0.706394 2.708625 1.398402 0
M  V30 15 Cl 0.605665 2.183024 3.080252 0
M  V30 16 N 2.311869 -1.063380 1.513109 0
M  V30 17 C 1.909500 -2.221123 2.058563 0
M  V30 18 N 1.203168 -3.260855 1.397932 0
M  V30 19 C 0.715765 -3.335793 0.069470 0
M  V30 20 C -0.495183 -2.538744 -0.268081 0 CFG=2
M  V30 21 C -0.400449 -1.061790 -0.081166 0
M  V30 22 C -1.733410 -0.460563 -0.542556 0 CFG=2
M  V30 23 C -2.873533 -0.980017 0.304024 0
M  V30 24 C -2.955783 -2.473467 0.163287 0 CFG=2
M  V30 25 C -1.625781 -3.046814 0.605734 0
M  V30 26 C -3.171334 -2.899865 -1.271766 0 CFG=1
M  V30 27 N -4.521729 -2.633096 -1.715704 0
M  V30 28 C -2.127277 -2.268611 -2.140689 0 CFG=1
M  V30 29 C -2.040778 -0.765148 -1.980308 0
M  V30 30 C -0.780495 -2.813018 -1.739212 0
M  V30 31 H 3.259075 -1.572743 5.133946 0
M  V30 32 H 4.320844 0.693634 1.178223 0
M  V30 33 H 3.987796 2.953428 0.856529 0
M  V30 34 H 3.090865 2.945099 2.459410 0
M  V30 35 H 2.851578 3.340425 -1.136383 0
M  V30 36 H 0.798365 3.866314 -2.273802 0
M  V30 37 H -1.315847 3.680021 -1.152243 0
M  V30 38 H -1.461212 2.952150 1.181517 0
M  V30 39 H 1.016149 -4.101542 1.995788 0
M  V30 40 H 1.540129 -3.085742 -0.677296 0
M  V30 41 H 0.477893 -4.404099 -0.182368 0
M  V30 42 H 0.384511 -0.555449 -0.647577 0
M  V30 43 H -0.365328 -0.784966 1.007832 0
M  V30 44 H -1.646370 0.630505 -0.375584 0
M  V30 45 H -2.751267 -0.754771 1.372335 0
M  V30 46 H -3.796606 -0.539508 -0.103115 0
M  V30 47 H -3.718132 -2.919336 0.820581 0
M  V30 48 H -1.642191 -4.147319 0.702398 0
M  V30 49 H -1.411196 -2.633282 1.622530 0
M  V30 50 H -3.007830 -3.995738 -1.307506 0
M  V30 51 H -5.057979 -3.464142 -1.981750 0
M  V30 52 H -4.589946 -1.813104 -2.351955 0
M  V30 53 H -2.277378 -2.544462 -3.201813 0
M  V30 54 H -2.979025 -0.255462 -2.225337 0
M  V30 55 H -1.169451 -0.428905 -2.583977 0
M  V30 56 H -0.604625 -3.851676 -2.035048 0
M  V30 57 H -0.016588 -2.207479 -2.301191 0
M  V30 END ATOM
M  V30 BEGIN BOND
M  V30 1 3 1 2
M  V30 2 1 2 3
M  V30 3 2 3 4
M  V30 4 1 4 5
M  V30 5 2 5 6
M  V30 6 1 6 7
M  V30 7 1 7 8
M  V30 8 1 8 9
M  V30 9 2 9 10
M  V30 10 1 10 11
M  V30 11 2 11 12
M  V30 12 1 12 13
M  V30 13 2 13 14
M  V30 14 1 14 15
M  V30 15 1 6 16
M  V30 16 2 16 17
M  V30 17 1 17 18
M  V30 18 1 18 19
M  V30 19 1 20 19 CFG=1
M  V30 20 1 20 21
M  V30 21 1 21 22
M  V30 22 1 22 23
M  V30 23 1 23 24
M  V30 24 1 24 25
M  V30 25 1 24 26
M  V30 26 1 26 27
M  V30 27 1 26 28
M  V30 28 1 28 29
M  V30 29 1 28 30
M  V30 30 1 17 3
M  V30 31 1 25 20
M  V30 32 1 14 9
M  V30 33 1 30 20
M  V30 34 1 29 22
M  V30 35 1 4 31
M  V30 36 1 7 32
M  V30 37 1 8 33
M  V30 38 1 8 34
M  V30 39 1 10 35
M  V30 40 1 11 36
M  V30 41 1 12 37
M  V30 42 1 13 38
M  V30 43 1 18 39
M  V30 44 1 19 40
M  V30 45 1 19 41
M  V30 46 1 21 42
M  V30 47 1 21 43
M  V30 48 1 22 44 CFG=3
M  V30 49 1 23 45
M  V30 50 1 23 46
M  V30 51 1 24 47 CFG=1
M  V30 52 1 25 48
M  V30 53 1 25 49
M  V30 54 1 26 50 CFG=1
M  V30 55 1 27 51
M  V30 56 1 27 52
M  V30 57 1 28 53 CFG=3
M  V30 58 1 29 54
M  V30 59 1 29 55
M  V30 60 1 30 56
M  V30 61 1 30 57
M  V30 END BOND
M  V30 END CTAB
M  END
>  <Dataset>  (378) 
ChEMBL_Kinases

>  <Ligand_Instance>  (378) 
nan

>  <PDB_ID>  (378) 
nan

>  <Standardized_SMILES>  (378) 
N#Cc1cnc(NCc2ccccc2Cl)nc1NC[C@]12C[C@@H]3C[C@H](C1)[C@@H](N)[C@@H](C3)C2

>  <Name>  (378) 
nan

>  <Pocket>  (378) 
nan

>  <ATP_Site>  (378) 
nan

>  <Peripheral>  (378) 
nan

>  <Num_H_Atoms_ProtBoundConf>  (378) 
nan

>  <Num_Resolved_Atoms>  (378) 
nan

>  <Num_Not_Resolved_Atoms>  (378) 
nan

$$$$
CHEMBL4286022
     RDKit          3D

  0  0  0  0  0  0  0  0  0  0999 V3000
M  V30 BEGIN CTAB
M  V30 COUNTS 47 50 0 0 0
M  V30 BEGIN ATOM
M  V30 1 C 3.987933 -4.060967 -0.495307 0
M  V30 2 C 4.139641 -2.592432 -0.124744 0
M  V30 3 C 3.200139 -2.314697 0.992513 0
M  V30 4 N 4.088176 -1.728649 -1.248857 0
M  V30 5 C 4.450605 -2.153785 -2.492515 0
M  V30 6 N 4.299134 -1.135298 -3.334056 0
M  V30 7 N 3.857005 -0.083973 -2.679379 0
M  V30 8 C 3.732919 -0.459972 -1.409165 0
M  V30 9 C 3.273871 0.390791 -0.339508 0
M  V30 10 C 4.176835 1.237512 0.273283 0
M  V30 11 C 3.669698 2.023598 1.289197 0
M  V30 12 C 2.333282 1.908104 1.608699 0
M  V30 13 C 1.446651 1.063997 0.993299 0
M  V30 14 N 0.071602 0.904153 1.277818 0
M  V30 15 C -0.717953 1.561618 2.248883 0
M  V30 16 O -0.186601 2.413332 2.990508 0
M  V30 17 C -2.139570 1.322172 2.463062 0
M  V30 18 C -2.781478 2.039788 3.450024 0
M  V30 19 C -4.144810 1.875226 3.725550 0
M  V30 20 C -4.898548 0.976282 3.006776 0
M  V30 21 C -4.274931 0.257302 2.024423 0
M  V30 22 C -5.030190 -0.712204 1.230051 0
M  V30 23 N -4.582314 -1.488734 0.244021 0
M  V30 24 C -5.591610 -2.247511 -0.238775 0
M  V30 25 C -6.688956 -1.883813 0.517910 0
M  V30 26 N -6.329690 -0.954015 1.401047 0
M  V30 27 C -2.932155 0.433604 1.768383 0
M  V30 28 N 1.975615 0.316055 0.011255 0
M  V30 29 H 3.772468 -4.603358 0.447755 0
M  V30 30 H 4.930155 -4.388195 -0.956142 0
M  V30 31 H 3.110932 -4.140211 -1.162551 0
M  V30 32 H 5.175700 -2.505859 0.311641 0
M  V30 33 H 2.132091 -2.389927 0.713405 0
M  V30 34 H 3.333793 -3.180551 1.708819 0
M  V30 35 H 3.453865 -1.436586 1.618945 0
M  V30 36 H 4.811588 -3.097626 -2.888670 0
M  V30 37 H 5.214653 1.275846 -0.030195 0
M  V30 38 H 4.319038 2.698299 1.800809 0
M  V30 39 H 1.998457 2.534042 2.394721 0
M  V30 40 H -0.491376 0.222617 0.730164 0
M  V30 41 H -2.290970 2.782033 4.087300 0
M  V30 42 H -4.631347 2.447232 4.503907 0
M  V30 43 H -5.946190 0.878527 3.249451 0
M  V30 44 H -5.596940 -2.983795 -1.030853 0
M  V30 45 H -7.682648 -2.310776 0.387680 0
M  V30 46 H -6.964966 -0.507754 2.093242 0
M  V30 47 H -2.462516 -0.145713 0.987773 0
M  V30 END ATOM
M  V30 BEGIN BOND
M  V30 1 1 1 2
M  V30 2 1 2 3
M  V30 3 1 2 4
M  V30 4 1 4 5
M  V30 5 2 5 6
M  V30 6 1 6 7
M  V30 7 2 7 8
M  V30 8 1 8 9
M  V30 9 2 9 10
M  V30 10 1 10 11
M  V30 11 2 11 12
M  V30 12 1 12 13
M  V30 13 1 13 14
M  V30 14 1 14 15
M  V30 15 2 15 16
M  V30 16 1 15 17
M  V30 17 2 17 18
M  V30 18 1 18 19
M  V30 19 2 19 20
M  V30 20 1 20 21
M  V30 21 1 21 22
M  V30 22 2 22 23
M  V30 23 1 23 24
M  V30 24 2 24 25
M  V30 25 1 25 26
M  V30 26 2 21 27
M  V30 27 2 13 28
M  V30 28 1 8 4
M  V30 29 1 28 9
M  V30 30 1 27 17
M  V30 31 1 26 22
M  V30 32 1 1 29
M  V30 33 1 1 30
M  V30 34 1 1 31
M  V30 35 1 2 32
M  V30 36 1 3 33
M  V30 37 1 3 34
M  V30 38 1 3 35
M  V30 39 1 5 36
M  V30 40 1 10 37
M  V30 41 1 11 38
M  V30 42 1 12 39
M  V30 43 1 14 40
M  V30 44 1 18 41
M  V30 45 1 19 42
M  V30 46 1 20 43
M  V30 47 1 24 44
M  V30 48 1 25 45
M  V30 49 1 26 46
M  V30 50 1 27 47
M  V30 END BOND
M  V30 END CTAB
M  END
>  <Dataset>  (379) 
ChEMBL_Kinases

>  <Ligand_Instance>  (379) 
nan

>  <PDB_ID>  (379) 
nan

>  <Standardized_SMILES>  (379) 
CC(C)n1cnnc1-c1cccc(NC(=O)c2cccc(-c3ncc[nH]3)c2)n1

>  <Name>  (379) 
nan

>  <Pocket>  (379) 
nan

>  <ATP_Site>  (379) 
nan

>  <Peripheral>  (379) 
nan

>  <Num_H_Atoms_ProtBoundConf>  (379) 
nan

>  <Num_Resolved_Atoms>  (379) 
nan

>  <Num_Not_Resolved_Atoms>  (379) 
nan

$$$$
CHEMBL4758500
     RDKit          3D

  0  0  0  0  0  0  0  0  0  0999 V3000
M  V30 BEGIN CTAB
M  V30 COUNTS 54 58 0 0 0
M  V30 BEGIN ATOM
M  V30 1 C 6.760411 -3.358320 2.839796 0
M  V30 2 C 5.943931 -2.116646 3.004593 0
M  V30 3 C 6.029895 -1.422034 4.236915 0
M  V30 4 C 5.240645 -0.290423 4.359168 0
M  V30 5 C 4.464969 0.048422 3.308410 0
M  V30 6 N 4.391277 -0.628642 2.118696 0
M  V30 7 C 3.485526 -0.053660 1.163094 0
M  V30 8 C 3.397986 1.266772 0.800563 0
M  V30 9 C 2.423730 1.707922 -0.063991 0
M  V30 10 C 1.543150 0.776724 -0.548896 0
M  V30 11 C 0.339442 0.939838 -1.330475 0
M  V30 12 C -0.718366 0.748620 -0.424512 0
M  V30 13 C -2.100443 0.747159 -0.657991 0
M  V30 14 C -2.384674 0.975410 -2.007313 0
M  V30 15 C -3.669105 1.030567 -2.591287 0
M  V30 16 C -4.993562 0.814201 -1.973993 0
M  V30 17 O -6.105755 1.098929 -2.406828 0
M  V30 18 N -5.212400 0.202002 -0.673754 0
M  V30 19 C -5.489059 -0.379789 0.575635 0
M  V30 20 C -5.576391 -1.831560 0.695150 0
M  V30 21 C -6.473299 -2.875891 0.732175 0
M  V30 22 C -6.029625 -4.162718 0.863865 0
M  V30 23 N -4.719885 -4.510802 0.964762 0
M  V30 24 C -3.781332 -3.562011 0.938307 0
M  V30 25 C -4.208608 -2.217783 0.804339 0
M  V30 26 N -3.443212 1.270116 -3.866912 0
M  V30 27 N -2.115122 1.357696 -4.079622 0
M  V30 28 C -1.441481 1.177594 -2.963045 0
M  V30 29 C -0.131110 1.151487 -2.575293 0
M  V30 30 C 1.654291 -0.586019 -0.160009 0
M  V30 31 Cl 0.532406 -1.836546 -0.811475 0
M  V30 32 C 2.654340 -1.038142 0.724697 0
M  V30 33 C 5.137060 -1.704711 1.989595 0
M  V30 34 O 5.057963 -2.307577 0.890797 0
M  V30 35 H 6.032380 -4.167859 2.615557 0
M  V30 36 H 7.371698 -3.306064 1.900160 0
M  V30 37 H 7.386325 -3.577327 3.713587 0
M  V30 38 H 6.673205 -1.737557 5.071307 0
M  V30 39 H 5.232521 0.321426 5.272809 0
M  V30 40 H 3.858138 0.936279 3.465966 0
M  V30 41 H 4.090482 1.957349 1.211266 0
M  V30 42 H 2.258184 2.698846 -0.401100 0
M  V30 43 H -0.553470 0.516867 0.638724 0
M  V30 44 H -2.729862 0.611139 0.189422 0
M  V30 45 H -4.261480 -0.280564 -0.538303 0
M  V30 46 H -4.867019 0.067261 1.432449 0
M  V30 47 H -6.545844 0.043622 0.910851 0
M  V30 48 H -7.427688 -2.401184 0.648867 0
M  V30 49 H -6.855381 -4.840667 0.881852 0
M  V30 50 H -2.735155 -3.902456 1.008971 0
M  V30 51 H -3.276626 -1.614763 0.808906 0
M  V30 52 H -1.567061 1.538768 -4.962174 0
M  V30 53 H 0.693285 1.317720 -3.270500 0
M  V30 54 H 2.650731 -2.134472 0.934926 0
M  V30 END ATOM
M  V30 BEGIN BOND
M  V30 1 1 1 2
M  V30 2 2 2 3
M  V30 3 1 3 4
M  V30 4 2 4 5
M  V30 5 1 5 6
M  V30 6 1 6 7
M  V30 7 2 7 8
M  V30 8 1 8 9
M  V30 9 2 9 10
M  V30 10 1 10 11
M  V30 11 2 11 12
M  V30 12 1 12 13
M  V30 13 2 13 14
M  V30 14 1 14 15
M  V30 15 1 15 16
M  V30 16 2 16 17
M  V30 17 1 16 18
M  V30 18 1 18 19
M  V30 19 1 19 20
M  V30 20 2 20 21
M  V30 21 1 21 22
M  V30 22 2 22 23
M  V30 23 1 23 24
M  V30 24 2 24 25
M  V30 25 2 15 26
M  V30 26 1 26 27
M  V30 27 1 27 28
M  V30 28 2 28 29
M  V30 29 1 10 30
M  V30 30 1 30 31
M  V30 31 2 30 32
M  V30 32 1 6 33
M  V30 33 2 33 34
M  V30 34 1 33 2
M  V30 35 1 32 7
M  V30 36 1 29 11
M  V30 37 1 28 14
M  V30 38 1 25 20
M  V30 39 1 1 35
M  V30 40 1 1 36
M  V30 41 1 1 37
M  V30 42 1 3 38
M  V30 43 1 4 39
M  V30 44 1 5 40
M  V30 45 1 8 41
M  V30 46 1 9 42
M  V30 47 1 12 43
M  V30 48 1 13 44
M  V30 49 1 18 45
M  V30 50 1 19 46
M  V30 51 1 19 47
M  V30 52 1 21 48
M  V30 53 1 22 49
M  V30 54 1 24 50
M  V30 55 1 25 51
M  V30 56 1 27 52
M  V30 57 1 29 53
M  V30 58 1 32 54
M  V30 END BOND
M  V30 END CTAB
M  END
>  <Dataset>  (380) 
ChEMBL_Kinases

>  <Ligand_Instance>  (380) 
nan

>  <PDB_ID>  (380) 
nan

>  <Standardized_SMILES>  (380) 
Cc1cccn(-c2ccc(-c3ccc4c(C(=O)NCc5ccncc5)n[nH]c4c3)c(Cl)c2)c1=O

>  <Name>  (380) 
nan

>  <Pocket>  (380) 
nan

>  <ATP_Site>  (380) 
nan

>  <Peripheral>  (380) 
nan

>  <Num_H_Atoms_ProtBoundConf>  (380) 
nan

>  <Num_Resolved_Atoms>  (380) 
nan

>  <Num_Not_Resolved_Atoms>  (380) 
nan

$$$$
CHEMBL4285937
     RDKit          3D

  0  0  0  0  0  0  0  0  0  0999 V3000
M  V30 BEGIN CTAB
M  V30 COUNTS 43 46 0 0 0
M  V30 BEGIN ATOM
M  V30 1 C 2.253667 -6.380210 3.899095 0
M  V30 2 C 2.047193 -5.213739 2.994490 0
M  V30 3 C 0.825944 -4.912907 2.427849 0
M  V30 4 C 0.682922 -3.808077 1.576987 0
M  V30 5 C 1.773087 -3.010423 1.299954 0
M  V30 6 C 1.703137 -1.842050 0.434425 0
M  V30 7 O 2.789902 -1.413116 -0.061427 0
M  V30 8 C 0.500679 -1.100621 0.073141 0
M  V30 9 N 0.659373 -0.027331 -0.735334 0
M  V30 10 C -0.410237 0.730954 -1.109338 0
M  V30 11 N -0.034389 1.826839 -1.973816 0
M  V30 12 C 0.620593 2.883993 -1.235061 0
M  V30 13 C 0.909509 2.918072 0.127221 0
M  V30 14 C 1.557198 4.128089 0.406826 0
M  V30 15 C 2.013202 4.479645 1.801505 0
M  V30 16 N 1.638867 4.777745 -0.769903 0
M  V30 17 N 1.092808 4.055839 -1.735227 0
M  V30 18 C -1.677116 0.413409 -0.666894 0
M  V30 19 C -2.690664 1.248063 -1.107807 0
M  V30 20 C -3.940554 0.900726 -0.651004 0
M  V30 21 C -4.189006 -0.176346 0.173889 0
M  V30 22 Cl -5.769562 -0.623508 0.755324 0
M  V30 23 C -3.110632 -0.973530 0.577988 0
M  V30 24 C -1.829934 -0.682015 0.155535 0
M  V30 25 N -0.725953 -1.377367 0.477789 0
M  V30 26 C 2.982362 -3.339521 1.882570 0
M  V30 27 C 3.147232 -4.421019 2.723492 0
M  V30 28 H 3.061244 -7.042605 3.508082 0
M  V30 29 H 2.462180 -6.099013 4.947758 0
M  V30 30 H 1.331424 -7.015564 3.951583 0
M  V30 31 H 0.035418 -5.578330 2.689981 0
M  V30 32 H -0.284544 -3.601775 1.150222 0
M  V30 33 H -0.151608 1.974697 -2.996003 0
M  V30 34 H 0.682617 2.159053 0.854407 0
M  V30 35 H 1.187180 4.378240 2.539042 0
M  V30 36 H 2.826230 3.766873 2.135010 0
M  V30 37 H 2.461286 5.470885 1.841048 0
M  V30 38 H 2.093220 5.716949 -0.797006 0
M  V30 39 H -2.505080 2.091567 -1.752019 0
M  V30 40 H -4.814688 1.501198 -0.948704 0
M  V30 41 H -3.187148 -1.841629 1.225567 0
M  V30 42 H 3.840468 -2.696601 1.654853 0
M  V30 43 H 4.117138 -4.624921 3.142699 0
M  V30 END ATOM
M  V30 BEGIN BOND
M  V30 1 1 1 2
M  V30 2 2 2 3
M  V30 3 1 3 4
M  V30 4 2 4 5
M  V30 5 1 5 6
M  V30 6 2 6 7
M  V30 7 1 6 8
M  V30 8 2 8 9
M  V30 9 1 9 10
M  V30 10 1 10 11
M  V30 11 1 11 12
M  V30 12 1 12 13
M  V30 13 2 13 14
M  V30 14 1 14 15
M  V30 15 1 14 16
M  V30 16 1 16 17
M  V30 17 2 10 18
M  V30 18 1 18 19
M  V30 19 2 19 20
M  V30 20 1 20 21
M  V30 21 1 21 22
M  V30 22 2 21 23
M  V30 23 1 23 24
M  V30 24 2 24 25
M  V30 25 1 5 26
M  V30 26 2 26 27
M  V30 27 1 27 2
M  V30 28 1 25 8
M  V30 29 2 17 12
M  V30 30 1 24 18
M  V30 31 1 1 28
M  V30 32 1 1 29
M  V30 33 1 1 30
M  V30 34 1 3 31
M  V30 35 1 4 32
M  V30 36 1 11 33
M  V30 37 1 13 34
M  V30 38 1 15 35
M  V30 39 1 15 36
M  V30 40 1 15 37
M  V30 41 1 16 38
M  V30 42 1 19 39
M  V30 43 1 20 40
M  V30 44 1 23 41
M  V30 45 1 26 42
M  V30 46 1 27 43
M  V30 END BOND
M  V30 END CTAB
M  END
>  <Dataset>  (381) 
ChEMBL_Kinases

>  <Ligand_Instance>  (381) 
nan

>  <PDB_ID>  (381) 
nan

>  <Standardized_SMILES>  (381) 
Cc1ccc(C(=O)c2nc(Nc3cc(C)[nH]n3)c3ccc(Cl)cc3n2)cc1

>  <Name>  (381) 
nan

>  <Pocket>  (381) 
nan

>  <ATP_Site>  (381) 
nan

>  <Peripheral>  (381) 
nan

>  <Num_H_Atoms_ProtBoundConf>  (381) 
nan

>  <Num_Resolved_Atoms>  (381) 
nan

>  <Num_Not_Resolved_Atoms>  (381) 
nan

$$$$
CHEMBL428580
     RDKit          3D

  0  0  0  0  0  0  0  0  0  0999 V3000
M  V30 BEGIN CTAB
M  V30 COUNTS 45 48 0 0 0
M  V30 BEGIN ATOM
M  V30 1 C -0.210861 -7.312367 -0.580835 0
M  V30 2 N -0.341512 -6.024411 0.075416 0
M  V30 3 C 0.176289 -4.796338 -0.169763 0
M  V30 4 C -0.294382 -3.927611 0.791024 0
M  V30 5 C 0.044679 -2.508464 0.859227 0
M  V30 6 C 0.283986 -1.845624 -0.347557 0
M  V30 7 C 0.610536 -0.507194 -0.390133 0
M  V30 8 C 0.708690 0.217448 0.781134 0
M  V30 9 C 1.044854 1.544624 0.619880 0
M  V30 10 C 1.280252 2.257329 -0.641561 0
M  V30 11 C -0.038667 2.593317 -1.283791 0
M  V30 12 C 0.131181 3.329368 -2.600020 0
M  V30 13 N -1.143380 3.649957 -3.214191 0
M  V30 14 C 1.145144 2.257173 1.819479 0
M  V30 15 C 0.918676 1.646701 3.033001 0
M  V30 16 C 1.039352 2.425508 4.165688 0
M  V30 17 C 0.801406 1.761625 5.351073 0
M  V30 18 N 0.469274 0.443367 5.470379 0
M  V30 19 C 0.365113 -0.269251 4.336078 0
M  V30 20 O 0.059210 -1.448814 4.582309 0
M  V30 21 C 0.585801 0.316576 3.119265 0
M  V30 22 C 0.478627 -0.413329 1.968620 0
M  V30 23 C 0.155509 -1.741253 1.999609 0
M  V30 24 C -1.107808 -4.675203 1.615532 0
M  V30 25 N -1.123530 -5.950359 1.162735 0
M  V30 26 H -1.173677 -7.665630 -1.021288 0
M  V30 27 H 0.572429 -7.297961 -1.363520 0
M  V30 28 H 0.097047 -8.074556 0.191647 0
M  V30 29 H 0.836833 -4.645532 -1.008869 0
M  V30 30 H 0.205915 -2.421699 -1.279566 0
M  V30 31 H 0.780212 -0.100884 -1.376095 0
M  V30 32 H 1.795764 3.208431 -0.440553 0
M  V30 33 H 1.891588 1.677842 -1.361610 0
M  V30 34 H -0.704149 1.731293 -1.462196 0
M  V30 35 H -0.649420 3.273297 -0.615409 0
M  V30 36 H 0.655546 4.302116 -2.420286 0
M  V30 37 H 0.747761 2.755435 -3.314065 0
M  V30 38 H -1.462147 4.623729 -3.032490 0
M  V30 39 H -1.064775 3.562144 -4.264732 0
M  V30 40 H 1.406667 3.309696 1.777840 0
M  V30 41 H 1.297326 3.473089 4.163384 0
M  V30 42 H 0.893853 2.367017 6.255294 0
M  V30 43 H 0.322837 0.099441 6.452776 0
M  V30 44 H -0.047576 -2.349224 2.851098 0
M  V30 45 H -1.611639 -4.223825 2.466186 0
M  V30 END ATOM
M  V30 BEGIN BOND
M  V30 1 1 1 2
M  V30 2 1 2 3
M  V30 3 2 3 4
M  V30 4 1 4 5
M  V30 5 2 5 6
M  V30 6 1 6 7
M  V30 7 2 7 8
M  V30 8 1 8 9
M  V30 9 1 9 10
M  V30 10 1 10 11
M  V30 11 1 11 12
M  V30 12 1 12 13
M  V30 13 2 9 14
M  V30 14 1 14 15
M  V30 15 1 15 16
M  V30 16 2 16 17
M  V30 17 1 17 18
M  V30 18 1 18 19
M  V30 19 2 19 20
M  V30 20 1 19 21
M  V30 21 1 21 22
M  V30 22 2 22 23
M  V30 23 1 4 24
M  V30 24 2 24 25
M  V30 25 1 25 2
M  V30 26 1 23 5
M  V30 27 1 22 8
M  V30 28 2 21 15
M  V30 29 1 1 26
M  V30 30 1 1 27
M  V30 31 1 1 28
M  V30 32 1 3 29
M  V30 33 1 6 30
M  V30 34 1 7 31
M  V30 35 1 10 32
M  V30 36 1 10 33
M  V30 37 1 11 34
M  V30 38 1 11 35
M  V30 39 1 12 36
M  V30 40 1 12 37
M  V30 41 1 13 38
M  V30 42 1 13 39
M  V30 43 1 14 40
M  V30 44 1 16 41
M  V30 45 1 17 42
M  V30 46 1 18 43
M  V30 47 1 23 44
M  V30 48 1 24 45
M  V30 END BOND
M  V30 END CTAB
M  END
>  <Dataset>  (382) 
ChEMBL_Kinases

>  <Ligand_Instance>  (382) 
nan

>  <PDB_ID>  (382) 
nan

>  <Standardized_SMILES>  (382) 
Cn1cc(-c2ccc3c(CCCN)cc4cc[nH]c(=O)c4c3c2)cn1

>  <Name>  (382) 
nan

>  <Pocket>  (382) 
nan

>  <ATP_Site>  (382) 
nan

>  <Peripheral>  (382) 
nan

>  <Num_H_Atoms_ProtBoundConf>  (382) 
nan

>  <Num_Resolved_Atoms>  (382) 
nan

>  <Num_Not_Resolved_Atoms>  (382) 
nan

$$$$
CHEMBL4758531
     RDKit          3D

  0  0  0  0  0  0  0  0  0  0999 V3000
M  V30 BEGIN CTAB
M  V30 COUNTS 75 80 0 0 0
M  V30 BEGIN ATOM
M  V30 1 C 5.868851 -0.343448 7.213170 0
M  V30 2 C 4.794965 0.526422 6.648708 0
M  V30 3 O 3.645433 0.651318 7.085572 0
M  V30 4 N 5.160663 1.282651 5.483106 0
M  V30 5 C 4.431338 2.203088 4.675672 0
M  V30 6 C 3.699119 1.797636 3.574517 0
M  V30 7 C 3.061525 2.825296 2.917006 0
M  V30 8 C 2.249044 2.527762 1.727969 0
M  V30 9 N 1.532026 3.267188 0.901444 0
M  V30 10 C 0.926387 2.621571 -0.076598 0
M  V30 11 O 0.152168 3.318632 -0.991725 0
M  V30 12 C -0.072540 4.698724 -0.998059 0
M  V30 13 C -0.726124 5.236427 0.227800 0
M  V30 14 C -1.017819 6.753316 0.315062 0
M  V30 15 C -2.117982 5.799182 0.022054 0
M  V30 16 C 0.993040 1.284913 -0.279438 0
M  V30 17 C 0.500745 0.307835 -1.175411 0
M  V30 18 O 0.832775 -0.906816 -0.987475 0
M  V30 19 N -0.340530 0.572858 -2.275593 0
M  V30 20 C -0.907906 -0.327962 -3.252396 0
M  V30 21 C -1.782923 -1.325687 -2.497386 0
M  V30 22 C -2.432315 -2.308000 -3.408569 0
M  V30 23 N -3.262943 -3.301830 -2.779097 0
M  V30 24 C -2.879661 -4.259897 -1.818603 0
M  V30 25 C -2.396764 -5.478146 -2.252057 0
M  V30 26 C -2.009425 -6.437393 -1.328206 0
M  V30 27 N -2.078155 -6.249134 -0.000341 0
M  V30 28 C -2.549869 -5.061441 0.482587 0
M  V30 29 C -2.647752 -4.821325 1.837626 0
M  V30 30 C -3.137481 -3.612856 2.322534 0
M  V30 31 C -3.530597 -2.641801 1.401139 0
M  V30 32 C -3.405930 -2.947358 0.070916 0
M  V30 33 C -2.929118 -4.121208 -0.451224 0
M  V30 34 C -1.502875 -7.695365 -1.937663 0
M  V30 35 C -0.386050 -7.242334 -2.891712 0
M  V30 36 C -0.966688 -6.449084 -4.016545 0
M  V30 37 C -2.279105 -5.814309 -3.699220 0
M  V30 38 S 2.067778 0.795323 1.095340 0
M  V30 39 C 3.083230 4.143584 3.235066 0
M  V30 40 C 3.842549 4.487607 4.360387 0
M  V30 41 N 4.485763 3.519623 5.038625 0
M  V30 42 H 5.359554 -1.268176 7.574668 0
M  V30 43 H 6.577032 -0.665178 6.424429 0
M  V30 44 H 6.358999 0.118051 8.089791 0
M  V30 45 H 6.124357 1.241696 5.035947 0
M  V30 46 H 3.652058 0.774431 3.286332 0
M  V30 47 H 0.956088 5.166034 -1.052001 0
M  V30 48 H -0.588532 5.063471 -1.888227 0
M  V30 49 H -0.613844 4.715591 1.202215 0
M  V30 50 H -1.023095 7.206324 1.321391 0
M  V30 51 H -0.640150 7.401997 -0.478547 0
M  V30 52 H -2.896167 5.653298 0.802331 0
M  V30 53 H -2.539571 5.852254 -0.985676 0
M  V30 54 H -0.572422 1.591251 -2.372113 0
M  V30 55 H -1.498418 0.222736 -4.006124 0
M  V30 56 H -0.126203 -0.868507 -3.827212 0
M  V30 57 H -2.551121 -0.667302 -1.990321 0
M  V30 58 H -1.158955 -1.783608 -1.714198 0
M  V30 59 H -1.706419 -2.743775 -4.130770 0
M  V30 60 H -3.136081 -1.718437 -4.069083 0
M  V30 61 H -4.270023 -3.578208 -2.835233 0
M  V30 62 H -2.323482 -5.622362 2.488690 0
M  V30 63 H -3.201780 -3.452641 3.389395 0
M  V30 64 H -3.912734 -1.699232 1.767421 0
M  V30 65 H -3.735545 -2.163588 -0.584377 0
M  V30 66 H -2.291117 -8.124857 -2.565213 0
M  V30 67 H -1.123739 -8.427784 -1.229538 0
M  V30 68 H 0.212160 -8.076407 -3.271506 0
M  V30 69 H 0.320280 -6.552948 -2.354419 0
M  V30 70 H -0.289430 -5.634918 -4.373343 0
M  V30 71 H -1.087927 -7.157310 -4.887156 0
M  V30 72 H -3.058506 -6.612850 -3.871971 0
M  V30 73 H -2.548262 -4.977173 -4.343920 0
M  V30 74 H 2.578224 4.917654 2.705536 0
M  V30 75 H 3.944040 5.513795 4.724669 0
M  V30 END ATOM
M  V30 BEGIN BOND
M  V30 1 1 1 2
M  V30 2 2 2 3
M  V30 3 1 2 4
M  V30 4 1 4 5
M  V30 5 2 5 6
M  V30 6 1 6 7
M  V30 7 1 7 8
M  V30 8 2 8 9
M  V30 9 1 9 10
M  V30 10 1 10 11
M  V30 11 1 11 12
M  V30 12 1 12 13
M  V30 13 1 13 14
M  V30 14 1 14 15
M  V30 15 2 10 16
M  V30 16 1 16 17
M  V30 17 2 17 18
M  V30 18 1 17 19
M  V30 19 1 19 20
M  V30 20 1 20 21
M  V30 21 1 21 22
M  V30 22 1 22 23
M  V30 23 1 23 24
M  V30 24 2 24 25
M  V30 25 1 25 26
M  V30 26 2 26 27
M  V30 27 1 27 28
M  V30 28 2 28 29
M  V30 29 1 29 30
M  V30 30 2 30 31
M  V30 31 1 31 32
M  V30 32 2 32 33
M  V30 33 1 26 34
M  V30 34 1 34 35
M  V30 35 1 35 36
M  V30 36 1 36 37
M  V30 37 1 16 38
M  V30 38 2 7 39
M  V30 39 1 39 40
M  V30 40 2 40 41
M  V30 41 1 41 5
M  V30 42 1 38 8
M  V30 43 1 15 13
M  V30 44 1 33 24
M  V30 45 1 37 25
M  V30 46 1 33 28
M  V30 47 1 1 42
M  V30 48 1 1 43
M  V30 49 1 1 44
M  V30 50 1 4 45
M  V30 51 1 6 46
M  V30 52 1 12 47
M  V30 53 1 12 48
M  V30 54 1 13 49
M  V30 55 1 14 50
M  V30 56 1 14 51
M  V30 57 1 15 52
M  V30 58 1 15 53
M  V30 59 1 19 54
M  V30 60 1 20 55
M  V30 61 1 20 56
M  V30 62 1 21 57
M  V30 63 1 21 58
M  V30 64 1 22 59
M  V30 65 1 22 60
M  V30 66 1 23 61
M  V30 67 1 29 62
M  V30 68 1 30 63
M  V30 69 1 31 64
M  V30 70 1 32 65
M  V30 71 1 34 66
M  V30 72 1 34 67
M  V30 73 1 35 68
M  V30 74 1 35 69
M  V30 75 1 36 70
M  V30 76 1 36 71
M  V30 77 1 37 72
M  V30 78 1 37 73
M  V30 79 1 39 74
M  V30 80 1 40 75
M  V30 END BOND
M  V30 END CTAB
M  END
>  <Dataset>  (383) 
ChEMBL_Kinases

>  <Ligand_Instance>  (383) 
nan

>  <PDB_ID>  (383) 
nan

>  <Standardized_SMILES>  (383) 
CC(=O)Nc1cc(-c2nc(OCC3CC3)c(C(=O)NCCCNc3c4c(nc5ccccc35)CCCC4)s2)ccn1

>  <Name>  (383) 
nan

>  <Pocket>  (383) 
nan

>  <ATP_Site>  (383) 
nan

>  <Peripheral>  (383) 
nan

>  <Num_H_Atoms_ProtBoundConf>  (383) 
nan

>  <Num_Resolved_Atoms>  (383) 
nan

>  <Num_Not_Resolved_Atoms>  (383) 
nan

$$$$
CHEMBL475198
     RDKit          3D

  0  0  0  0  0  0  0  0  0  0999 V3000
M  V30 BEGIN CTAB
M  V30 COUNTS 46 49 0 0 0
M  V30 BEGIN ATOM
M  V30 1 C 1.866456 -3.599392 3.520689 0
M  V30 2 O 2.266498 -2.860083 2.375082 0
M  V30 3 C 3.189613 -1.812098 2.488793 0
M  V30 4 C 3.698190 -1.518721 3.740211 0
M  V30 5 C 4.604487 -0.516223 3.959861 0
M  V30 6 C 5.051063 0.257120 2.897160 0
M  V30 7 C 4.534638 -0.047493 1.652998 0
M  V30 8 C 3.624786 -1.049493 1.415484 0
M  V30 9 C 3.074877 -1.382892 0.076714 0
M  V30 10 N 1.699680 -0.945241 -0.090458 0
M  V30 11 C 1.354853 0.433078 0.024648 0
M  V30 12 N 2.295901 1.352689 0.293001 0
M  V30 13 C 2.034581 2.664188 0.414971 0
M  V30 14 N 0.778781 3.136735 0.270130 0
M  V30 15 C -0.217067 2.289630 0.002033 0
M  V30 16 C -1.507888 2.757264 -0.150009 0
M  V30 17 C -2.534086 1.873971 -0.428366 0
M  V30 18 C -2.242454 0.532121 -0.549260 0
M  V30 19 C -3.375131 -0.339998 -0.844612 0
M  V30 20 C -4.293301 0.001333 -1.817329 0
M  V30 21 C -5.364143 -0.817638 -2.101745 0
M  V30 22 C -5.570176 -2.011616 -1.432539 0
M  V30 23 C -4.641708 -2.353210 -0.451555 0
M  V30 24 C -3.555322 -1.524971 -0.161152 0
M  V30 25 C -2.649936 -1.952230 0.862709 0
M  V30 26 N -1.911643 -2.293572 1.695741 0
M  V30 27 C -0.943337 0.100193 -0.391548 0
M  V30 28 C 0.094247 0.960223 -0.114136 0
M  V30 29 H 2.752814 -3.958811 4.080635 0
M  V30 30 H 1.293872 -2.928416 4.225153 0
M  V30 31 H 1.261156 -4.457202 3.186332 0
M  V30 32 H 3.415847 -2.061191 4.638305 0
M  V30 33 H 5.003410 -0.288967 4.952095 0
M  V30 34 H 5.767391 1.056252 3.040346 0
M  V30 35 H 4.892618 0.555123 0.831353 0
M  V30 36 H 3.725043 -0.984121 -0.736577 0
M  V30 37 H 3.085158 -2.487757 -0.007135 0
M  V30 38 H 0.985970 -1.675300 -0.296107 0
M  V30 39 H 2.871232 3.345144 0.636773 0
M  V30 40 H -1.726999 3.816163 -0.052430 0
M  V30 41 H -3.532438 2.306809 -0.536937 0
M  V30 42 H -4.173999 0.934166 -2.373922 0
M  V30 43 H -6.113208 -0.603219 -2.850605 0
M  V30 44 H -6.385819 -2.707450 -1.598685 0
M  V30 45 H -4.774910 -3.289485 0.095545 0
M  V30 46 H -0.821301 -0.951884 -0.503755 0
M  V30 END ATOM
M  V30 BEGIN BOND
M  V30 1 1 1 2
M  V30 2 1 2 3
M  V30 3 2 3 4
M  V30 4 1 4 5
M  V30 5 2 5 6
M  V30 6 1 6 7
M  V30 7 2 7 8
M  V30 8 1 8 9
M  V30 9 1 9 10
M  V30 10 1 10 11
M  V30 11 2 11 12
M  V30 12 1 12 13
M  V30 13 2 13 14
M  V30 14 1 14 15
M  V30 15 2 15 16
M  V30 16 1 16 17
M  V30 17 2 17 18
M  V30 18 1 18 19
M  V30 19 2 19 20
M  V30 20 1 20 21
M  V30 21 2 21 22
M  V30 22 1 22 23
M  V30 23 2 23 24
M  V30 24 1 24 25
M  V30 25 3 25 26
M  V30 26 1 18 27
M  V30 27 2 27 28
M  V30 28 1 8 3
M  V30 29 1 28 11
M  V30 30 1 28 15
M  V30 31 1 24 19
M  V30 32 1 1 29
M  V30 33 1 1 30
M  V30 34 1 1 31
M  V30 35 1 4 32
M  V30 36 1 5 33
M  V30 37 1 6 34
M  V30 38 1 7 35
M  V30 39 1 9 36
M  V30 40 1 9 37
M  V30 41 1 10 38
M  V30 42 1 13 39
M  V30 43 1 16 40
M  V30 44 1 17 41
M  V30 45 1 20 42
M  V30 46 1 21 43
M  V30 47 1 22 44
M  V30 48 1 23 45
M  V30 49 1 27 46
M  V30 END BOND
M  V30 END CTAB
M  END
>  <Dataset>  (384) 
ChEMBL_Kinases

>  <Ligand_Instance>  (384) 
nan

>  <PDB_ID>  (384) 
nan

>  <Standardized_SMILES>  (384) 
COc1ccccc1CNc1ncnc2ccc(-c3ccccc3C#N)cc12

>  <Name>  (384) 
nan

>  <Pocket>  (384) 
nan

>  <ATP_Site>  (384) 
nan

>  <Peripheral>  (384) 
nan

>  <Num_H_Atoms_ProtBoundConf>  (384) 
nan

>  <Num_Resolved_Atoms>  (384) 
nan

>  <Num_Not_Resolved_Atoms>  (384) 
nan

$$$$
CHEMBL4285776
     RDKit          3D

  0  0  0  0  0  0  0  0  0  0999 V3000
M  V30 BEGIN CTAB
M  V30 COUNTS 27 29 0 0 0
M  V30 BEGIN ATOM
M  V30 1 C -0.248985 -3.310646 2.540857 0
M  V30 2 C 0.210128 -1.927140 2.833381 0
M  V30 3 C 0.568718 -1.496743 4.102638 0
M  V30 4 C 0.992942 -0.181645 4.314130 0
M  V30 5 O 1.298903 0.124027 5.495570 0
M  V30 6 O 1.038527 0.619710 3.280301 0
M  V30 7 C 0.707739 0.247727 2.069376 0
M  V30 8 C 0.792458 1.173034 1.050834 0
M  V30 9 C 0.450574 0.821628 -0.253641 0
M  V30 10 C 0.511451 1.691494 -1.313667 0
M  V30 11 C 0.142034 1.215898 -2.569707 0
M  V30 12 O 0.205365 2.093952 -3.629499 0
M  V30 13 C -0.282788 -0.078252 -2.817959 0
M  V30 14 C -0.337926 -0.930037 -1.755555 0
M  V30 15 C 0.025963 -0.486538 -0.478346 0
M  V30 16 C -0.075897 -1.448218 0.504829 0
M  V30 17 C 0.277183 -1.039599 1.778856 0
M  V30 18 H 0.533212 -3.768511 1.893177 0
M  V30 19 H -0.350439 -3.911530 3.463909 0
M  V30 20 H -1.216941 -3.318167 1.966620 0
M  V30 21 H 0.498545 -2.239615 4.908729 0
M  V30 22 H 1.118065 2.195464 1.192363 0
M  V30 23 H 0.836866 2.700266 -1.151441 0
M  V30 24 H -0.217917 1.902047 -4.510272 0
M  V30 25 H -0.558259 -0.400159 -3.806820 0
M  V30 26 H -0.668665 -1.944001 -1.938641 0
M  V30 27 H -0.405195 -2.448807 0.308216 0
M  V30 END ATOM
M  V30 BEGIN BOND
M  V30 1 1 1 2
M  V30 2 2 2 3
M  V30 3 1 3 4
M  V30 4 2 4 5
M  V30 5 1 4 6
M  V30 6 1 6 7
M  V30 7 2 7 8
M  V30 8 1 8 9
M  V30 9 2 9 10
M  V30 10 1 10 11
M  V30 11 1 11 12
M  V30 12 2 11 13
M  V30 13 1 13 14
M  V30 14 2 14 15
M  V30 15 1 15 16
M  V30 16 2 16 17
M  V30 17 1 17 2
M  V30 18 1 17 7
M  V30 19 1 15 9
M  V30 20 1 1 18
M  V30 21 1 1 19
M  V30 22 1 1 20
M  V30 23 1 3 21
M  V30 24 1 8 22
M  V30 25 1 10 23
M  V30 26 1 12 24
M  V30 27 1 13 25
M  V30 28 1 14 26
M  V30 29 1 16 27
M  V30 END BOND
M  V30 END CTAB
M  END
>  <Dataset>  (385) 
ChEMBL_Kinases

>  <Ligand_Instance>  (385) 
nan

>  <PDB_ID>  (385) 
nan

>  <Standardized_SMILES>  (385) 
Cc1cc(=O)oc2cc3cc(O)ccc3cc12

>  <Name>  (385) 
nan

>  <Pocket>  (385) 
nan

>  <ATP_Site>  (385) 
nan

>  <Peripheral>  (385) 
nan

>  <Num_H_Atoms_ProtBoundConf>  (385) 
nan

>  <Num_Resolved_Atoms>  (385) 
nan

>  <Num_Not_Resolved_Atoms>  (385) 
nan

$$$$
CHEMBL4285692
     RDKit          3D

  0  0  0  0  0  0  0  0  0  0999 V3000
M  V30 BEGIN CTAB
M  V30 COUNTS 40 43 0 0 0
M  V30 BEGIN ATOM
M  V30 1 C -2.088903 -4.500055 0.312859 0
M  V30 2 C -0.897654 -3.667247 0.662054 0
M  V30 3 C 0.332378 -4.547059 0.605312 0
M  V30 4 C -0.818776 -2.495036 -0.297175 0
M  V30 5 C -0.302062 -1.394385 0.561048 0
M  V30 6 C 0.265619 -0.115415 0.508603 0
M  V30 7 C 0.573330 0.659318 -0.672992 0
M  V30 8 C -0.609690 1.009759 -1.340421 0
M  V30 9 C -0.556749 1.762744 -2.518213 0
M  V30 10 N 0.628699 2.159873 -3.024804 0
M  V30 11 C 1.759316 1.821677 -2.382101 0
M  V30 12 C 1.765480 1.081030 -1.218181 0
M  V30 13 C 0.486104 0.289559 1.806300 0
M  V30 14 C 1.052245 1.519798 2.345103 0
M  V30 15 C 2.344507 1.983371 2.211488 0
M  V30 16 C 2.816169 3.140882 2.733302 0
M  V30 17 C 1.969617 3.933219 3.454520 0
M  V30 18 C 0.669962 3.498214 3.607314 0
M  V30 19 N 0.232232 2.336701 3.072225 0
M  V30 20 N 0.058612 -0.726073 2.604782 0
M  V30 21 N -0.409263 -1.726037 1.872303 0
M  V30 22 C -0.993119 -3.048663 2.038213 0
M  V30 23 H -2.914601 -3.929980 -0.170571 0
M  V30 24 H -2.444201 -4.997203 1.237717 0
M  V30 25 H -1.746977 -5.331401 -0.349939 0
M  V30 26 H -0.001826 -5.545722 0.999650 0
M  V30 27 H 0.719499 -4.629885 -0.431334 0
M  V30 28 H 1.111703 -4.179911 1.306774 0
M  V30 29 H -1.792131 -2.199297 -0.678522 0
M  V30 30 H -0.141556 -2.789103 -1.103966 0
M  V30 31 H -1.621950 0.767236 -1.060056 0
M  V30 32 H -1.434388 2.061263 -3.073939 0
M  V30 33 H 2.755085 2.090113 -2.707790 0
M  V30 34 H 2.601343 0.758679 -0.633431 0
M  V30 35 H 3.004663 1.345147 1.639997 0
M  V30 36 H 3.856262 3.405190 2.561314 0
M  V30 37 H 2.353691 4.852995 3.866728 0
M  V30 38 H -0.021682 4.118940 4.179873 0
M  V30 39 H -0.345554 -3.606300 2.758023 0
M  V30 40 H -2.011953 -3.015383 2.423761 0
M  V30 END ATOM
M  V30 BEGIN BOND
M  V30 1 1 1 2
M  V30 2 1 2 3
M  V30 3 1 2 4
M  V30 4 1 4 5
M  V30 5 2 5 6
M  V30 6 1 6 7
M  V30 7 2 7 8
M  V30 8 1 8 9
M  V30 9 2 9 10
M  V30 10 1 10 11
M  V30 11 2 11 12
M  V30 12 1 6 13
M  V30 13 1 13 14
M  V30 14 2 14 15
M  V30 15 1 15 16
M  V30 16 2 16 17
M  V30 17 1 17 18
M  V30 18 2 18 19
M  V30 19 2 13 20
M  V30 20 1 20 21
M  V30 21 1 21 22
M  V30 22 1 22 2
M  V30 23 1 21 5
M  V30 24 1 12 7
M  V30 25 1 19 14
M  V30 26 1 1 23
M  V30 27 1 1 24
M  V30 28 1 1 25
M  V30 29 1 3 26
M  V30 30 1 3 27
M  V30 31 1 3 28
M  V30 32 1 4 29
M  V30 33 1 4 30
M  V30 34 1 8 31
M  V30 35 1 9 32
M  V30 36 1 11 33
M  V30 37 1 12 34
M  V30 38 1 15 35
M  V30 39 1 16 36
M  V30 40 1 17 37
M  V30 41 1 18 38
M  V30 42 1 22 39
M  V30 43 1 22 40
M  V30 END BOND
M  V30 END CTAB
M  END
>  <Dataset>  (386) 
ChEMBL_Kinases

>  <Ligand_Instance>  (386) 
nan

>  <PDB_ID>  (386) 
nan

>  <Standardized_SMILES>  (386) 
CC1(C)Cc2c(-c3ccncc3)c(-c3ccccn3)nn2C1

>  <Name>  (386) 
nan

>  <Pocket>  (386) 
nan

>  <ATP_Site>  (386) 
nan

>  <Peripheral>  (386) 
nan

>  <Num_H_Atoms_ProtBoundConf>  (386) 
nan

>  <Num_Resolved_Atoms>  (386) 
nan

>  <Num_Not_Resolved_Atoms>  (386) 
nan

$$$$
CHEMBL4285682
     RDKit          3D

  0  0  0  0  0  0  0  0  0  0999 V3000
M  V30 BEGIN CTAB
M  V30 COUNTS 71 76 0 0 0
M  V30 BEGIN ATOM
M  V30 1 C 3.699800 -1.522639 6.083655 0
M  V30 2 N 3.180350 -1.299599 4.751698 0
M  V30 3 C 4.192400 -1.048826 3.780974 0
M  V30 4 C 4.655050 0.385104 3.704850 0
M  V30 5 C 3.573190 1.384482 3.888673 0
M  V30 6 C 2.862597 1.729476 2.590367 0
M  V30 7 N 2.622346 2.865325 1.949323 0
M  V30 8 C 1.955608 2.722724 0.801551 0
M  V30 9 C 1.774705 4.078307 0.225867 0
M  V30 10 C 2.388763 4.560684 -0.884509 0
M  V30 11 C 2.178186 5.818531 -1.377595 0
M  V30 12 C 1.304976 6.670494 -0.741852 0
M  V30 13 F 1.067299 7.936943 -1.205847 0
M  V30 14 C 0.635442 6.261095 0.397733 0
M  V30 15 C 0.899539 4.962040 0.844906 0
M  V30 16 C 1.542589 1.517260 0.303533 0
M  V30 17 C 0.819444 1.297330 -0.935053 0
M  V30 18 C 1.319284 1.507607 -2.199780 0
M  V30 19 C 0.655471 1.312499 -3.385075 0
M  V30 20 N -0.619619 0.867644 -3.291135 0
M  V30 21 C -1.154396 0.645969 -2.072730 0
M  V30 22 N -2.509840 0.175591 -1.991744 0
M  V30 23 C -2.766755 -1.226543 -2.029521 0
M  V30 24 C -4.050151 -1.774101 -1.933230 0
M  V30 25 C -4.238387 -3.137542 -1.978694 0
M  V30 26 C -3.180755 -4.013944 -2.119465 0
M  V30 27 C -3.508084 -5.479016 -2.153968 0
M  V30 28 C -4.015094 -5.964949 -0.827834 0
M  V30 29 C -5.498775 -6.108457 -0.719209 0
M  V30 30 N -6.098121 -6.744735 -1.876647 0
M  V30 31 C -5.789726 -6.030386 -3.100081 0
M  V30 32 C -4.332216 -5.866368 -3.335552 0
M  V30 33 C -1.900146 -3.495377 -2.216694 0
M  V30 34 C -1.724806 -2.125496 -2.169706 0
M  V30 35 N -0.469125 0.850332 -0.934641 0
M  V30 36 S 2.138809 0.371414 1.572992 0
M  V30 37 C 2.551506 1.006700 4.936184 0
M  V30 38 C 2.073652 -0.396270 4.758098 0
M  V30 39 H 2.869102 -1.899727 6.737435 0
M  V30 40 H 4.038872 -0.584540 6.575849 0
M  V30 41 H 4.489629 -2.278038 6.115470 0
M  V30 42 H 3.854692 -1.467190 2.814845 0
M  V30 43 H 5.078003 -1.658597 4.065309 0
M  V30 44 H 5.165190 0.540974 2.744949 0
M  V30 45 H 5.410403 0.525878 4.513829 0
M  V30 46 H 4.033033 2.361052 4.181250 0
M  V30 47 H 3.078930 3.926736 -1.401563 0
M  V30 48 H 2.679207 6.163663 -2.254270 0
M  V30 49 H -0.069886 6.887726 0.949625 0
M  V30 50 H 0.371795 4.650205 1.734956 0
M  V30 51 H 2.334200 1.857753 -2.293182 0
M  V30 52 H 1.136277 1.506664 -4.336003 0
M  V30 53 H -3.360889 0.798334 -1.903457 0
M  V30 54 H -4.860228 -1.041316 -1.821461 0
M  V30 55 H -5.276192 -3.404960 -1.892416 0
M  V30 56 H -2.508612 -5.971266 -2.296534 0
M  V30 57 H -3.569718 -6.950011 -0.574491 0
M  V30 58 H -3.667234 -5.265451 -0.043843 0
M  V30 59 H -6.022286 -5.164026 -0.442153 0
M  V30 60 H -5.705566 -6.813887 0.126407 0
M  V30 61 H -7.143769 -6.666916 -1.754878 0
M  V30 62 H -6.383834 -5.080740 -3.199518 0
M  V30 63 H -6.200538 -6.667451 -3.934201 0
M  V30 64 H -3.961063 -6.833805 -3.782723 0
M  V30 65 H -4.195859 -5.102685 -4.140450 0
M  V30 66 H -1.085838 -4.198469 -2.327139 0
M  V30 67 H -0.714242 -1.705523 -2.245805 0
M  V30 68 H 1.699699 1.704955 4.808618 0
M  V30 69 H 3.003849 1.172532 5.936098 0
M  V30 70 H 1.448419 -0.484969 3.867596 0
M  V30 71 H 1.436717 -0.679635 5.631610 0
M  V30 END ATOM
M  V30 BEGIN BOND
M  V30 1 1 1 2
M  V30 2 1 2 3
M  V30 3 1 3 4
M  V30 4 1 4 5
M  V30 5 1 5 6
M  V30 6 2 6 7
M  V30 7 1 7 8
M  V30 8 1 8 9
M  V30 9 2 9 10
M  V30 10 1 10 11
M  V30 11 2 11 12
M  V30 12 1 12 13
M  V30 13 1 12 14
M  V30 14 2 14 15
M  V30 15 2 8 16
M  V30 16 1 16 17
M  V30 17 2 17 18
M  V30 18 1 18 19
M  V30 19 2 19 20
M  V30 20 1 20 21
M  V30 21 1 21 22
M  V30 22 1 22 23
M  V30 23 2 23 24
M  V30 24 1 24 25
M  V30 25 2 25 26
M  V30 26 1 26 27
M  V30 27 1 27 28
M  V30 28 1 28 29
M  V30 29 1 29 30
M  V30 30 1 30 31
M  V30 31 1 31 32
M  V30 32 1 26 33
M  V30 33 2 33 34
M  V30 34 2 21 35
M  V30 35 1 16 36
M  V30 36 1 5 37
M  V30 37 1 37 38
M  V30 38 1 38 2
M  V30 39 1 36 6
M  V30 40 1 15 9
M  V30 41 1 35 17
M  V30 42 1 34 23
M  V30 43 1 32 27
M  V30 44 1 1 39
M  V30 45 1 1 40
M  V30 46 1 1 41
M  V30 47 1 3 42
M  V30 48 1 3 43
M  V30 49 1 4 44
M  V30 50 1 4 45
M  V30 51 1 5 46
M  V30 52 1 10 47
M  V30 53 1 11 48
M  V30 54 1 14 49
M  V30 55 1 15 50
M  V30 56 1 18 51
M  V30 57 1 19 52
M  V30 58 1 22 53
M  V30 59 1 24 54
M  V30 60 1 25 55
M  V30 61 1 27 56
M  V30 62 1 28 57
M  V30 63 1 28 58
M  V30 64 1 29 59
M  V30 65 1 29 60
M  V30 66 1 30 61
M  V30 67 1 31 62
M  V30 68 1 31 63
M  V30 69 1 32 64
M  V30 70 1 32 65
M  V30 71 1 33 66
M  V30 72 1 34 67
M  V30 73 1 37 68
M  V30 74 1 37 69
M  V30 75 1 38 70
M  V30 76 1 38 71
M  V30 END BOND
M  V30 END CTAB
M  END
>  <Dataset>  (387) 
ChEMBL_Kinases

>  <Ligand_Instance>  (387) 
nan

>  <PDB_ID>  (387) 
nan

>  <Standardized_SMILES>  (387) 
CN1CCC(c2nc(-c3ccc(F)cc3)c(-c3ccnc(Nc4ccc(C5CCNCC5)cc4)n3)s2)CC1

>  <Name>  (387) 
nan

>  <Pocket>  (387) 
nan

>  <ATP_Site>  (387) 
nan

>  <Peripheral>  (387) 
nan

>  <Num_H_Atoms_ProtBoundConf>  (387) 
nan

>  <Num_Resolved_Atoms>  (387) 
nan

>  <Num_Not_Resolved_Atoms>  (387) 
nan

$$$$
CHEMBL4285678
     RDKit          3D

  0  0  0  0  0  0  0  0  0  0999 V3000
M  V30 BEGIN CTAB
M  V30 COUNTS 54 61 0 0 0
M  V30 BEGIN ATOM
M  V30 1 C -1.231047 2.731173 1.439705 0
M  V30 2 C -0.838642 1.299197 1.001431 0 CFG=2
M  V30 3 O -2.039551 0.738431 0.686818 0
M  V30 4 C -2.270022 -0.556999 0.595758 0 CFG=2
M  V30 5 C -1.529661 -1.479434 1.526365 0 CFG=2
M  V30 6 O -2.353834 -1.724468 2.624341 0
M  V30 7 C -0.228017 -0.893275 2.011669 0 CFG=2
M  V30 8 O 0.073443 -1.426728 3.282007 0
M  V30 9 C -0.301685 0.582547 2.175866 0 CFG=1
M  V30 10 O 0.886875 1.059257 2.685664 0
M  V30 11 N -1.859727 -0.990697 -0.733540 0
M  V30 12 C -2.405028 -1.999122 -1.403165 0
M  V30 13 C -3.468995 -2.808278 -0.990474 0
M  V30 14 C -3.920870 -3.817284 -1.801550 0
M  V30 15 C -3.297696 -4.013747 -3.037088 0
M  V30 16 C -2.259994 -3.170596 -3.359603 0
M  V30 17 C -1.757292 -2.150836 -2.609628 0
M  V30 18 C -0.773009 -1.207948 -2.703017 0
M  V30 19 C 0.158824 -0.924772 -3.662757 0
M  V30 20 C 1.008783 0.118412 -3.371265 0
M  V30 21 C 0.920478 0.822921 -2.197410 0
M  V30 22 C 1.622847 1.856807 -1.698973 0
M  V30 23 C 2.662294 2.642847 -2.049522 0
M  V30 24 C 3.203493 3.663934 -1.318119 0
M  V30 25 C 2.642413 3.948899 -0.068915 0
M  V30 26 C 1.576372 3.172193 0.334693 0
M  V30 27 C 1.086980 2.150551 -0.474856 0
M  V30 28 N 0.064731 1.350750 -0.158986 0
M  V30 29 C -0.015968 0.529058 -1.250276 0
M  V30 30 C -0.876970 -0.514328 -1.519334 0
M  V30 31 C 1.888348 0.221791 -4.519631 0
M  V30 32 O 2.839022 0.973868 -4.809705 0
M  V30 33 N 1.533603 -0.773171 -5.472559 0
M  V30 34 C 0.436993 -1.504933 -4.936422 0
M  V30 35 O -0.044671 -2.432889 -5.602136 0
M  V30 36 H -2.347976 2.797132 1.639308 0
M  V30 37 H -1.080242 3.465728 0.651060 0
M  V30 38 H -0.818090 2.975878 2.438525 0
M  V30 39 H -3.377661 -0.743054 0.676224 0
M  V30 40 H -1.287275 -2.469650 1.087225 0
M  V30 41 H -2.502775 -2.685091 2.806423 0
M  V30 42 H 0.641242 -1.139430 1.365819 0
M  V30 43 H 0.859583 -0.896670 3.613238 0
M  V30 44 H -1.050871 0.754446 2.999119 0
M  V30 45 H 0.762460 1.902707 3.193171 0
M  V30 46 H -3.958702 -2.667174 -0.039243 0
M  V30 47 H -4.738064 -4.446657 -1.496268 0
M  V30 48 H -3.643233 -4.805012 -3.686463 0
M  V30 49 H -1.826780 -3.368116 -4.308518 0
M  V30 50 H 3.145795 2.491361 -2.983926 0
M  V30 51 H 4.039656 4.267637 -1.643219 0
M  V30 52 H 3.045219 4.748471 0.534898 0
M  V30 53 H 1.181090 3.415560 1.299907 0
M  V30 54 H 1.995295 -0.952441 -6.422254 0
M  V30 END ATOM
M  V30 BEGIN BOND
M  V30 1 1 2 1 CFG=1
M  V30 2 1 2 3
M  V30 3 1 3 4
M  V30 4 1 4 5
M  V30 5 1 5 6
M  V30 6 1 5 7
M  V30 7 1 7 8
M  V30 8 1 7 9
M  V30 9 1 9 10
M  V30 10 1 4 11
M  V30 11 1 11 12
M  V30 12 2 12 13
M  V30 13 1 13 14
M  V30 14 2 14 15
M  V30 15 1 15 16
M  V30 16 2 16 17
M  V30 17 1 17 18
M  V30 18 2 18 19
M  V30 19 1 19 20
M  V30 20 2 20 21
M  V30 21 1 21 22
M  V30 22 2 22 23
M  V30 23 1 23 24
M  V30 24 2 24 25
M  V30 25 1 25 26
M  V30 26 2 26 27
M  V30 27 1 27 28
M  V30 28 1 28 29
M  V30 29 2 29 30
M  V30 30 1 20 31
M  V30 31 2 31 32
M  V30 32 1 31 33
M  V30 33 1 33 34
M  V30 34 2 34 35
M  V30 35 1 9 2
M  V30 36 1 30 11
M  V30 37 1 28 2
M  V30 38 1 17 12
M  V30 39 1 30 18
M  V30 40 1 34 19
M  V30 41 1 29 21
M  V30 42 1 27 22
M  V30 43 1 1 36
M  V30 44 1 1 37
M  V30 45 1 1 38
M  V30 46 1 4 39 CFG=3
M  V30 47 1 5 40 CFG=3
M  V30 48 1 6 41
M  V30 49 1 7 42 CFG=3
M  V30 50 1 8 43
M  V30 51 1 9 44 CFG=1
M  V30 52 1 10 45
M  V30 53 1 13 46
M  V30 54 1 14 47
M  V30 55 1 15 48
M  V30 56 1 16 49
M  V30 57 1 23 50
M  V30 58 1 24 51
M  V30 59 1 25 52
M  V30 60 1 26 53
M  V30 61 1 33 54
M  V30 END BOND
M  V30 END CTAB
M  END
>  <Dataset>  (388) 
ChEMBL_Kinases

>  <Ligand_Instance>  (388) 
nan

>  <PDB_ID>  (388) 
nan

>  <Standardized_SMILES>  (388) 
C[C@]12O[C@H]([C@H](O)[C@H](O)[C@H]1O)n1c3ccccc3c3c4c(c5c6ccccc6n2c5c31)C(=O)NC4=O

>  <Name>  (388) 
nan

>  <Pocket>  (388) 
nan

>  <ATP_Site>  (388) 
nan

>  <Peripheral>  (388) 
nan

>  <Num_H_Atoms_ProtBoundConf>  (388) 
nan

>  <Num_Resolved_Atoms>  (388) 
nan

>  <Num_Not_Resolved_Atoms>  (388) 
nan

$$$$
CHEMBL428566
     RDKit          3D

  0  0  0  0  0  0  0  0  0  0999 V3000
M  V30 BEGIN CTAB
M  V30 COUNTS 44 47 0 0 0
M  V30 BEGIN ATOM
M  V30 1 C -2.063827 -6.404619 0.483924 0
M  V30 2 O -0.790783 -6.352105 -0.085533 0
M  V30 3 C -0.060007 -5.225366 -0.375200 0
M  V30 4 C -0.464717 -3.929158 -0.149785 0
M  V30 5 C 0.269022 -2.799668 -0.440611 0
M  V30 6 C -0.213773 -1.447954 -0.179862 0
M  V30 7 C -1.539405 -1.066985 -0.233925 0
M  V30 8 C -1.963581 0.221566 0.019233 0
M  V30 9 C -1.030772 1.185978 0.342969 0
M  V30 10 C 0.305270 0.844597 0.407471 0
M  V30 11 C 0.708132 -0.467254 0.146586 0
M  V30 12 N 1.423206 1.673848 0.720855 0
M  V30 13 C 1.401041 2.872116 1.524968 0
M  V30 14 C 2.668585 3.115377 2.042363 0
M  V30 15 C 2.846526 4.226106 2.844445 0
M  V30 16 C 1.746529 5.025208 3.080040 0
M  V30 17 N 1.955783 6.162622 3.909421 0
M  V30 18 C 0.474509 4.819458 2.586804 0
M  V30 19 C 0.320453 3.691485 1.779690 0
M  V30 20 N -1.019318 3.579482 1.330988 0
M  V30 21 C -1.610856 2.516280 0.588186 0
M  V30 22 O -2.741472 2.649016 0.056782 0
M  V30 23 C 1.525213 -2.952528 -1.009057 0
M  V30 24 C 1.941681 -4.249717 -1.240025 0
M  V30 25 C 1.206481 -5.379217 -0.948553 0
M  V30 26 N 1.765928 -6.652881 -1.243198 0
M  V30 27 H -2.291044 -5.513216 1.125470 0
M  V30 28 H -2.189336 -7.281537 1.174413 0
M  V30 29 H -2.818992 -6.497633 -0.315350 0
M  V30 30 H -1.459814 -3.789885 0.301864 0
M  V30 31 H -2.280890 -1.827924 -0.490639 0
M  V30 32 H -3.007017 0.505559 -0.026577 0
M  V30 33 H 1.778801 -0.695239 0.208977 0
M  V30 34 H 2.340903 1.374706 0.324588 0
M  V30 35 H 3.478060 2.439339 1.809961 0
M  V30 36 H 3.814452 4.462791 3.273865 0
M  V30 37 H 1.380172 6.383821 4.754724 0
M  V30 38 H 2.521785 7.022222 4.083531 0
M  V30 39 H -0.348752 5.476444 2.803053 0
M  V30 40 H -1.686021 4.340952 1.546693 0
M  V30 41 H 2.124019 -2.097267 -1.248347 0
M  V30 42 H 2.940780 -4.332405 -1.691695 0
M  V30 43 H 2.796421 -6.769421 -1.268236 0
M  V30 44 H 1.244512 -7.527815 -1.447682 0
M  V30 END ATOM
M  V30 BEGIN BOND
M  V30 1 1 1 2
M  V30 2 1 2 3
M  V30 3 2 3 4
M  V30 4 1 4 5
M  V30 5 1 5 6
M  V30 6 2 6 7
M  V30 7 1 7 8
M  V30 8 2 8 9
M  V30 9 1 9 10
M  V30 10 2 10 11
M  V30 11 1 10 12
M  V30 12 1 12 13
M  V30 13 2 13 14
M  V30 14 1 14 15
M  V30 15 2 15 16
M  V30 16 1 16 17
M  V30 17 1 16 18
M  V30 18 2 18 19
M  V30 19 1 19 20
M  V30 20 1 20 21
M  V30 21 2 21 22
M  V30 22 2 5 23
M  V30 23 1 23 24
M  V30 24 2 24 25
M  V30 25 1 25 26
M  V30 26 1 25 3
M  V30 27 1 11 6
M  V30 28 1 19 13
M  V30 29 1 21 9
M  V30 30 1 1 27
M  V30 31 1 1 28
M  V30 32 1 1 29
M  V30 33 1 4 30
M  V30 34 1 7 31
M  V30 35 1 8 32
M  V30 36 1 11 33
M  V30 37 1 12 34
M  V30 38 1 14 35
M  V30 39 1 15 36
M  V30 40 1 17 37
M  V30 41 1 17 38
M  V30 42 1 18 39
M  V30 43 1 20 40
M  V30 44 1 23 41
M  V30 45 1 24 42
M  V30 46 1 26 43
M  V30 47 1 26 44
M  V30 END BOND
M  V30 END CTAB
M  END
>  <Dataset>  (389) 
ChEMBL_Kinases

>  <Ligand_Instance>  (389) 
nan

>  <PDB_ID>  (389) 
nan

>  <Standardized_SMILES>  (389) 
COc1cc(-c2ccc3c(c2)Nc2ccc(N)cc2NC3=O)ccc1N

>  <Name>  (389) 
nan

>  <Pocket>  (389) 
nan

>  <ATP_Site>  (389) 
nan

>  <Peripheral>  (389) 
nan

>  <Num_H_Atoms_ProtBoundConf>  (389) 
nan

>  <Num_Resolved_Atoms>  (389) 
nan

>  <Num_Not_Resolved_Atoms>  (389) 
nan

$$$$
CHEMBL4758572
     RDKit          3D

  0  0  0  0  0  0  0  0  0  0999 V3000
M  V30 BEGIN CTAB
M  V30 COUNTS 66 71 0 0 0
M  V30 BEGIN ATOM
M  V30 1 C -7.994403 0.071102 -1.847760 0
M  V30 2 C -7.792757 -0.566993 -0.491048 0
M  V30 3 C -8.439669 -1.942632 -0.490695 0
M  V30 4 O -8.422082 0.149909 0.545450 0
M  V30 5 C -7.467683 0.444551 1.499089 0
M  V30 6 O -7.720788 1.063988 2.568457 0
M  V30 7 C -6.119939 -0.034576 1.147356 0
M  V30 8 C -4.872322 -0.009024 1.691466 0
M  V30 9 C -3.792377 -0.588525 1.017229 0
M  V30 10 C -4.084337 -1.169085 -0.204628 0
M  V30 11 N -3.006371 -1.767215 -0.912251 0
M  V30 12 C -1.692587 -1.956297 -0.457143 0
M  V30 13 N -1.435682 -3.179423 0.018723 0
M  V30 14 C -0.227806 -3.529085 0.500433 0
M  V30 15 C 0.831902 -2.654088 0.538676 0
M  V30 16 C 2.139899 -3.032779 1.056050 0
M  V30 17 N 3.321280 -2.437933 1.218003 0
M  V30 18 C 4.218960 -3.263511 1.757810 0
M  V30 19 C 5.595755 -2.873583 2.045568 0
M  V30 20 C 6.329799 -3.343777 3.125051 0
M  V30 21 C 7.630204 -2.927922 3.331914 0
M  V30 22 C 8.245106 -2.034931 2.478709 0
M  V30 23 F 9.517168 -1.565572 2.596331 0
M  V30 24 C 7.533682 -1.548050 1.389752 0
M  V30 25 C 6.235859 -1.985820 1.214461 0
M  V30 26 N 3.526032 -4.397554 1.918831 0
M  V30 27 O 2.315693 -4.248752 1.505691 0
M  V30 28 C 0.558089 -1.395890 0.046769 0
M  V30 29 N 1.512475 -0.351564 0.024054 0
M  V30 30 C 1.424603 1.005917 -0.445142 0 CFG=2
M  V30 31 C 1.298921 1.080523 -1.931633 0
M  V30 32 O 0.156645 0.421680 -2.343578 0
M  V30 33 C 2.470304 1.903523 0.096725 0
M  V30 34 C 2.686920 1.752299 1.468919 0
M  V30 35 C 3.637434 2.521326 2.144538 0
M  V30 36 C 4.398881 3.462547 1.471776 0
M  V30 37 C 4.165102 3.590676 0.121059 0
M  V30 38 C 3.233430 2.843624 -0.565698 0
M  V30 39 N -0.650795 -1.126234 -0.409513 0
M  V30 40 C -5.334615 -1.214377 -0.785966 0
M  V30 41 C -6.384337 -0.621594 -0.073221 0
M  V30 42 H -7.833571 -0.700790 -2.629531 0
M  V30 43 H -9.072296 0.338328 -1.930944 0
M  V30 44 H -7.416372 0.994507 -1.984539 0
M  V30 45 H -7.737289 -2.754666 -0.774227 0
M  V30 46 H -9.265932 -1.927416 -1.229922 0
M  V30 47 H -8.910917 -2.173933 0.489228 0
M  V30 48 H -4.744430 0.464198 2.641855 0
M  V30 49 H -2.805958 -0.572617 1.438146 0
M  V30 50 H -3.056989 -2.150245 -1.881207 0
M  V30 51 H -0.102870 -4.558254 0.872920 0
M  V30 52 H 5.856472 -4.042704 3.797722 0
M  V30 53 H 8.214150 -3.283532 4.166517 0
M  V30 54 H 7.940253 -0.838487 0.662738 0
M  V30 55 H 5.676806 -1.608418 0.365030 0
M  V30 56 H 2.472597 -0.504969 0.387901 0
M  V30 57 H 0.432109 1.381106 -0.021326 0
M  V30 58 H 1.238261 2.150856 -2.241239 0
M  V30 59 H 2.176153 0.579631 -2.414674 0
M  V30 60 H -0.412588 1.043443 -2.855596 0
M  V30 61 H 2.162840 1.054676 2.119886 0
M  V30 62 H 3.818366 2.418432 3.203236 0
M  V30 63 H 5.126311 4.046788 2.001078 0
M  V30 64 H 4.716109 4.301085 -0.475958 0
M  V30 65 H 3.019130 2.913489 -1.622658 0
M  V30 66 H -5.479155 -1.689688 -1.747815 0
M  V30 END ATOM
M  V30 BEGIN BOND
M  V30 1 1 1 2
M  V30 2 1 2 3
M  V30 3 1 2 4
M  V30 4 1 4 5
M  V30 5 2 5 6
M  V30 6 1 5 7
M  V30 7 2 7 8
M  V30 8 1 8 9
M  V30 9 2 9 10
M  V30 10 1 10 11
M  V30 11 1 11 12
M  V30 12 2 12 13
M  V30 13 1 13 14
M  V30 14 2 14 15
M  V30 15 1 15 16
M  V30 16 2 16 17
M  V30 17 1 17 18
M  V30 18 1 18 19
M  V30 19 2 19 20
M  V30 20 1 20 21
M  V30 21 2 21 22
M  V30 22 1 22 23
M  V30 23 1 22 24
M  V30 24 2 24 25
M  V30 25 2 18 26
M  V30 26 1 26 27
M  V30 27 1 15 28
M  V30 28 1 28 29
M  V30 29 1 29 30
M  V30 30 1 30 31
M  V30 31 1 31 32
M  V30 32 1 30 33
M  V30 33 2 33 34
M  V30 34 1 34 35
M  V30 35 2 35 36
M  V30 36 1 36 37
M  V30 37 2 37 38
M  V30 38 2 28 39
M  V30 39 1 10 40
M  V30 40 2 40 41
M  V30 41 1 41 2
M  V30 42 1 41 7
M  V30 43 1 39 12
M  V30 44 1 27 16
M  V30 45 1 38 33
M  V30 46 1 25 19
M  V30 47 1 1 42
M  V30 48 1 1 43
M  V30 49 1 1 44
M  V30 50 1 3 45
M  V30 51 1 3 46
M  V30 52 1 3 47
M  V30 53 1 8 48
M  V30 54 1 9 49
M  V30 55 1 11 50
M  V30 56 1 14 51
M  V30 57 1 20 52
M  V30 58 1 21 53
M  V30 59 1 24 54
M  V30 60 1 25 55
M  V30 61 1 29 56
M  V30 62 1 30 57 CFG=1
M  V30 63 1 31 58
M  V30 64 1 31 59
M  V30 65 1 32 60
M  V30 66 1 34 61
M  V30 67 1 35 62
M  V30 68 1 36 63
M  V30 69 1 37 64
M  V30 70 1 38 65
M  V30 71 1 40 66
M  V30 END BOND
M  V30 END CTAB
M  END
>  <Dataset>  (390) 
ChEMBL_Kinases

>  <Ligand_Instance>  (390) 
nan

>  <PDB_ID>  (390) 
nan

>  <Standardized_SMILES>  (390) 
CC1(C)OC(=O)c2ccc(Nc3ncc(-c4nc(-c5ccc(F)cc5)no4)c(N[C@H](CO)c4ccccc4)n3)cc21

>  <Name>  (390) 
nan

>  <Pocket>  (390) 
nan

>  <ATP_Site>  (390) 
nan

>  <Peripheral>  (390) 
nan

>  <Num_H_Atoms_ProtBoundConf>  (390) 
nan

>  <Num_Resolved_Atoms>  (390) 
nan

>  <Num_Not_Resolved_Atoms>  (390) 
nan

$$$$
CHEMBL4285581
     RDKit          3D

  0  0  0  0  0  0  0  0  0  0999 V3000
M  V30 BEGIN CTAB
M  V30 COUNTS 73 78 0 0 0
M  V30 BEGIN ATOM
M  V30 1 C 0.525809 0.879653 4.069223 0
M  V30 2 O 1.400423 -0.205226 4.373005 0
M  V30 3 C 2.315155 -0.600567 3.421709 0
M  V30 4 C 3.150178 -1.651225 3.737224 0
M  V30 5 C 4.054075 -2.017334 2.754861 0
M  V30 6 C 4.152602 -1.406045 1.530044 0
M  V30 7 N 5.066758 -1.846489 0.656181 0
M  V30 8 C 5.203924 -1.279930 -0.560964 0
M  V30 9 C 4.355760 -0.212506 -0.881274 0
M  V30 10 C 3.417665 0.245443 0.004597 0
M  V30 11 N 2.586799 1.311064 -0.360553 0
M  V30 12 C 2.276876 2.225444 -1.421932 0
M  V30 13 C 1.179214 3.238948 -1.064414 0
M  V30 14 N -0.053037 2.599454 -0.727014 0
M  V30 15 C -1.271528 3.260579 -0.343394 0
M  V30 16 O -1.176357 4.534736 -0.322760 0
M  V30 17 C -2.423100 2.437129 -0.035933 0
M  V30 18 S -2.470211 0.603726 -0.093529 0
M  V30 19 C -4.291212 0.573718 0.445694 0
M  V30 20 C -4.995207 -0.760226 0.602208 0
M  V30 21 C -6.311569 -0.821344 0.999909 0
M  V30 22 C -6.864584 -2.079196 1.113032 0
M  V30 23 N -6.177319 -3.187202 0.855485 0
M  V30 24 C -4.877630 -3.169435 0.460748 0
M  V30 25 N -4.172310 -4.368218 0.192840 0
M  V30 26 C -4.854953 -5.605817 0.353530 0
M  V30 27 O -6.050805 -5.711950 0.720633 0
M  V30 28 C -4.039555 -6.811762 0.050044 0
M  V30 29 C -3.120792 -6.711337 -1.140109 0
M  V30 30 C -2.577143 -6.803265 0.284628 0
M  V30 31 C -4.301753 -1.922257 0.340261 0
M  V30 32 N -4.534952 1.722652 0.562736 0
M  V30 33 C -3.685138 2.704260 0.348835 0
M  V30 34 O -4.026141 4.045341 0.502222 0
M  V30 35 C -5.262808 4.546623 0.888607 0
M  V30 36 C 3.319407 -0.362820 1.224094 0
M  V30 37 C 2.418484 0.009332 2.190771 0
M  V30 38 C 4.697424 0.225102 -2.227450 0
M  V30 39 C 4.444733 -1.005058 -3.126900 0
M  V30 40 C 5.605619 -1.952510 -2.902841 0
M  V30 41 C 6.224913 -1.767110 -1.544754 0
M  V30 42 H 1.185184 1.752252 3.796518 0
M  V30 43 H -0.163074 0.621071 3.259568 0
M  V30 44 H -0.037043 1.148874 4.993175 0
M  V30 45 H 3.125163 -2.176226 4.682931 0
M  V30 46 H 4.730530 -2.843012 2.966332 0
M  V30 47 H 1.916331 1.601168 0.364640 0
M  V30 48 H 3.129714 2.881084 -1.726917 0
M  V30 49 H 1.972222 1.691123 -2.364665 0
M  V30 50 H 1.037044 3.875849 -1.950392 0
M  V30 51 H 1.515784 3.905856 -0.252967 0
M  V30 52 H -0.060385 1.536626 -0.765943 0
M  V30 53 H -6.738400 0.152668 1.172066 0
M  V30 54 H -7.909877 -2.063656 1.432218 0
M  V30 55 H -3.179681 -4.286779 -0.111795 0
M  V30 56 H -4.589497 -7.774154 0.186685 0
M  V30 57 H -3.037133 -5.714207 -1.619094 0
M  V30 58 H -3.027298 -7.626199 -1.782032 0
M  V30 59 H -2.100778 -7.765527 0.576257 0
M  V30 60 H -2.036316 -5.920756 0.673532 0
M  V30 61 H -3.264916 -1.914686 0.025312 0
M  V30 62 H -5.459723 5.532492 0.408054 0
M  V30 63 H -6.046792 3.854150 0.481705 0
M  V30 64 H -5.434459 4.552591 1.980888 0
M  V30 65 H 1.723551 0.817413 2.042134 0
M  V30 66 H 5.793584 0.403598 -2.371498 0
M  V30 67 H 4.149082 1.024376 -2.686122 0
M  V30 68 H 3.502770 -1.454396 -2.814206 0
M  V30 69 H 4.479775 -0.673404 -4.184360 0
M  V30 70 H 6.375865 -1.800087 -3.708292 0
M  V30 71 H 5.217428 -3.005370 -2.973593 0
M  V30 72 H 7.034039 -0.997609 -1.532700 0
M  V30 73 H 6.580326 -2.745123 -1.163614 0
M  V30 END ATOM
M  V30 BEGIN BOND
M  V30 1 1 1 2
M  V30 2 1 2 3
M  V30 3 2 3 4
M  V30 4 1 4 5
M  V30 5 2 5 6
M  V30 6 1 6 7
M  V30 7 2 7 8
M  V30 8 1 8 9
M  V30 9 2 9 10
M  V30 10 1 10 11
M  V30 11 1 11 12
M  V30 12 1 12 13
M  V30 13 1 13 14
M  V30 14 1 14 15
M  V30 15 2 15 16
M  V30 16 1 15 17
M  V30 17 1 17 18
M  V30 18 1 18 19
M  V30 19 1 19 20
M  V30 20 2 20 21
M  V30 21 1 21 22
M  V30 22 2 22 23
M  V30 23 1 23 24
M  V30 24 1 24 25
M  V30 25 1 25 26
M  V30 26 2 26 27
M  V30 27 1 26 28
M  V30 28 1 28 29
M  V30 29 1 29 30
M  V30 30 2 24 31
M  V30 31 2 19 32
M  V30 32 1 32 33
M  V30 33 1 33 34
M  V30 34 1 34 35
M  V30 35 1 10 36
M  V30 36 2 36 37
M  V30 37 1 9 38
M  V30 38 1 38 39
M  V30 39 1 39 40
M  V30 40 1 40 41
M  V30 41 1 37 3
M  V30 42 1 36 6
M  V30 43 1 41 8
M  V30 44 2 33 17
M  V30 45 1 31 20
M  V30 46 1 30 28
M  V30 47 1 1 42
M  V30 48 1 1 43
M  V30 49 1 1 44
M  V30 50 1 4 45
M  V30 51 1 5 46
M  V30 52 1 11 47
M  V30 53 1 12 48
M  V30 54 1 12 49
M  V30 55 1 13 50
M  V30 56 1 13 51
M  V30 57 1 14 52
M  V30 58 1 21 53
M  V30 59 1 22 54
M  V30 60 1 25 55
M  V30 61 1 28 56
M  V30 62 1 29 57
M  V30 63 1 29 58
M  V30 64 1 30 59
M  V30 65 1 30 60
M  V30 66 1 31 61
M  V30 67 1 35 62
M  V30 68 1 35 63
M  V30 69 1 35 64
M  V30 70 1 37 65
M  V30 71 1 38 66
M  V30 72 1 38 67
M  V30 73 1 39 68
M  V30 74 1 39 69
M  V30 75 1 40 70
M  V30 76 1 40 71
M  V30 77 1 41 72
M  V30 78 1 41 73
M  V30 END BOND
M  V30 END CTAB
M  END
>  <Dataset>  (391) 
ChEMBL_Kinases

>  <Ligand_Instance>  (391) 
nan

>  <PDB_ID>  (391) 
nan

>  <Standardized_SMILES>  (391) 
COc1ccc2nc3c(c(NCCNC(=O)c4sc(-c5ccnc(NC(=O)C6CC6)c5)nc4OC)c2c1)CCCC3

>  <Name>  (391) 
nan

>  <Pocket>  (391) 
nan

>  <ATP_Site>  (391) 
nan

>  <Peripheral>  (391) 
nan

>  <Num_H_Atoms_ProtBoundConf>  (391) 
nan

>  <Num_Resolved_Atoms>  (391) 
nan

>  <Num_Not_Resolved_Atoms>  (391) 
nan

$$$$
CHEMBL4758580
     RDKit          3D

  0  0  0  0  0  0  0  0  0  0999 V3000
M  V30 BEGIN CTAB
M  V30 COUNTS 47 50 0 0 0
M  V30 BEGIN ATOM
M  V30 1 C 2.366070 -5.773184 1.308311 0
M  V30 2 O 1.384113 -4.748662 1.432889 0
M  V30 3 C 1.488528 -3.658730 0.612736 0
M  V30 4 C 2.451294 -3.411312 -0.352041 0
M  V30 5 N 2.405563 -2.265713 -1.085159 0
M  V30 6 N 3.196884 -1.826246 -2.037056 0
M  V30 7 C 2.778365 -0.630899 -2.494614 0
M  V30 8 C 1.634506 -0.289633 -1.775889 0
M  V30 9 C 0.778403 0.890921 -1.860543 0
M  V30 10 C 0.309457 1.478322 -3.017613 0
M  V30 11 C -0.492729 2.594773 -2.903504 0
M  V30 12 N -0.822189 3.115331 -1.693615 0
M  V30 13 C -0.356429 2.531566 -0.551014 0
M  V30 14 O -0.822666 3.235627 0.549174 0
M  V30 15 C -0.562303 2.946565 1.885287 0
M  V30 16 C -1.826875 2.625059 2.670701 0
M  V30 17 C 0.137162 4.071260 2.611548 0
M  V30 18 C 0.434642 1.431813 -0.640167 0
M  V30 19 C 1.435561 -1.347558 -0.898878 0
M  V30 20 N 0.502781 -1.589165 0.037113 0
M  V30 21 C 0.498333 -2.714563 0.798235 0
M  V30 22 C -0.625902 -2.732330 1.742238 0
M  V30 23 C -1.430528 -3.830213 1.965508 0
M  V30 24 N -2.330925 -3.430142 2.894506 0
M  V30 25 N -2.111207 -2.167639 3.234978 0
M  V30 26 C -2.894060 -1.427098 4.206517 0
M  V30 27 C -1.055155 -1.690793 2.539893 0
M  V30 28 H 2.074099 -6.678592 1.869020 0
M  V30 29 H 3.337815 -5.389801 1.723614 0
M  V30 30 H 2.542859 -5.986789 0.234762 0
M  V30 31 H 3.200338 -4.172853 -0.460457 0
M  V30 32 H 3.206595 -0.012112 -3.266230 0
M  V30 33 H 0.610789 1.011776 -3.945623 0
M  V30 34 H -0.852006 3.042311 -3.837480 0
M  V30 35 H 0.082455 2.056249 1.945471 0
M  V30 36 H -2.617196 2.325476 1.950867 0
M  V30 37 H -2.180927 3.581601 3.108443 0
M  V30 38 H -1.651583 1.911558 3.475581 0
M  V30 39 H -0.409652 4.391342 3.524254 0
M  V30 40 H 1.161903 3.783160 2.915677 0
M  V30 41 H 0.183110 4.989658 1.975496 0
M  V30 42 H 0.745050 1.052753 0.310262 0
M  V30 43 H -1.332764 -4.792688 1.481318 0
M  V30 44 H -3.018999 -2.068273 5.106528 0
M  V30 45 H -2.432113 -0.471080 4.458762 0
M  V30 46 H -3.913843 -1.218406 3.784610 0
M  V30 47 H -0.616538 -0.686917 2.587180 0
M  V30 END ATOM
M  V30 BEGIN BOND
M  V30 1 1 1 2
M  V30 2 1 2 3
M  V30 3 2 3 4
M  V30 4 1 4 5
M  V30 5 1 5 6
M  V30 6 2 6 7
M  V30 7 1 7 8
M  V30 8 1 8 9
M  V30 9 2 9 10
M  V30 10 1 10 11
M  V30 11 2 11 12
M  V30 12 1 12 13
M  V30 13 1 13 14
M  V30 14 1 14 15
M  V30 15 1 15 16
M  V30 16 1 15 17
M  V30 17 2 13 18
M  V30 18 2 8 19
M  V30 19 1 19 20
M  V30 20 2 20 21
M  V30 21 1 21 22
M  V30 22 1 22 23
M  V30 23 2 23 24
M  V30 24 1 24 25
M  V30 25 1 25 26
M  V30 26 1 25 27
M  V30 27 1 21 3
M  V30 28 2 27 22
M  V30 29 1 19 5
M  V30 30 1 18 9
M  V30 31 1 1 28
M  V30 32 1 1 29
M  V30 33 1 1 30
M  V30 34 1 4 31
M  V30 35 1 7 32
M  V30 36 1 10 33
M  V30 37 1 11 34
M  V30 38 1 15 35
M  V30 39 1 16 36
M  V30 40 1 16 37
M  V30 41 1 16 38
M  V30 42 1 17 39
M  V30 43 1 17 40
M  V30 44 1 17 41
M  V30 45 1 18 42
M  V30 46 1 23 43
M  V30 47 1 26 44
M  V30 48 1 26 45
M  V30 49 1 26 46
M  V30 50 1 27 47
M  V30 END BOND
M  V30 END CTAB
M  END
>  <Dataset>  (392) 
ChEMBL_Kinases

>  <Ligand_Instance>  (392) 
nan

>  <PDB_ID>  (392) 
nan

>  <Standardized_SMILES>  (392) 
COc1cn2ncc(-c3ccnc(OC(C)C)c3)c2nc1-c1cnn(C)c1

>  <Name>  (392) 
nan

>  <Pocket>  (392) 
nan

>  <ATP_Site>  (392) 
nan

>  <Peripheral>  (392) 
nan

>  <Num_H_Atoms_ProtBoundConf>  (392) 
nan

>  <Num_Resolved_Atoms>  (392) 
nan

>  <Num_Not_Resolved_Atoms>  (392) 
nan

$$$$
CHEMBL4758595
     RDKit          3D

  0  0  0  0  0  0  0  0  0  0999 V3000
M  V30 BEGIN CTAB
M  V30 COUNTS 58 61 0 0 0
M  V30 BEGIN ATOM
M  V30 1 C 2.459965 -3.295018 7.433375 0
M  V30 2 O 2.168569 -3.732954 6.136707 0
M  V30 3 C 2.537626 -2.960103 5.031218 0
M  V30 4 C 2.257590 -3.377795 3.745441 0
M  V30 5 C 2.620361 -2.618442 2.662913 0
M  V30 6 C 3.275519 -1.414883 2.821035 0
M  V30 7 C 3.724578 -0.495612 1.746618 0
M  V30 8 C 2.618106 0.478024 1.452776 0
M  V30 9 O 1.658523 0.184064 2.231874 0
M  V30 10 N 2.709954 1.491234 0.483451 0
M  V30 11 C 1.472340 2.232352 0.470864 0
M  V30 12 C 0.357810 1.935451 -0.321333 0
M  V30 13 C -0.614979 2.877968 -0.039469 0
M  V30 14 C -1.971610 2.961600 -0.643221 0 CFG=1
M  V30 15 C -1.917571 3.140689 -2.139156 0
M  V30 16 C -2.737137 2.063317 -2.770582 0
M  V30 17 C -3.111859 1.092958 -1.672162 0 CFG=1
M  V30 18 O -2.395168 -0.120606 -1.808130 0
M  V30 19 C -3.024923 -1.348538 -1.985825 0
M  V30 20 O -4.291511 -1.467583 -2.038728 0
M  V30 21 N -2.297641 -2.564585 -2.121810 0
M  V30 22 C -2.790421 -3.917712 -2.311593 0
M  V30 23 C -1.540980 -4.117598 -3.176432 0 CFG=1
M  V30 24 C -1.716745 -3.458583 -4.450384 0
M  V30 25 N -1.865848 -2.920505 -5.465682 0
M  V30 26 C -0.953828 -3.133577 -2.155776 0 CFG=2
M  V30 27 C -0.623358 -3.755586 -0.821931 0
M  V30 28 C -2.752340 1.720098 -0.364506 0
M  V30 29 N -0.090552 3.704491 0.889578 0
M  V30 30 N 1.156064 3.319105 1.194524 0
M  V30 31 C 3.538384 -1.031612 4.138867 0
M  V30 32 N 3.177006 -1.786769 5.201287 0
M  V30 33 H 3.317900 -3.894362 7.800365 0
M  V30 34 H 2.699282 -2.195698 7.474695 0
M  V30 35 H 1.594300 -3.511678 8.092946 0
M  V30 36 H 1.744186 -4.320005 3.609184 0
M  V30 37 H 2.421935 -2.905265 1.636703 0
M  V30 38 H 4.622750 0.057740 2.090621 0
M  V30 39 H 3.903379 -1.078760 0.830550 0
M  V30 40 H 3.596745 1.577350 -0.068131 0
M  V30 41 H 0.263213 1.112129 -1.035019 0
M  V30 42 H -2.499910 3.828380 -0.201794 0
M  V30 43 H -0.898646 3.094147 -2.565166 0
M  V30 44 H -2.324307 4.149883 -2.426334 0
M  V30 45 H -3.673145 2.471936 -3.204081 0
M  V30 46 H -2.194396 1.534256 -3.588619 0
M  V30 47 H -4.183233 0.837682 -1.736926 0
M  V30 48 H -3.731748 -4.014028 -2.886008 0
M  V30 49 H -2.808533 -4.538815 -1.391675 0
M  V30 50 H -1.108488 -5.117873 -3.176425 0
M  V30 51 H -0.174972 -2.529369 -2.626775 0
M  V30 52 H -1.468777 -3.704947 -0.096008 0
M  V30 53 H 0.173175 -3.112986 -0.352597 0
M  V30 54 H -0.255071 -4.786072 -0.872680 0
M  V30 55 H -3.661936 1.895286 0.267423 0
M  V30 56 H -2.125105 1.024922 0.265690 0
M  V30 57 H -0.563921 4.517197 1.313522 0
M  V30 58 H 4.044007 -0.112190 4.379997 0
M  V30 END ATOM
M  V30 BEGIN BOND
M  V30 1 1 1 2
M  V30 2 1 2 3
M  V30 3 2 3 4
M  V30 4 1 4 5
M  V30 5 2 5 6
M  V30 6 1 6 7
M  V30 7 1 7 8
M  V30 8 2 8 9
M  V30 9 1 8 10
M  V30 10 1 10 11
M  V30 11 1 11 12
M  V30 12 2 12 13
M  V30 13 1 13 14
M  V30 14 1 14 15
M  V30 15 1 15 16
M  V30 16 1 16 17
M  V30 17 1 17 18
M  V30 18 1 18 19
M  V30 19 2 19 20
M  V30 20 1 19 21
M  V30 21 1 21 22
M  V30 22 1 22 23
M  V30 23 1 23 24
M  V30 24 3 24 25
M  V30 25 1 23 26
M  V30 26 1 26 27
M  V30 27 1 17 28
M  V30 28 1 13 29
M  V30 29 1 29 30
M  V30 30 1 6 31
M  V30 31 2 31 32
M  V30 32 1 32 3
M  V30 33 2 30 11
M  V30 34 1 28 14
M  V30 35 1 26 21
M  V30 36 1 1 33
M  V30 37 1 1 34
M  V30 38 1 1 35
M  V30 39 1 4 36
M  V30 40 1 5 37
M  V30 41 1 7 38
M  V30 42 1 7 39
M  V30 43 1 10 40
M  V30 44 1 12 41
M  V30 45 1 14 42 CFG=1
M  V30 46 1 15 43
M  V30 47 1 15 44
M  V30 48 1 16 45
M  V30 49 1 16 46
M  V30 50 1 17 47 CFG=1
M  V30 51 1 22 48
M  V30 52 1 22 49
M  V30 53 1 23 50 CFG=3
M  V30 54 1 26 51 CFG=3
M  V30 55 1 27 52
M  V30 56 1 27 53
M  V30 57 1 27 54
M  V30 58 1 28 55
M  V30 59 1 28 56
M  V30 60 1 29 57
M  V30 61 1 31 58
M  V30 END BOND
M  V30 END CTAB
M  END
>  <Dataset>  (393) 
ChEMBL_Kinases

>  <Ligand_Instance>  (393) 
nan

>  <PDB_ID>  (393) 
nan

>  <Standardized_SMILES>  (393) 
COc1ccc(CC(=O)Nc2cc([C@H]3CC[C@@H](OC(=O)N4C[C@@H](C#N)[C@@H]4C)C3)[nH]n2)cn1

>  <Name>  (393) 
nan

>  <Pocket>  (393) 
nan

>  <ATP_Site>  (393) 
nan

>  <Peripheral>  (393) 
nan

>  <Num_H_Atoms_ProtBoundConf>  (393) 
nan

>  <Num_Resolved_Atoms>  (393) 
nan

>  <Num_Not_Resolved_Atoms>  (393) 
nan

$$$$
CHEMBL4758606
     RDKit          3D

  0  0  0  0  0  0  0  0  0  0999 V3000
M  V30 BEGIN CTAB
M  V30 COUNTS 45 48 0 0 0
M  V30 BEGIN ATOM
M  V30 1 C 3.172577 -1.449761 3.498562 0
M  V30 2 C 2.688717 -0.189138 2.810098 0
M  V30 3 C 1.432192 0.241256 3.515551 0
M  V30 4 N 3.715864 0.820386 2.836902 0
M  V30 5 C 4.639610 1.005049 3.788460 0
M  V30 6 N 5.388153 2.052094 3.409480 0
M  V30 7 N 4.943709 2.503551 2.259132 0
M  V30 8 C 3.902207 1.748635 1.886884 0
M  V30 9 C 3.119011 1.918507 0.662048 0
M  V30 10 C 3.756778 2.101767 -0.559010 0
M  V30 11 C 3.000191 2.261682 -1.713281 0
M  V30 12 C 1.618961 2.242223 -1.672177 0
M  V30 13 C 1.026566 2.057454 -0.437685 0
M  V30 14 N -0.384600 2.021517 -0.282897 0
M  V30 15 C -1.476676 1.174542 -0.281094 0
M  V30 16 O -0.717318 0.171264 -0.511479 0
M  V30 17 N -2.583819 0.355028 -0.273637 0
M  V30 18 C -3.007859 -0.989578 -0.418919 0
M  V30 19 N -3.081188 -1.799625 0.665345 0
M  V30 20 C -3.505361 -3.022574 0.287580 0
M  V30 21 C -3.771986 -4.233090 0.899684 0
M  V30 22 C -4.213237 -5.315636 0.143772 0
M  V30 23 C -4.388972 -5.190166 -1.226721 0
M  V30 24 C -4.120159 -3.977575 -1.828912 0
M  V30 25 C -3.675575 -2.882239 -1.076015 0
M  V30 26 N -3.378650 -1.652105 -1.529978 0
M  V30 27 N 1.773236 1.901809 0.686262 0
M  V30 28 H 4.095155 -1.861633 3.070822 0
M  V30 29 H 3.206332 -1.254492 4.586224 0
M  V30 30 H 2.336196 -2.197184 3.372409 0
M  V30 31 H 2.442916 -0.484670 1.756864 0
M  V30 32 H 1.576540 0.005361 4.606421 0
M  V30 33 H 0.550042 -0.311993 3.196839 0
M  V30 34 H 1.337252 1.340506 3.456668 0
M  V30 35 H 4.766207 0.429345 4.689123 0
M  V30 36 H 4.849546 2.119689 -0.608997 0
M  V30 37 H 3.472702 2.406276 -2.679033 0
M  V30 38 H 0.959959 2.358286 -2.518423 0
M  V30 39 H -1.150733 2.704195 -0.097774 0
M  V30 40 H -3.032390 1.277987 -0.089943 0
M  V30 41 H -3.611058 -4.257203 1.980430 0
M  V30 42 H -4.412037 -6.247003 0.656143 0
M  V30 43 H -4.735828 -6.051704 -1.800850 0
M  V30 44 H -4.278930 -3.945001 -2.912150 0
M  V30 45 H -3.415408 -1.279043 -2.482582 0
M  V30 END ATOM
M  V30 BEGIN BOND
M  V30 1 1 1 2
M  V30 2 1 2 3
M  V30 3 1 2 4
M  V30 4 1 4 5
M  V30 5 2 5 6
M  V30 6 1 6 7
M  V30 7 2 7 8
M  V30 8 1 8 9
M  V30 9 2 9 10
M  V30 10 1 10 11
M  V30 11 2 11 12
M  V30 12 1 12 13
M  V30 13 1 13 14
M  V30 14 1 14 15
M  V30 15 2 15 16
M  V30 16 1 15 17
M  V30 17 1 17 18
M  V30 18 2 18 19
M  V30 19 1 19 20
M  V30 20 2 20 21
M  V30 21 1 21 22
M  V30 22 2 22 23
M  V30 23 1 23 24
M  V30 24 2 24 25
M  V30 25 1 25 26
M  V30 26 2 13 27
M  V30 27 1 8 4
M  V30 28 1 27 9
M  V30 29 1 26 18
M  V30 30 1 25 20
M  V30 31 1 1 28
M  V30 32 1 1 29
M  V30 33 1 1 30
M  V30 34 1 2 31
M  V30 35 1 3 32
M  V30 36 1 3 33
M  V30 37 1 3 34
M  V30 38 1 5 35
M  V30 39 1 10 36
M  V30 40 1 11 37
M  V30 41 1 12 38
M  V30 42 1 14 39
M  V30 43 1 17 40
M  V30 44 1 21 41
M  V30 45 1 22 42
M  V30 46 1 23 43
M  V30 47 1 24 44
M  V30 48 1 26 45
M  V30 END BOND
M  V30 END CTAB
M  END
>  <Dataset>  (394) 
ChEMBL_Kinases

>  <Ligand_Instance>  (394) 
nan

>  <PDB_ID>  (394) 
nan

>  <Standardized_SMILES>  (394) 
CC(C)n1cnnc1-c1cccc(NC(=O)Nc2nc3ccccc3[nH]2)n1

>  <Name>  (394) 
nan

>  <Pocket>  (394) 
nan

>  <ATP_Site>  (394) 
nan

>  <Peripheral>  (394) 
nan

>  <Num_H_Atoms_ProtBoundConf>  (394) 
nan

>  <Num_Resolved_Atoms>  (394) 
nan

>  <Num_Not_Resolved_Atoms>  (394) 
nan

$$$$
CHEMBL4285481
     RDKit          3D

  0  0  0  0  0  0  0  0  0  0999 V3000
M  V30 BEGIN CTAB
M  V30 COUNTS 71 76 0 0 0
M  V30 BEGIN ATOM
M  V30 1 C 6.705041 -2.125095 3.394747 0
M  V30 2 C 6.844804 -1.930708 1.912641 0
M  V30 3 O 5.600705 -1.477496 1.376306 0
M  V30 4 C 5.008936 -0.313371 1.777074 0
M  V30 5 O 5.599476 0.365438 2.648566 0
M  V30 6 C 3.760480 0.179957 1.266685 0
M  V30 7 S 3.144393 1.749878 1.928933 0
M  V30 8 C 1.589052 1.714893 0.848204 0
M  V30 9 C 0.675178 2.831730 0.993802 0
M  V30 10 C 0.918908 3.866392 1.870103 0
M  V30 11 C -0.053159 4.842347 1.876491 0
M  V30 12 N -1.144622 4.795763 1.099780 0
M  V30 13 C -1.381803 3.785845 0.244982 0
M  V30 14 N -2.577971 3.882626 -0.504994 0
M  V30 15 C -3.104047 2.994946 -1.466204 0
M  V30 16 O -2.465508 1.950198 -1.739283 0
M  V30 17 C -4.365541 3.174503 -2.204837 0
M  V30 18 C -5.264920 1.931121 -2.220297 0
M  V30 19 C -4.643008 2.473308 -3.458281 0
M  V30 20 C -0.450243 2.802095 0.205618 0
M  V30 21 N 1.710903 0.687081 0.223308 0
M  V30 22 C 2.735191 -0.145908 0.345692 0
M  V30 23 O 3.116507 -1.332864 -0.214562 0
M  V30 24 C 2.523253 -2.135134 -1.164669 0
M  V30 25 C 1.176090 -2.710141 -0.836166 0
M  V30 26 N 0.164524 -1.740080 -0.593281 0
M  V30 27 C -1.011713 -2.525742 -0.301812 0
M  V30 28 C -1.375943 -2.943989 0.958555 0
M  V30 29 C -2.509617 -3.711024 1.217194 0
M  V30 30 N -3.299948 -4.069664 0.192559 0
M  V30 31 C -3.027118 -3.709618 -1.070342 0
M  V30 32 C -3.794726 -4.046999 -2.141903 0
M  V30 33 C -3.518812 -3.677616 -3.456246 0
M  V30 34 C -2.385334 -2.913911 -3.693441 0
M  V30 35 C -1.607819 -2.572647 -2.605641 0
M  V30 36 C -1.888303 -2.942739 -1.305995 0
M  V30 37 C -2.725929 -4.056058 2.625352 0
M  V30 38 C -2.557969 -2.876674 3.553579 0
M  V30 39 C -1.338197 -2.072066 3.263715 0
M  V30 40 C -0.519750 -2.559395 2.098320 0
M  V30 41 H 7.451645 -1.546549 3.983197 0
M  V30 42 H 5.713615 -1.736076 3.727422 0
M  V30 43 H 6.800633 -3.184316 3.662341 0
M  V30 44 H 7.657781 -1.203311 1.707552 0
M  V30 45 H 7.081814 -2.882654 1.429425 0
M  V30 46 H 1.783234 3.911471 2.490930 0
M  V30 47 H 0.058134 5.688676 2.533560 0
M  V30 48 H -3.227821 4.704684 -0.389518 0
M  V30 49 H -4.971073 4.104218 -1.992261 0
M  V30 50 H -4.876334 1.012772 -1.741615 0
M  V30 51 H -6.348748 2.041744 -2.093110 0
M  V30 52 H -3.903703 1.834322 -3.960133 0
M  V30 53 H -5.355231 2.949982 -4.189900 0
M  V30 54 H -0.604755 1.990080 -0.456796 0
M  V30 55 H 3.243608 -2.944272 -1.442721 0
M  V30 56 H 2.424584 -1.501891 -2.098820 0
M  V30 57 H 0.886309 -3.339917 -1.715001 0
M  V30 58 H 1.297816 -3.413808 0.035773 0
M  V30 59 H -0.404276 -0.883951 -0.458509 0
M  V30 60 H -4.694241 -4.647268 -1.997822 0
M  V30 61 H -4.129256 -3.947597 -4.298394 0
M  V30 62 H -2.155910 -2.618888 -4.701984 0
M  V30 63 H -0.730571 -1.970800 -2.864255 0
M  V30 64 H -3.739309 -4.488618 2.718618 0
M  V30 65 H -1.936482 -4.793405 2.910505 0
M  V30 66 H -3.493298 -2.272316 3.475239 0
M  V30 67 H -2.522228 -3.236084 4.598852 0
M  V30 68 H -0.656397 -2.043068 4.162110 0
M  V30 69 H -1.573587 -1.004365 3.069178 0
M  V30 70 H 0.168504 -1.726429 1.812618 0
M  V30 71 H 0.131375 -3.420979 2.408865 0
M  V30 END ATOM
M  V30 BEGIN BOND
M  V30 1 1 1 2
M  V30 2 1 2 3
M  V30 3 1 3 4
M  V30 4 2 4 5
M  V30 5 1 4 6
M  V30 6 1 6 7
M  V30 7 1 7 8
M  V30 8 1 8 9
M  V30 9 2 9 10
M  V30 10 1 10 11
M  V30 11 2 11 12
M  V30 12 1 12 13
M  V30 13 1 13 14
M  V30 14 1 14 15
M  V30 15 2 15 16
M  V30 16 1 15 17
M  V30 17 1 17 18
M  V30 18 1 18 19
M  V30 19 2 13 20
M  V30 20 2 8 21
M  V30 21 1 21 22
M  V30 22 1 22 23
M  V30 23 1 23 24
M  V30 24 1 24 25
M  V30 25 1 25 26
M  V30 26 1 26 27
M  V30 27 2 27 28
M  V30 28 1 28 29
M  V30 29 2 29 30
M  V30 30 1 30 31
M  V30 31 2 31 32
M  V30 32 1 32 33
M  V30 33 2 33 34
M  V30 34 1 34 35
M  V30 35 2 35 36
M  V30 36 1 29 37
M  V30 37 1 37 38
M  V30 38 1 38 39
M  V30 39 1 39 40
M  V30 40 2 22 6
M  V30 41 1 36 27
M  V30 42 1 20 9
M  V30 43 1 40 28
M  V30 44 1 19 17
M  V30 45 1 36 31
M  V30 46 1 1 41
M  V30 47 1 1 42
M  V30 48 1 1 43
M  V30 49 1 2 44
M  V30 50 1 2 45
M  V30 51 1 10 46
M  V30 52 1 11 47
M  V30 53 1 14 48
M  V30 54 1 17 49
M  V30 55 1 18 50
M  V30 56 1 18 51
M  V30 57 1 19 52
M  V30 58 1 19 53
M  V30 59 1 20 54
M  V30 60 1 24 55
M  V30 61 1 24 56
M  V30 62 1 25 57
M  V30 63 1 25 58
M  V30 64 1 26 59
M  V30 65 1 32 60
M  V30 66 1 33 61
M  V30 67 1 34 62
M  V30 68 1 35 63
M  V30 69 1 37 64
M  V30 70 1 37 65
M  V30 71 1 38 66
M  V30 72 1 38 67
M  V30 73 1 39 68
M  V30 74 1 39 69
M  V30 75 1 40 70
M  V30 76 1 40 71
M  V30 END BOND
M  V30 END CTAB
M  END
>  <Dataset>  (395) 
ChEMBL_Kinases

>  <Ligand_Instance>  (395) 
nan

>  <PDB_ID>  (395) 
nan

>  <Standardized_SMILES>  (395) 
CCOC(=O)c1sc(-c2ccnc(NC(=O)C3CC3)c2)nc1OCCNc1c2c(nc3ccccc13)CCCC2

>  <Name>  (395) 
nan

>  <Pocket>  (395) 
nan

>  <ATP_Site>  (395) 
nan

>  <Peripheral>  (395) 
nan

>  <Num_H_Atoms_ProtBoundConf>  (395) 
nan

>  <Num_Resolved_Atoms>  (395) 
nan

>  <Num_Not_Resolved_Atoms>  (395) 
nan

$$$$
CHEMBL4758567
     RDKit          3D

  0  0  0  0  0  0  0  0  0  0999 V3000
M  V30 BEGIN CTAB
M  V30 COUNTS 57 63 0 0 0
M  V30 BEGIN ATOM
M  V30 1 O 4.554861 -2.810920 -0.004993 0
M  V30 2 C 4.082717 -3.168185 1.113675 0
M  V30 3 N 3.972201 -2.215753 2.162186 0
M  V30 4 C 4.380510 -0.849689 1.997394 0
M  V30 5 C 5.645953 -0.345380 2.255873 0
M  V30 6 N 5.896587 0.961469 2.058123 0
M  V30 7 C 4.942422 1.810895 1.609597 0
M  V30 8 C 3.663649 1.373358 1.333529 0
M  V30 9 C 2.590719 2.234912 0.848510 0
M  V30 10 C 2.729519 3.571948 0.612572 0
M  V30 11 C 1.676487 4.354394 0.149598 0
M  V30 12 C 0.450742 3.803635 -0.087944 0
M  V30 13 N -0.759235 4.201692 -0.516615 0
M  V30 14 N -1.612766 3.166272 -0.547604 0
M  V30 15 C -0.958072 2.067279 -0.133461 0
M  V30 16 C -1.504103 0.723902 -0.012884 0
M  V30 17 N -2.759077 0.354842 -0.296294 0
M  V30 18 C -2.920904 -0.963133 -0.070908 0
M  V30 19 C -3.960891 -1.889323 -0.177876 0
M  V30 20 C -5.243865 -1.414490 -0.643278 0
M  V30 21 C -5.823059 -0.245753 -0.174894 0
M  V30 22 C -7.065876 0.194676 -0.639651 0
M  V30 23 C -7.697930 -0.582562 -1.587822 0
M  V30 24 C -7.171961 -1.754387 -2.091717 0
M  V30 25 F -7.843935 -2.479720 -3.027986 0
M  V30 26 C -5.941209 -2.152857 -1.604678 0
M  V30 27 C -3.740385 -3.216660 0.158954 0
M  V30 28 C -2.515061 -3.688099 0.607169 0
M  V30 29 C -1.481433 -2.776020 0.715225 0
M  V30 30 C -1.717593 -1.467429 0.377775 0
M  V30 31 N -0.898745 -0.403881 0.393059 0
M  V30 32 C 0.340791 2.451096 0.159452 0
M  V30 33 N 1.360092 1.729022 0.600317 0
M  V30 34 C 3.420981 0.047233 1.537536 0
M  V30 35 C 3.660740 -4.586173 1.279283 0
M  V30 36 C 2.895898 -5.103335 0.063493 0
M  V30 37 C 4.238670 -5.663043 0.470667 0
M  V30 38 H 3.575589 -2.553303 3.073463 0
M  V30 39 H 6.373962 -1.063249 2.612486 0
M  V30 40 H 5.177436 2.850858 1.462412 0
M  V30 41 H 3.670077 4.046443 0.784148 0
M  V30 42 H 1.792413 5.419842 -0.036893 0
M  V30 43 H -0.989838 5.171599 -0.782663 0
M  V30 44 H -5.240336 0.274155 0.559459 0
M  V30 45 H -7.420560 1.104601 -0.214738 0
M  V30 46 H -8.663255 -0.230882 -1.941992 0
M  V30 47 H -5.471693 -3.077552 -1.968214 0
M  V30 48 H -4.533113 -3.943653 0.081745 0
M  V30 49 H -2.395927 -4.725298 0.855141 0
M  V30 50 H -0.522052 -3.093178 1.055447 0
M  V30 51 H 0.105391 -0.427390 0.685554 0
M  V30 52 H 2.416030 -0.324569 1.326352 0
M  V30 53 H 3.260761 -4.821340 2.278057 0
M  V30 54 H 1.969292 -5.693358 0.220142 0
M  V30 55 H 2.846780 -4.489947 -0.853989 0
M  V30 56 H 5.052222 -5.517429 -0.264922 0
M  V30 57 H 4.171393 -6.689932 0.874714 0
M  V30 END ATOM
M  V30 BEGIN BOND
M  V30 1 2 1 2
M  V30 2 1 2 3
M  V30 3 1 3 4
M  V30 4 2 4 5
M  V30 5 1 5 6
M  V30 6 2 6 7
M  V30 7 1 7 8
M  V30 8 1 8 9
M  V30 9 2 9 10
M  V30 10 1 10 11
M  V30 11 2 11 12
M  V30 12 1 12 13
M  V30 13 1 13 14
M  V30 14 2 14 15
M  V30 15 1 15 16
M  V30 16 2 16 17
M  V30 17 1 17 18
M  V30 18 2 18 19
M  V30 19 1 19 20
M  V30 20 2 20 21
M  V30 21 1 21 22
M  V30 22 2 22 23
M  V30 23 1 23 24
M  V30 24 1 24 25
M  V30 25 2 24 26
M  V30 26 1 19 27
M  V30 27 2 27 28
M  V30 28 1 28 29
M  V30 29 2 29 30
M  V30 30 1 30 31
M  V30 31 1 15 32
M  V30 32 2 32 33
M  V30 33 2 8 34
M  V30 34 1 2 35
M  V30 35 1 35 36
M  V30 36 1 36 37
M  V30 37 1 34 4
M  V30 38 1 37 35
M  V30 39 1 33 9
M  V30 40 1 32 12
M  V30 41 1 31 16
M  V30 42 1 30 18
M  V30 43 1 26 20
M  V30 44 1 3 38
M  V30 45 1 5 39
M  V30 46 1 7 40
M  V30 47 1 10 41
M  V30 48 1 11 42
M  V30 49 1 13 43
M  V30 50 1 21 44
M  V30 51 1 22 45
M  V30 52 1 23 46
M  V30 53 1 26 47
M  V30 54 1 27 48
M  V30 55 1 28 49
M  V30 56 1 29 50
M  V30 57 1 31 51
M  V30 58 1 34 52
M  V30 59 1 35 53
M  V30 60 1 36 54
M  V30 61 1 36 55
M  V30 62 1 37 56
M  V30 63 1 37 57
M  V30 END BOND
M  V30 END CTAB
M  END
>  <Dataset>  (396) 
ChEMBL_Kinases

>  <Ligand_Instance>  (396) 
nan

>  <PDB_ID>  (396) 
nan

>  <Standardized_SMILES>  (396) 
O=C(Nc1cncc(-c2ccc3[nH]nc(-c4nc5c(-c6cccc(F)c6)cccc5[nH]4)c3n2)c1)C1CC1

>  <Name>  (396) 
nan

>  <Pocket>  (396) 
nan

>  <ATP_Site>  (396) 
nan

>  <Peripheral>  (396) 
nan

>  <Num_H_Atoms_ProtBoundConf>  (396) 
nan

>  <Num_Resolved_Atoms>  (396) 
nan

>  <Num_Not_Resolved_Atoms>  (396) 
nan

$$$$
CHEMBL4757911
     RDKit          3D

  0  0  0  0  0  0  0  0  0  0999 V3000
M  V30 BEGIN CTAB
M  V30 COUNTS 50 54 0 0 0
M  V30 BEGIN ATOM
M  V30 1 C 0.559082 2.136862 4.821810 0
M  V30 2 N 0.723720 0.851415 5.411021 0
M  V30 3 C 2.064783 0.367540 5.510283 0
M  V30 4 C 2.495384 -0.499635 4.380412 0
M  V30 5 C 1.375310 -0.694081 3.384004 0
M  V30 6 N 1.794236 -1.584339 2.317635 0
M  V30 7 C 1.735250 -1.332443 0.976219 0
M  V30 8 C 2.221291 -2.409198 0.255363 0
M  V30 9 N 2.301585 -2.475939 -1.174000 0
M  V30 10 C 1.828828 -1.311725 -1.852459 0
M  V30 11 N 2.681724 -0.286565 -2.141372 0
M  V30 12 C 2.248808 0.827266 -2.785742 0
M  V30 13 C 0.926818 0.946936 -3.164999 0
M  V30 14 N 0.188001 1.895658 -3.803804 0
M  V30 15 N -1.052763 1.437939 -3.883839 0
M  V30 16 N -1.159748 0.237753 -3.328904 0
M  V30 17 C -2.366013 -0.513664 -3.258419 0
M  V30 18 C -2.945801 -0.703114 -4.512286 0
M  V30 19 C -4.138507 -1.422213 -4.621769 0
M  V30 20 C -4.686353 -1.915172 -3.452318 0
M  V30 21 F -5.849799 -2.614999 -3.571397 0
M  V30 22 C -4.119989 -1.734349 -2.195668 0
M  V30 23 C -2.948753 -1.024336 -2.117107 0
M  V30 24 C -2.273135 -0.772824 -0.886573 0
M  V30 25 N -1.742925 -0.563703 0.119433 0
M  V30 26 C 0.060489 -0.107696 -2.865089 0
M  V30 27 N 0.523783 -1.198562 -2.224450 0
M  V30 28 C 2.581581 -3.335316 1.229207 0
M  V30 29 N 2.307645 -2.797216 2.446095 0
M  V30 30 C 0.161586 -1.189951 4.130789 0
M  V30 31 C -0.271018 -0.122000 5.087109 0
M  V30 32 H -0.172397 2.051837 3.977584 0
M  V30 33 H 0.125556 2.856139 5.573982 0
M  V30 34 H 1.466856 2.610158 4.449686 0
M  V30 35 H 2.725848 1.280473 5.489232 0
M  V30 36 H 2.206602 -0.072101 6.510024 0
M  V30 37 H 2.750985 -1.512949 4.808095 0
M  V30 38 H 3.390980 -0.144159 3.827527 0
M  V30 39 H 1.105660 0.289665 2.946871 0
M  V30 40 H 1.338275 -0.372354 0.614247 0
M  V30 41 H 2.685644 -3.337687 -1.613777 0
M  V30 42 H 2.909678 1.650984 -3.023829 0
M  V30 43 H -2.540529 -0.329443 -5.444817 0
M  V30 44 H -4.635832 -1.599941 -5.583135 0
M  V30 45 H -4.570722 -2.131323 -1.298076 0
M  V30 46 H 3.005231 -4.306798 0.989323 0
M  V30 47 H 0.289653 -2.188889 4.572539 0
M  V30 48 H -0.640073 -1.299438 3.365706 0
M  V30 49 H -1.180933 0.417540 4.732195 0
M  V30 50 H -0.584063 -0.595480 6.046704 0
M  V30 END ATOM
M  V30 BEGIN BOND
M  V30 1 1 1 2
M  V30 2 1 2 3
M  V30 3 1 3 4
M  V30 4 1 4 5
M  V30 5 1 5 6
M  V30 6 1 6 7
M  V30 7 2 7 8
M  V30 8 1 8 9
M  V30 9 1 9 10
M  V30 10 2 10 11
M  V30 11 1 11 12
M  V30 12 2 12 13
M  V30 13 1 13 14
M  V30 14 2 14 15
M  V30 15 1 15 16
M  V30 16 1 16 17
M  V30 17 2 17 18
M  V30 18 1 18 19
M  V30 19 2 19 20
M  V30 20 1 20 21
M  V30 21 1 20 22
M  V30 22 2 22 23
M  V30 23 1 23 24
M  V30 24 3 24 25
M  V30 25 1 16 26
M  V30 26 2 26 27
M  V30 27 1 8 28
M  V30 28 2 28 29
M  V30 29 1 5 30
M  V30 30 1 30 31
M  V30 31 1 31 2
M  V30 32 1 29 6
M  V30 33 1 27 10
M  V30 34 1 26 13
M  V30 35 1 23 17
M  V30 36 1 1 32
M  V30 37 1 1 33
M  V30 38 1 1 34
M  V30 39 1 3 35
M  V30 40 1 3 36
M  V30 41 1 4 37
M  V30 42 1 4 38
M  V30 43 1 5 39
M  V30 44 1 7 40
M  V30 45 1 9 41
M  V30 46 1 12 42
M  V30 47 1 18 43
M  V30 48 1 19 44
M  V30 49 1 22 45
M  V30 50 1 28 46
M  V30 51 1 30 47
M  V30 52 1 30 48
M  V30 53 1 31 49
M  V30 54 1 31 50
M  V30 END BOND
M  V30 END CTAB
M  END
>  <Dataset>  (397) 
ChEMBL_Kinases

>  <Ligand_Instance>  (397) 
nan

>  <PDB_ID>  (397) 
nan

>  <Standardized_SMILES>  (397) 
CN1CCC(n2cc(Nc3ncc4nnn(-c5ccc(F)cc5C#N)c4n3)cn2)CC1

>  <Name>  (397) 
nan

>  <Pocket>  (397) 
nan

>  <ATP_Site>  (397) 
nan

>  <Peripheral>  (397) 
nan

>  <Num_H_Atoms_ProtBoundConf>  (397) 
nan

>  <Num_Resolved_Atoms>  (397) 
nan

>  <Num_Not_Resolved_Atoms>  (397) 
nan

$$$$
CHEMBL4286880
     RDKit          3D

  0  0  0  0  0  0  0  0  0  0999 V3000
M  V30 BEGIN CTAB
M  V30 COUNTS 76 81 0 0 0
M  V30 BEGIN ATOM
M  V30 1 C 4.847137 -3.385532 5.964863 0
M  V30 2 N 5.911088 -3.332190 5.019935 0
M  V30 3 C 5.785572 -4.110188 3.849416 0
M  V30 4 C 5.753204 -3.445310 2.536223 0
M  V30 5 C 5.558373 -1.976227 2.490817 0
M  V30 6 C 4.210679 -1.603251 1.905771 0
M  V30 7 N 3.623479 -0.992006 1.135052 0
M  V30 8 C 2.309356 -0.952460 0.925548 0
M  V30 9 C 1.580134 -0.170372 -0.065937 0
M  V30 10 C 0.948083 -0.907185 -1.073056 0
M  V30 11 C 0.222528 -0.265722 -2.064681 0
M  V30 12 C 0.095585 1.118609 -2.097526 0
M  V30 13 C 0.746696 1.805753 -1.068175 0
M  V30 14 S 0.589812 3.562129 -1.092320 0
M  V30 15 C -0.867550 3.972290 -0.133937 0
M  V30 16 O 0.402434 4.069092 -2.490832 0
M  V30 17 O 1.824900 4.117363 -0.448136 0
M  V30 18 C 1.474245 1.192331 -0.070665 0
M  V30 19 C 1.546432 -1.755347 1.745750 0
M  V30 20 C 0.128711 -2.097968 1.968458 0
M  V30 21 C -0.456764 -1.900289 3.224467 0
M  V30 22 C -1.794851 -2.238993 3.397908 0
M  V30 23 N -2.498380 -2.749805 2.353444 0
M  V30 24 C -1.941143 -2.939853 1.149934 0
M  V30 25 N -2.500311 -3.459751 -0.049161 0
M  V30 26 C -3.209514 -2.483195 -0.817129 0
M  V30 27 C -3.397301 -1.193768 -0.357486 0
M  V30 28 C -4.095431 -0.242494 -1.114132 0
M  V30 29 C -4.617506 -0.565217 -2.343758 0
M  V30 30 N -5.333988 0.390156 -3.102075 0
M  V30 31 C -5.771608 1.673524 -2.584408 0
M  V30 32 C -5.264401 2.803355 -3.455313 0
M  V30 33 N -4.521447 2.368978 -4.577393 0
M  V30 34 C -4.959194 1.244448 -5.299276 0
M  V30 35 C -5.732432 0.255630 -4.485623 0
M  V30 36 C -4.427500 -1.850722 -2.798390 0
M  V30 37 C -3.731383 -2.805723 -2.047556 0
M  V30 38 N -0.654559 -2.608925 1.001840 0
M  V30 39 S 2.837507 -2.552157 2.815312 0
M  V30 40 C 5.611680 -1.309325 3.842046 0
M  V30 41 C 6.510417 -2.060464 4.802098 0
M  V30 42 H 4.124103 -4.201953 5.754481 0
M  V30 43 H 4.276351 -2.429962 6.081678 0
M  V30 44 H 5.305852 -3.543518 6.985391 0
M  V30 45 H 4.822357 -4.695716 3.946096 0
M  V30 46 H 6.573543 -4.921994 3.886960 0
M  V30 47 H 6.728386 -3.678695 2.008506 0
M  V30 48 H 4.993616 -3.912446 1.838798 0
M  V30 49 H 6.317223 -1.465730 1.865240 0
M  V30 50 H 0.941546 -1.988484 -1.204686 0
M  V30 51 H -0.290053 -0.774492 -2.870292 0
M  V30 52 H -0.471454 1.618479 -2.872154 0
M  V30 53 H -1.748742 3.789524 -0.764699 0
M  V30 54 H -0.893217 3.238554 0.718357 0
M  V30 55 H -0.882769 5.010508 0.199252 0
M  V30 56 H 1.963786 1.737483 0.707086 0
M  V30 57 H 0.133414 -1.488595 4.045786 0
M  V30 58 H -2.295401 -2.110941 4.328317 0
M  V30 59 H -2.445469 -4.432861 -0.401495 0
M  V30 60 H -2.998292 -0.905590 0.609999 0
M  V30 61 H -4.179620 0.733042 -0.656549 0
M  V30 62 H -5.611907 1.836934 -1.526994 0
M  V30 63 H -6.895185 1.674730 -2.721810 0
M  V30 64 H -6.085691 3.503454 -3.762548 0
M  V30 65 H -4.598578 3.426714 -2.812387 0
M  V30 66 H -3.591978 2.747279 -4.735870 0
M  V30 67 H -4.031045 0.692588 -5.637480 0
M  V30 68 H -5.539014 1.474277 -6.220621 0
M  V30 69 H -5.636881 -0.783108 -4.862634 0
M  V30 70 H -6.823586 0.530520 -4.552883 0
M  V30 71 H -4.784283 -2.211002 -3.728160 0
M  V30 72 H -3.582335 -3.829134 -2.411278 0
M  V30 73 H 6.006275 -0.281022 3.747222 0
M  V30 74 H 4.594994 -1.257471 4.240722 0
M  V30 75 H 7.476505 -2.248173 4.263741 0
M  V30 76 H 6.617367 -1.452247 5.710440 0
M  V30 END ATOM
M  V30 BEGIN BOND
M  V30 1 1 1 2
M  V30 2 1 2 3
M  V30 3 1 3 4
M  V30 4 1 4 5
M  V30 5 1 5 6
M  V30 6 2 6 7
M  V30 7 1 7 8
M  V30 8 1 8 9
M  V30 9 2 9 10
M  V30 10 1 10 11
M  V30 11 2 11 12
M  V30 12 1 12 13
M  V30 13 1 13 14
M  V30 14 1 14 15
M  V30 15 2 14 16
M  V30 16 2 14 17
M  V30 17 2 13 18
M  V30 18 2 8 19
M  V30 19 1 19 20
M  V30 20 2 20 21
M  V30 21 1 21 22
M  V30 22 2 22 23
M  V30 23 1 23 24
M  V30 24 1 24 25
M  V30 25 1 25 26
M  V30 26 2 26 27
M  V30 27 1 27 28
M  V30 28 2 28 29
M  V30 29 1 29 30
M  V30 30 1 30 31
M  V30 31 1 31 32
M  V30 32 1 32 33
M  V30 33 1 33 34
M  V30 34 1 34 35
M  V30 35 1 29 36
M  V30 36 2 36 37
M  V30 37 2 24 38
M  V30 38 1 19 39
M  V30 39 1 5 40
M  V30 40 1 40 41
M  V30 41 1 41 2
M  V30 42 1 39 6
M  V30 43 1 18 9
M  V30 44 1 38 20
M  V30 45 1 37 26
M  V30 46 1 35 30
M  V30 47 1 1 42
M  V30 48 1 1 43
M  V30 49 1 1 44
M  V30 50 1 3 45
M  V30 51 1 3 46
M  V30 52 1 4 47
M  V30 53 1 4 48
M  V30 54 1 5 49
M  V30 55 1 10 50
M  V30 56 1 11 51
M  V30 57 1 12 52
M  V30 58 1 15 53
M  V30 59 1 15 54
M  V30 60 1 15 55
M  V30 61 1 18 56
M  V30 62 1 21 57
M  V30 63 1 22 58
M  V30 64 1 25 59
M  V30 65 1 27 60
M  V30 66 1 28 61
M  V30 67 1 31 62
M  V30 68 1 31 63
M  V30 69 1 32 64
M  V30 70 1 32 65
M  V30 71 1 33 66
M  V30 72 1 34 67
M  V30 73 1 34 68
M  V30 74 1 35 69
M  V30 75 1 35 70
M  V30 76 1 36 71
M  V30 77 1 37 72
M  V30 78 1 40 73
M  V30 79 1 40 74
M  V30 80 1 41 75
M  V30 81 1 41 76
M  V30 END BOND
M  V30 END CTAB
M  END
>  <Dataset>  (398) 
ChEMBL_Kinases

>  <Ligand_Instance>  (398) 
nan

>  <PDB_ID>  (398) 
nan

>  <Standardized_SMILES>  (398) 
CN1CCC(c2nc(-c3cccc(S(C)(=O)=O)c3)c(-c3ccnc(Nc4ccc(N5CCNCC5)cc4)n3)s2)CC1

>  <Name>  (398) 
nan

>  <Pocket>  (398) 
nan

>  <ATP_Site>  (398) 
nan

>  <Peripheral>  (398) 
nan

>  <Num_H_Atoms_ProtBoundConf>  (398) 
nan

>  <Num_Resolved_Atoms>  (398) 
nan

>  <Num_Not_Resolved_Atoms>  (398) 
nan

$$$$
CHEMBL4286841
     RDKit          3D

  0  0  0  0  0  0  0  0  0  0999 V3000
M  V30 BEGIN CTAB
M  V30 COUNTS 64 68 0 0 0
M  V30 BEGIN ATOM
M  V30 1 C 3.204629 -3.189087 4.791372 0
M  V30 2 N 2.848065 -1.918689 4.199479 0
M  V30 3 C 3.790535 -1.487061 3.210880 0
M  V30 4 C 3.574318 -0.082224 2.787353 0
M  V30 5 C 2.236381 0.509910 3.158389 0
M  V30 6 C 1.224429 0.274770 2.076768 0
M  V30 7 N 0.653371 0.802457 1.235729 0
M  V30 8 C -0.238311 0.297811 0.397304 0
M  V30 9 C -0.828420 1.215168 -0.606412 0
M  V30 10 C -0.587008 0.902330 -1.928512 0
M  V30 11 C -1.127025 1.751842 -2.901989 0
M  V30 12 C -1.868322 2.851441 -2.494503 0
M  V30 13 F -2.354090 3.619353 -3.480927 0
M  V30 14 C -2.113282 3.169386 -1.174960 0
M  V30 15 N -2.870183 4.307393 -0.786401 0
M  V30 16 S -3.356458 4.506521 0.877528 0
M  V30 17 C -4.402333 3.189814 1.390696 0
M  V30 18 O -4.085162 5.807435 1.039174 0
M  V30 19 O -2.093765 4.569203 1.715440 0
M  V30 20 C -1.571645 2.319114 -0.246476 0
M  V30 21 C -0.521778 -1.052351 0.556098 0
M  V30 22 C -1.445200 -1.846257 -0.216873 0
M  V30 23 C -2.769986 -1.483572 -0.193215 0
M  V30 24 C -3.681804 -2.215350 -0.915241 0
M  V30 25 N -3.376241 -3.282485 -1.660434 0
M  V30 26 C -2.055571 -3.639521 -1.680461 0
M  V30 27 N -1.381695 -4.700514 -2.325916 0
M  V30 28 C -0.186965 -5.394185 -2.668640 0
M  V30 29 C 0.690698 -4.630174 -3.608370 0
M  V30 30 C 1.241150 -3.307226 -3.183474 0
M  V30 31 C 0.126141 -3.286079 -4.132383 0
M  V30 32 N -1.188296 -2.914274 -0.971975 0
M  V30 33 S 0.548849 -1.476499 1.930562 0
M  V30 34 C 1.748454 0.155761 4.518183 0
M  V30 35 C 2.577894 -0.907534 5.200756 0
M  V30 36 H 2.911088 -3.968427 4.058513 0
M  V30 37 H 4.295088 -3.280486 4.970183 0
M  V30 38 H 2.594846 -3.345716 5.692816 0
M  V30 39 H 4.843882 -1.629834 3.594158 0
M  V30 40 H 3.730586 -2.216644 2.352097 0
M  V30 41 H 4.372848 0.543119 3.222538 0
M  V30 42 H 3.637937 0.043817 1.666318 0
M  V30 43 H 2.395889 1.616980 3.125488 0
M  V30 44 H -0.011055 0.048388 -2.255925 0
M  V30 45 H -0.943919 1.515799 -3.939653 0
M  V30 46 H -3.132554 5.021809 -1.502204 0
M  V30 47 H -5.141352 3.521505 2.179385 0
M  V30 48 H -5.040636 2.802353 0.567624 0
M  V30 49 H -3.825992 2.372429 1.855338 0
M  V30 50 H -1.684326 2.450765 0.798672 0
M  V30 51 H -3.203497 -0.660655 0.344444 0
M  V30 52 H -4.771370 -2.070774 -1.011224 0
M  V30 53 H -2.186222 -5.219404 -2.765713 0
M  V30 54 H -0.389025 -6.404950 -3.131571 0
M  V30 55 H 0.393817 -5.663902 -1.721743 0
M  V30 56 H 1.271317 -5.214795 -4.387277 0
M  V30 57 H 1.220918 -2.973820 -2.149633 0
M  V30 58 H 2.263238 -3.073256 -3.637945 0
M  V30 59 H -0.920617 -3.041412 -3.814324 0
M  V30 60 H 0.318014 -3.072236 -5.186067 0
M  V30 61 H 0.688367 -0.223581 4.429657 0
M  V30 62 H 1.694516 1.003097 5.213686 0
M  V30 63 H 1.976786 -1.391569 6.001947 0
M  V30 64 H 3.490522 -0.510608 5.655579 0
M  V30 END ATOM
M  V30 BEGIN BOND
M  V30 1 1 1 2
M  V30 2 1 2 3
M  V30 3 1 3 4
M  V30 4 1 4 5
M  V30 5 1 5 6
M  V30 6 2 6 7
M  V30 7 1 7 8
M  V30 8 1 8 9
M  V30 9 2 9 10
M  V30 10 1 10 11
M  V30 11 2 11 12
M  V30 12 1 12 13
M  V30 13 1 12 14
M  V30 14 1 14 15
M  V30 15 1 15 16
M  V30 16 1 16 17
M  V30 17 2 16 18
M  V30 18 2 16 19
M  V30 19 2 14 20
M  V30 20 2 8 21
M  V30 21 1 21 22
M  V30 22 2 22 23
M  V30 23 1 23 24
M  V30 24 2 24 25
M  V30 25 1 25 26
M  V30 26 1 26 27
M  V30 27 1 27 28
M  V30 28 1 28 29
M  V30 29 1 29 30
M  V30 30 1 30 31
M  V30 31 2 26 32
M  V30 32 1 21 33
M  V30 33 1 5 34
M  V30 34 1 34 35
M  V30 35 1 35 2
M  V30 36 1 33 6
M  V30 37 1 20 9
M  V30 38 1 32 22
M  V30 39 1 31 29
M  V30 40 1 1 36
M  V30 41 1 1 37
M  V30 42 1 1 38
M  V30 43 1 3 39
M  V30 44 1 3 40
M  V30 45 1 4 41
M  V30 46 1 4 42
M  V30 47 1 5 43
M  V30 48 1 10 44
M  V30 49 1 11 45
M  V30 50 1 15 46
M  V30 51 1 17 47
M  V30 52 1 17 48
M  V30 53 1 17 49
M  V30 54 1 20 50
M  V30 55 1 23 51
M  V30 56 1 24 52
M  V30 57 1 27 53
M  V30 58 1 28 54
M  V30 59 1 28 55
M  V30 60 1 29 56
M  V30 61 1 30 57
M  V30 62 1 30 58
M  V30 63 1 31 59
M  V30 64 1 31 60
M  V30 65 1 34 61
M  V30 66 1 34 62
M  V30 67 1 35 63
M  V30 68 1 35 64
M  V30 END BOND
M  V30 END CTAB
M  END
>  <Dataset>  (399) 
ChEMBL_Kinases

>  <Ligand_Instance>  (399) 
nan

>  <PDB_ID>  (399) 
nan

>  <Standardized_SMILES>  (399) 
CN1CCC(c2nc(-c3ccc(F)c(NS(C)(=O)=O)c3)c(-c3ccnc(NCC4CC4)n3)s2)CC1

>  <Name>  (399) 
nan

>  <Pocket>  (399) 
nan

>  <ATP_Site>  (399) 
nan

>  <Peripheral>  (399) 
nan

>  <Num_H_Atoms_ProtBoundConf>  (399) 
nan

>  <Num_Resolved_Atoms>  (399) 
nan

>  <Num_Not_Resolved_Atoms>  (399) 
nan

$$$$
CHEMBL4286821
     RDKit          3D

  0  0  0  0  0  0  0  0  0  0999 V3000
M  V30 BEGIN CTAB
M  V30 COUNTS 40 43 0 0 0
M  V30 BEGIN ATOM
M  V30 1 O -0.315171 -2.347137 3.499265 0
M  V30 2 C -0.275155 -3.530837 3.061314 0
M  V30 3 N 0.593754 -3.714650 1.959015 0
M  V30 4 C 1.208181 -2.439817 1.642422 0
M  V30 5 C 2.396241 -2.177404 2.295485 0
M  V30 6 N 2.958514 -0.992367 1.995059 0
M  V30 7 C 2.419806 -0.116336 1.127255 0
M  V30 8 C 1.250867 -0.440751 0.522764 0
M  V30 9 C 0.575914 0.517886 -0.484428 0
M  V30 10 C 1.076255 1.685831 -0.816239 0
M  V30 11 C 0.436047 2.492616 -1.712618 0
M  V30 12 C 0.790259 3.810282 -2.228683 0
M  V30 13 C 0.462416 4.228422 -3.479169 0
M  V30 14 C 0.860379 5.500190 -3.838140 0
M  V30 15 C 1.564932 6.338349 -2.982797 0
M  V30 16 N 1.856149 5.866386 -1.766000 0
M  V30 17 C 1.490025 4.635771 -1.371806 0
M  V30 18 C -0.826555 1.896315 -2.224755 0
M  V30 19 S -0.890563 0.245678 -1.320575 0
M  V30 20 C 0.581881 -1.602937 0.737843 0
M  V30 21 C -1.087973 -4.549871 3.700150 0
M  V30 22 C -1.860553 -4.131396 4.764967 0
M  V30 23 C -2.640976 -5.118883 5.375506 0
M  V30 24 N -2.671155 -6.410241 4.985785 0
M  V30 25 C -1.883093 -6.743383 3.930536 0
M  V30 26 C -1.072333 -5.854139 3.251220 0
M  V30 27 H 0.651739 -4.697813 1.565551 0
M  V30 28 H 2.819577 -2.891252 2.992052 0
M  V30 29 H 2.903206 0.826859 0.912374 0
M  V30 30 H 2.005322 2.083644 -0.415733 0
M  V30 31 H -0.084959 3.576028 -4.142364 0
M  V30 32 H 0.625383 5.887165 -4.826600 0
M  V30 33 H 1.864943 7.332141 -3.290333 0
M  V30 34 H 1.772844 4.342831 -0.364466 0
M  V30 35 H -1.512081 2.421202 -2.989918 0
M  V30 36 H -0.351656 -1.915501 0.285756 0
M  V30 37 H -1.886016 -3.119005 5.129456 0
M  V30 38 H -3.255318 -4.795135 6.219275 0
M  V30 39 H -1.882615 -7.770367 3.591260 0
M  V30 40 H -0.464981 -6.176822 2.416138 0
M  V30 END ATOM
M  V30 BEGIN BOND
M  V30 1 2 1 2
M  V30 2 1 2 3
M  V30 3 1 3 4
M  V30 4 2 4 5
M  V30 5 1 5 6
M  V30 6 2 6 7
M  V30 7 1 7 8
M  V30 8 1 8 9
M  V30 9 2 9 10
M  V30 10 1 10 11
M  V30 11 1 11 12
M  V30 12 2 12 13
M  V30 13 1 13 14
M  V30 14 2 14 15
M  V30 15 1 15 16
M  V30 16 2 16 17
M  V30 17 2 11 18
M  V30 18 1 18 19
M  V30 19 2 8 20
M  V30 20 1 2 21
M  V30 21 2 21 22
M  V30 22 1 22 23
M  V30 23 2 23 24
M  V30 24 1 24 25
M  V30 25 2 25 26
M  V30 26 1 20 4
M  V30 27 1 26 21
M  V30 28 1 19 9
M  V30 29 1 17 12
M  V30 30 1 3 27
M  V30 31 1 5 28
M  V30 32 1 7 29
M  V30 33 1 10 30
M  V30 34 1 13 31
M  V30 35 1 14 32
M  V30 36 1 15 33
M  V30 37 1 17 34
M  V30 38 1 18 35
M  V30 39 1 20 36
M  V30 40 1 22 37
M  V30 41 1 23 38
M  V30 42 1 25 39
M  V30 43 1 26 40
M  V30 END BOND
M  V30 END CTAB
M  END
>  <Dataset>  (400) 
ChEMBL_Kinases

>  <Ligand_Instance>  (400) 
nan

>  <PDB_ID>  (400) 
nan

>  <Standardized_SMILES>  (400) 
O=C(Nc1cncc(-c2cc(-c3cccnc3)cs2)c1)c1ccncc1

>  <Name>  (400) 
nan

>  <Pocket>  (400) 
nan

>  <ATP_Site>  (400) 
nan

>  <Peripheral>  (400) 
nan

>  <Num_H_Atoms_ProtBoundConf>  (400) 
nan

>  <Num_Resolved_Atoms>  (400) 
nan

>  <Num_Not_Resolved_Atoms>  (400) 
nan

$$$$
CHEMBL4757918
     RDKit          3D

  0  0  0  0  0  0  0  0  0  0999 V3000
M  V30 BEGIN CTAB
M  V30 COUNTS 59 63 0 0 0
M  V30 BEGIN ATOM
M  V30 1 C 5.747276 -2.301642 0.931968 0
M  V30 2 C 4.322453 -2.869635 1.036738 0
M  V30 3 C 4.516887 -4.389088 1.102408 0
M  V30 4 N 3.566745 -2.551363 -0.150552 0
M  V30 5 C 2.374352 -1.776145 -0.075064 0
M  V30 6 C 2.222830 -0.871198 0.943639 0
M  V30 7 C 1.069625 -0.118786 1.015956 0
M  V30 8 N 0.778784 0.833511 2.031076 0
M  V30 9 C -0.318219 1.731412 2.080443 0
M  V30 10 N -0.077934 3.059655 1.852428 0
M  V30 11 C -1.097516 3.942713 1.884711 0
M  V30 12 C -2.390936 3.556502 2.141788 0
M  V30 13 F -3.306343 4.564313 2.140715 0
M  V30 14 C -2.623260 2.198463 2.371225 0
M  V30 15 C -4.030713 1.901206 2.608078 0
M  V30 16 C -4.743873 2.478918 3.637524 0
M  V30 17 N -6.062680 2.187529 3.849800 0
M  V30 18 C -6.710489 1.307715 3.038067 0
M  V30 19 C -6.069762 0.684848 1.983317 0
M  V30 20 C -6.698662 -0.206612 1.139420 0
M  V30 21 C -6.019315 -0.815158 0.076755 0
M  V30 22 C -4.675329 -0.512990 -0.131689 0
M  V30 23 C -4.106815 0.385353 0.746118 0
M  V30 24 C -4.719180 1.013565 1.803212 0
M  V30 25 N -1.574812 1.364831 2.328363 0
M  V30 26 C 0.129713 -0.339111 0.031526 0
M  V30 27 C 0.241220 -1.245800 -1.017628 0
M  V30 28 C 1.404205 -1.981281 -1.060551 0
M  V30 29 N 1.584554 -2.915611 -2.093633 0
M  V30 30 C 0.543388 -3.101455 -3.093397 0
M  V30 31 C 2.817504 -3.663605 -2.104931 0
M  V30 32 O 2.786322 -4.813194 -2.664529 0
M  V30 33 C 3.995406 -3.006880 -1.458538 0 CFG=1
M  V30 34 C 4.317761 -1.801703 -2.308428 0
M  V30 35 H 5.771962 -1.334554 0.393711 0
M  V30 36 H 6.423310 -3.052100 0.466742 0
M  V30 37 H 6.139552 -2.081718 1.947871 0
M  V30 38 H 3.913683 -2.495410 1.970776 0
M  V30 39 H 3.597107 -4.935250 0.884212 0
M  V30 40 H 4.969637 -4.676239 2.075531 0
M  V30 41 H 5.263156 -4.650909 0.326308 0
M  V30 42 H 2.978987 -0.740270 1.675518 0
M  V30 43 H 1.468458 0.844738 2.803345 0
M  V30 44 H -0.809692 4.965744 1.694795 0
M  V30 45 H -4.260628 3.192189 4.317860 0
M  V30 46 H -7.775281 1.084851 3.226493 0
M  V30 47 H -7.744170 -0.448434 1.292549 0
M  V30 48 H -6.463726 -1.512571 -0.603693 0
M  V30 49 H -4.080973 -0.938000 -0.925447 0
M  V30 50 H -3.067076 0.629295 0.600441 0
M  V30 51 H -0.782026 0.238215 0.056328 0
M  V30 52 H -0.557716 -1.342171 -1.736849 0
M  V30 53 H -0.328644 -3.612165 -2.608494 0
M  V30 54 H 0.879564 -3.743198 -3.928102 0
M  V30 55 H 0.197724 -2.133757 -3.456694 0
M  V30 56 H 4.784645 -3.746203 -1.426963 0
M  V30 57 H 4.847404 -2.098426 -3.231061 0
M  V30 58 H 4.779117 -0.966309 -1.760002 0
M  V30 59 H 3.331306 -1.391562 -2.661965 0
M  V30 END ATOM
M  V30 BEGIN BOND
M  V30 1 1 1 2
M  V30 2 1 2 3
M  V30 3 1 2 4
M  V30 4 1 4 5
M  V30 5 2 5 6
M  V30 6 1 6 7
M  V30 7 1 7 8
M  V30 8 1 8 9
M  V30 9 2 9 10
M  V30 10 1 10 11
M  V30 11 2 11 12
M  V30 12 1 12 13
M  V30 13 1 12 14
M  V30 14 1 14 15
M  V30 15 2 15 16
M  V30 16 1 16 17
M  V30 17 2 17 18
M  V30 18 1 18 19
M  V30 19 2 19 20
M  V30 20 1 20 21
M  V30 21 2 21 22
M  V30 22 1 22 23
M  V30 23 2 23 24
M  V30 24 2 14 25
M  V30 25 2 7 26
M  V30 26 1 26 27
M  V30 27 2 27 28
M  V30 28 1 28 29
M  V30 29 1 29 30
M  V30 30 1 29 31
M  V30 31 2 31 32
M  V30 32 1 31 33
M  V30 33 1 33 34
M  V30 34 1 33 4
M  V30 35 1 28 5
M  V30 36 1 25 9
M  V30 37 1 24 15
M  V30 38 1 24 19
M  V30 39 1 1 35
M  V30 40 1 1 36
M  V30 41 1 1 37
M  V30 42 1 2 38
M  V30 43 1 3 39
M  V30 44 1 3 40
M  V30 45 1 3 41
M  V30 46 1 6 42
M  V30 47 1 8 43
M  V30 48 1 11 44
M  V30 49 1 16 45
M  V30 50 1 18 46
M  V30 51 1 20 47
M  V30 52 1 21 48
M  V30 53 1 22 49
M  V30 54 1 23 50
M  V30 55 1 26 51
M  V30 56 1 27 52
M  V30 57 1 30 53
M  V30 58 1 30 54
M  V30 59 1 30 55
M  V30 60 1 33 56 CFG=1
M  V30 61 1 34 57
M  V30 62 1 34 58
M  V30 63 1 34 59
M  V30 END BOND
M  V30 END CTAB
M  END
>  <Dataset>  (401) 
ChEMBL_Kinases

>  <Ligand_Instance>  (401) 
nan

>  <PDB_ID>  (401) 
nan

>  <Standardized_SMILES>  (401) 
CC(C)N1c2cc(Nc3ncc(F)c(-c4cncc5ccccc45)n3)ccc2N(C)C(=O)[C@H]1C

>  <Name>  (401) 
nan

>  <Pocket>  (401) 
nan

>  <ATP_Site>  (401) 
nan

>  <Peripheral>  (401) 
nan

>  <Num_H_Atoms_ProtBoundConf>  (401) 
nan

>  <Num_Resolved_Atoms>  (401) 
nan

>  <Num_Not_Resolved_Atoms>  (401) 
nan

$$$$
CHEMBL4286803
     RDKit          3D

  0  0  0  0  0  0  0  0  0  0999 V3000
M  V30 BEGIN CTAB
M  V30 COUNTS 41 44 0 0 0
M  V30 BEGIN ATOM
M  V30 1 O 0.886087 -1.935726 3.815030 0
M  V30 2 C -0.009009 -2.646961 3.286627 0
M  V30 3 N 0.227922 -3.195968 1.995885 0
M  V30 4 C 1.488134 -2.884060 1.400698 0
M  V30 5 C 2.660626 -3.600680 1.521300 0
M  V30 6 N 3.773542 -3.176951 0.896549 0
M  V30 7 C 3.801796 -2.050060 0.133218 0
M  V30 8 C 2.644533 -1.313478 -0.005482 0
M  V30 9 C 2.724799 -0.102149 -0.842209 0
M  V30 10 C 1.728765 0.790381 -1.137355 0
M  V30 11 C 2.044092 1.852722 -1.946659 0
M  V30 12 C 1.075438 2.876933 -2.338618 0
M  V30 13 C -0.269234 2.627436 -2.515851 0
M  V30 14 C -1.175346 3.596416 -2.882967 0
M  V30 15 C -0.733240 4.881403 -3.086748 0
M  V30 16 N 0.577930 5.121601 -2.913281 0
M  V30 17 C 1.468514 4.179960 -2.554830 0
M  V30 18 C 3.375435 1.943341 -2.413797 0
M  V30 19 S 4.133877 0.421436 -1.623526 0
M  V30 20 C 1.522377 -1.741764 0.625159 0
M  V30 21 C -1.241823 -2.866261 4.033866 0
M  V30 22 C -1.351438 -2.279766 5.277214 0
M  V30 23 C -2.506078 -2.467138 6.009991 0
M  V30 24 C -3.564743 -3.220494 5.552136 0
M  V30 25 F -4.675943 -3.384813 6.288140 0
M  V30 26 C -3.434120 -3.794368 4.313388 0
M  V30 27 C -2.281761 -3.627374 3.543179 0
M  V30 28 H -0.494781 -3.784726 1.541835 0
M  V30 29 H 2.603555 -4.489476 2.133628 0
M  V30 30 H 4.765790 -1.823904 -0.313364 0
M  V30 31 H 0.745074 0.625235 -0.726167 0
M  V30 32 H -0.588386 1.593935 -2.345125 0
M  V30 33 H -2.233843 3.348444 -3.011049 0
M  V30 34 H -1.425302 5.659797 -3.375863 0
M  V30 35 H 2.533236 4.404198 -2.420007 0
M  V30 36 H 3.791422 2.681464 -3.036189 0
M  V30 37 H 0.622941 -1.126953 0.489181 0
M  V30 38 H -0.566902 -1.667048 5.722616 0
M  V30 39 H -2.642495 -2.021415 7.005051 0
M  V30 40 H -4.229299 -4.408730 3.875519 0
M  V30 41 H -2.219310 -4.090487 2.583958 0
M  V30 END ATOM
M  V30 BEGIN BOND
M  V30 1 2 1 2
M  V30 2 1 2 3
M  V30 3 1 3 4
M  V30 4 2 4 5
M  V30 5 1 5 6
M  V30 6 2 6 7
M  V30 7 1 7 8
M  V30 8 1 8 9
M  V30 9 2 9 10
M  V30 10 1 10 11
M  V30 11 1 11 12
M  V30 12 2 12 13
M  V30 13 1 13 14
M  V30 14 2 14 15
M  V30 15 1 15 16
M  V30 16 2 16 17
M  V30 17 2 11 18
M  V30 18 1 18 19
M  V30 19 2 8 20
M  V30 20 1 2 21
M  V30 21 2 21 22
M  V30 22 1 22 23
M  V30 23 2 23 24
M  V30 24 1 24 25
M  V30 25 1 24 26
M  V30 26 2 26 27
M  V30 27 1 20 4
M  V30 28 1 27 21
M  V30 29 1 19 9
M  V30 30 1 17 12
M  V30 31 1 3 28
M  V30 32 1 5 29
M  V30 33 1 7 30
M  V30 34 1 10 31
M  V30 35 1 13 32
M  V30 36 1 14 33
M  V30 37 1 15 34
M  V30 38 1 17 35
M  V30 39 1 18 36
M  V30 40 1 20 37
M  V30 41 1 22 38
M  V30 42 1 23 39
M  V30 43 1 26 40
M  V30 44 1 27 41
M  V30 END BOND
M  V30 END CTAB
M  END
>  <Dataset>  (402) 
ChEMBL_Kinases

>  <Ligand_Instance>  (402) 
nan

>  <PDB_ID>  (402) 
nan

>  <Standardized_SMILES>  (402) 
O=C(Nc1cncc(-c2cc(-c3cccnc3)cs2)c1)c1ccc(F)cc1

>  <Name>  (402) 
nan

>  <Pocket>  (402) 
nan

>  <ATP_Site>  (402) 
nan

>  <Peripheral>  (402) 
nan

>  <Num_H_Atoms_ProtBoundConf>  (402) 
nan

>  <Num_Resolved_Atoms>  (402) 
nan

>  <Num_Not_Resolved_Atoms>  (402) 
nan

$$$$
CHEMBL4757952
     RDKit          3D

  0  0  0  0  0  0  0  0  0  0999 V3000
M  V30 BEGIN CTAB
M  V30 COUNTS 41 43 0 0 0
M  V30 BEGIN ATOM
M  V30 1 O 0.808068 -2.712803 1.252377 0
M  V30 2 C -0.229390 -3.050558 1.905435 0
M  V30 3 N -1.091798 -1.985947 2.251175 0
M  V30 4 C -0.679856 -0.689923 1.821621 0
M  V30 5 C 0.115975 0.172999 2.557557 0
M  V30 6 C 0.451429 1.425173 2.020703 0
M  V30 7 C 0.008424 1.844061 0.753702 0
M  V30 8 O 0.482204 3.067000 0.522018 0
M  V30 9 C 1.265586 3.696029 -0.362277 0
M  V30 10 C 1.048931 4.440654 -1.530958 0
M  V30 11 C 2.078864 4.988198 -2.263623 0
M  V30 12 C 3.390500 4.829773 -1.880152 0
M  V30 13 C 3.658639 4.104312 -0.735467 0
M  V30 14 C 2.620353 3.560023 -0.008700 0
M  V30 15 C -0.773364 0.921004 0.101117 0
M  V30 16 C -1.204570 1.388858 -1.240556 0
M  V30 17 F -0.048525 1.560936 -1.974724 0
M  V30 18 F -1.929143 2.563737 -1.163790 0
M  V30 19 F -1.921352 0.408567 -1.887427 0
M  V30 20 C -1.137019 -0.320588 0.573366 0
M  V30 21 C -0.424814 -4.459759 2.225605 0
M  V30 22 C -1.542208 -4.852097 2.933194 0
M  V30 23 C -1.778546 -6.173854 3.264365 0
M  V30 24 Cl -3.189692 -6.699232 4.162367 0
M  V30 25 C -0.878520 -7.152193 2.884078 0
M  V30 26 C 0.234468 -6.742809 2.176554 0
M  V30 27 Cl 1.432405 -7.933689 1.654080 0
M  V30 28 C 0.506269 -5.415213 1.823895 0
M  V30 29 O 1.639944 -5.069140 1.113613 0
M  V30 30 H -1.952016 -2.234472 2.788058 0
M  V30 31 H 0.401584 -0.225893 3.497243 0
M  V30 32 H 1.071250 1.945228 2.738798 0
M  V30 33 H -0.018979 4.489352 -1.719656 0
M  V30 34 H 1.759308 5.539103 -3.145223 0
M  V30 35 H 4.105301 5.296417 -2.521920 0
M  V30 36 H 4.699411 4.026437 -0.504777 0
M  V30 37 H 3.013808 3.022181 0.860685 0
M  V30 38 H -1.761675 -0.913921 -0.084440 0
M  V30 39 H -2.298915 -4.184831 3.275677 0
M  V30 40 H -0.953112 -8.226377 3.084872 0
M  V30 41 H 2.573611 -5.342794 1.336615 0
M  V30 END ATOM
M  V30 BEGIN BOND
M  V30 1 2 1 2
M  V30 2 1 2 3
M  V30 3 1 3 4
M  V30 4 2 4 5
M  V30 5 1 5 6
M  V30 6 2 6 7
M  V30 7 1 7 8
M  V30 8 1 8 9
M  V30 9 2 9 10
M  V30 10 1 10 11
M  V30 11 2 11 12
M  V30 12 1 12 13
M  V30 13 2 13 14
M  V30 14 1 7 15
M  V30 15 1 15 16
M  V30 16 1 16 17
M  V30 17 1 16 18
M  V30 18 1 16 19
M  V30 19 2 15 20
M  V30 20 1 2 21
M  V30 21 2 21 22
M  V30 22 1 22 23
M  V30 23 1 23 24
M  V30 24 2 23 25
M  V30 25 1 25 26
M  V30 26 1 26 27
M  V30 27 2 26 28
M  V30 28 1 28 29
M  V30 29 1 20 4
M  V30 30 1 28 21
M  V30 31 1 14 9
M  V30 32 1 3 30
M  V30 33 1 5 31
M  V30 34 1 6 32
M  V30 35 1 10 33
M  V30 36 1 11 34
M  V30 37 1 12 35
M  V30 38 1 13 36
M  V30 39 1 14 37
M  V30 40 1 20 38
M  V30 41 1 22 39
M  V30 42 1 25 40
M  V30 43 1 29 41
M  V30 END BOND
M  V30 END CTAB
M  END
>  <Dataset>  (403) 
ChEMBL_Kinases

>  <Ligand_Instance>  (403) 
nan

>  <PDB_ID>  (403) 
nan

>  <Standardized_SMILES>  (403) 
O=C(Nc1ccc(Oc2ccccc2)c(C(F)(F)F)c1)c1cc(Cl)cc(Cl)c1O

>  <Name>  (403) 
nan

>  <Pocket>  (403) 
nan

>  <ATP_Site>  (403) 
nan

>  <Peripheral>  (403) 
nan

>  <Num_H_Atoms_ProtBoundConf>  (403) 
nan

>  <Num_Resolved_Atoms>  (403) 
nan

>  <Num_Not_Resolved_Atoms>  (403) 
nan

$$$$
CHEMBL4758017
     RDKit          3D

  0  0  0  0  0  0  0  0  0  0999 V3000
M  V30 BEGIN CTAB
M  V30 COUNTS 65 69 0 0 0
M  V30 BEGIN ATOM
M  V30 1 O -3.243934 0.221183 -2.263416 0
M  V30 2 S -3.241050 1.724149 -2.270972 0
M  V30 3 O -4.551608 2.155434 -2.842291 0
M  V30 4 N -1.926268 2.250761 -3.216052 0
M  V30 5 C -0.642550 1.750236 -2.730148 0
M  V30 6 C 0.468989 2.244910 -3.580466 0
M  V30 7 C 1.848911 1.824048 -3.236949 0
M  V30 8 N 2.138870 0.430300 -3.270776 0
M  V30 9 C 1.874600 -0.735644 -2.522586 0
M  V30 10 C 1.224608 -0.791140 -1.316383 0
M  V30 11 C 0.996786 -1.945688 -0.634489 0
M  V30 12 C 0.325464 -2.083210 0.648136 0
M  V30 13 N -0.874467 -1.886109 1.216679 0
M  V30 14 C -0.864132 -2.219921 2.514694 0
M  V30 15 C -2.006613 -2.119458 3.415411 0
M  V30 16 C -1.825474 -2.514375 4.736561 0
M  V30 17 C -2.916416 -2.415429 5.593727 0
M  V30 18 C -4.135732 -1.941587 5.146612 0
M  V30 19 C -4.290739 -1.555839 3.831429 0
M  V30 20 C -3.219718 -1.646117 2.964256 0
M  V30 21 N 0.378928 -2.648692 2.804845 0
M  V30 22 C 1.142476 -2.578523 1.675080 0
M  V30 23 C 2.548481 -2.998423 1.737219 0
M  V30 24 C 2.680414 -4.347373 2.078736 0
M  V30 25 C 3.903191 -4.968161 2.199410 0
M  V30 26 C 5.047137 -4.228967 1.973813 0
M  V30 27 C 4.914694 -2.895787 1.636219 0
M  V30 28 O 6.040152 -2.136857 1.405469 0
M  V30 29 C 3.694374 -2.263963 1.512750 0
M  V30 30 C 1.460784 -3.100453 -1.224894 0
M  V30 31 C 2.111171 -3.091256 -2.421888 0
M  V30 32 N 2.289470 -1.909409 -3.017819 0
M  V30 33 C -3.155246 2.286870 -0.603761 0
M  V30 34 C -2.523188 1.692687 0.461738 0
M  V30 35 C -2.565295 2.278174 1.707359 0
M  V30 36 C -3.229280 3.461915 1.937505 0
M  V30 37 Cl -3.271130 4.186746 3.527536 0
M  V30 38 C -3.877193 4.091359 0.893545 0
M  V30 39 C -3.811603 3.474653 -0.334536 0
M  V30 40 H -1.924440 3.298752 -3.225170 0
M  V30 41 H -0.705363 0.647954 -2.858771 0
M  V30 42 H -0.544739 2.066900 -1.684514 0
M  V30 43 H 0.453774 3.373237 -3.491525 0
M  V30 44 H 0.300365 2.036268 -4.661936 0
M  V30 45 H 2.536236 2.457285 -3.867451 0
M  V30 46 H 2.132306 2.174152 -2.186974 0
M  V30 47 H 2.735157 0.287926 -4.148905 0
M  V30 48 H 0.874643 0.126082 -0.880782 0
M  V30 49 H -1.614864 -1.519679 0.589060 0
M  V30 50 H -0.881339 -2.894403 5.134976 0
M  V30 51 H -2.804214 -2.716406 6.633016 0
M  V30 52 H -5.008778 -1.853486 5.798304 0
M  V30 53 H -5.213448 -1.175008 3.410261 0
M  V30 54 H -3.290134 -1.352059 1.906401 0
M  V30 55 H 1.858715 -5.036585 2.281975 0
M  V30 56 H 4.051406 -5.998664 2.459133 0
M  V30 57 H 6.063130 -4.637261 2.045881 0
M  V30 58 H 6.889832 -2.215174 1.949648 0
M  V30 59 H 3.501069 -1.250981 1.259540 0
M  V30 60 H 1.316759 -4.054369 -0.744542 0
M  V30 61 H 2.484843 -3.985092 -2.904009 0
M  V30 62 H -2.028046 0.777928 0.204299 0
M  V30 63 H -2.046346 1.759493 2.509220 0
M  V30 64 H -4.392366 5.010586 1.074353 0
M  V30 65 H -4.343084 4.013754 -1.127999 0
M  V30 END ATOM
M  V30 BEGIN BOND
M  V30 1 2 1 2
M  V30 2 2 2 3
M  V30 3 1 2 4
M  V30 4 1 4 5
M  V30 5 1 5 6
M  V30 6 1 6 7
M  V30 7 1 7 8
M  V30 8 1 8 9
M  V30 9 2 9 10
M  V30 10 1 10 11
M  V30 11 1 11 12
M  V30 12 1 12 13
M  V30 13 1 13 14
M  V30 14 1 14 15
M  V30 15 2 15 16
M  V30 16 1 16 17
M  V30 17 2 17 18
M  V30 18 1 18 19
M  V30 19 2 19 20
M  V30 20 2 14 21
M  V30 21 1 21 22
M  V30 22 1 22 23
M  V30 23 2 23 24
M  V30 24 1 24 25
M  V30 25 2 25 26
M  V30 26 1 26 27
M  V30 27 1 27 28
M  V30 28 2 27 29
M  V30 29 2 11 30
M  V30 30 1 30 31
M  V30 31 2 31 32
M  V30 32 1 2 33
M  V30 33 2 33 34
M  V30 34 1 34 35
M  V30 35 2 35 36
M  V30 36 1 36 37
M  V30 37 1 36 38
M  V30 38 2 38 39
M  V30 39 1 32 9
M  V30 40 1 39 33
M  V30 41 2 22 12
M  V30 42 1 29 23
M  V30 43 1 20 15
M  V30 44 1 4 40
M  V30 45 1 5 41
M  V30 46 1 5 42
M  V30 47 1 6 43
M  V30 48 1 6 44
M  V30 49 1 7 45
M  V30 50 1 7 46
M  V30 51 1 8 47
M  V30 52 1 10 48
M  V30 53 1 13 49
M  V30 54 1 16 50
M  V30 55 1 17 51
M  V30 56 1 18 52
M  V30 57 1 19 53
M  V30 58 1 20 54
M  V30 59 1 24 55
M  V30 60 1 25 56
M  V30 61 1 26 57
M  V30 62 1 28 58
M  V30 63 1 29 59
M  V30 64 1 30 60
M  V30 65 1 31 61
M  V30 66 1 34 62
M  V30 67 1 35 63
M  V30 68 1 38 64
M  V30 69 1 39 65
M  V30 END BOND
M  V30 END CTAB
M  END
>  <Dataset>  (404) 
ChEMBL_Kinases

>  <Ligand_Instance>  (404) 
nan

>  <PDB_ID>  (404) 
nan

>  <Standardized_SMILES>  (404) 
O=S(=O)(NCCCNc1cc(-c2[nH]c(-c3ccccc3)nc2-c2cccc(O)c2)ccn1)c1ccc(Cl)cc1

>  <Name>  (404) 
nan

>  <Pocket>  (404) 
nan

>  <ATP_Site>  (404) 
nan

>  <Peripheral>  (404) 
nan

>  <Num_H_Atoms_ProtBoundConf>  (404) 
nan

>  <Num_Resolved_Atoms>  (404) 
nan

>  <Num_Not_Resolved_Atoms>  (404) 
nan

$$$$
CHEMBL4286763
     RDKit          3D

  0  0  0  0  0  0  0  0  0  0999 V3000
M  V30 BEGIN CTAB
M  V30 COUNTS 42 45 0 0 0
M  V30 BEGIN ATOM
M  V30 1 O 2.754576 -6.796373 2.101941 0
M  V30 2 C 2.420731 -5.485203 1.768188 0
M  V30 3 C 2.483048 -4.605240 2.822755 0
M  V30 4 C 2.168812 -3.279704 2.589218 0
M  V30 5 C 1.802981 -2.834833 1.348367 0
M  V30 6 C 1.470022 -1.431796 1.099598 0
M  V30 7 N 1.117941 -0.942428 -0.040636 0
M  V30 8 N 0.870561 0.427290 0.063657 0
M  V30 9 C 0.739550 1.347276 -1.037624 0
M  V30 10 C 0.867481 0.845643 -2.317653 0
M  V30 11 C 0.735415 1.759203 -3.345444 0
M  V30 12 C 0.490115 3.104123 -3.165181 0
M  V30 13 Cl 0.331552 4.219955 -4.511842 0
M  V30 14 C 0.375760 3.523741 -1.850139 0
M  V30 15 C 0.494841 2.674029 -0.769227 0
M  V30 16 C 0.770525 0.751168 1.473291 0
M  V30 17 C -0.678871 0.704364 1.839654 0
M  V30 18 C -1.460183 -0.343511 1.404344 0
M  V30 19 C -2.802654 -0.466478 1.694301 0
M  V30 20 C -3.420187 0.510124 2.466929 0
M  V30 21 Cl -5.122090 0.384421 2.853212 0
M  V30 22 C -2.651786 1.581824 2.920505 0
M  V30 23 C -1.301683 1.659518 2.600453 0
M  V30 24 C 1.493138 -0.369735 2.136551 0
M  V30 25 C 1.754905 -3.759026 0.318366 0
M  V30 26 C 2.061222 -5.097171 0.505424 0
M  V30 27 H 2.973719 -7.411466 1.329552 0
M  V30 28 H 2.752433 -4.804857 3.849380 0
M  V30 29 H 2.192199 -2.515773 3.367603 0
M  V30 30 H 1.060381 -0.205849 -2.495729 0
M  V30 31 H 0.823691 1.439712 -4.386853 0
M  V30 32 H 0.183192 4.575550 -1.684928 0
M  V30 33 H 0.396703 3.055353 0.233301 0
M  V30 34 H 1.201766 1.748170 1.700104 0
M  V30 35 H -1.093909 -1.154663 0.802708 0
M  V30 36 H -3.430325 -1.282216 1.360718 0
M  V30 37 H -3.154264 2.325265 3.517499 0
M  V30 38 H -0.720320 2.495014 2.958888 0
M  V30 39 H 2.522112 -0.111180 2.454324 0
M  V30 40 H 0.885992 -0.711383 3.023011 0
M  V30 41 H 1.473303 -3.473735 -0.687214 0
M  V30 42 H 2.032493 -5.841667 -0.279655 0
M  V30 END ATOM
M  V30 BEGIN BOND
M  V30 1 1 1 2
M  V30 2 2 2 3
M  V30 3 1 3 4
M  V30 4 2 4 5
M  V30 5 1 5 6
M  V30 6 2 6 7
M  V30 7 1 7 8
M  V30 8 1 8 9
M  V30 9 2 9 10
M  V30 10 1 10 11
M  V30 11 2 11 12
M  V30 12 1 12 13
M  V30 13 1 12 14
M  V30 14 2 14 15
M  V30 15 1 8 16
M  V30 16 1 16 17
M  V30 17 2 17 18
M  V30 18 1 18 19
M  V30 19 2 19 20
M  V30 20 1 20 21
M  V30 21 1 20 22
M  V30 22 2 22 23
M  V30 23 1 16 24
M  V30 24 1 5 25
M  V30 25 2 25 26
M  V30 26 1 26 2
M  V30 27 1 24 6
M  V30 28 1 15 9
M  V30 29 1 23 17
M  V30 30 1 1 27
M  V30 31 1 3 28
M  V30 32 1 4 29
M  V30 33 1 10 30
M  V30 34 1 11 31
M  V30 35 1 14 32
M  V30 36 1 15 33
M  V30 37 1 16 34
M  V30 38 1 18 35
M  V30 39 1 19 36
M  V30 40 1 22 37
M  V30 41 1 23 38
M  V30 42 1 24 39
M  V30 43 1 24 40
M  V30 44 1 25 41
M  V30 45 1 26 42
M  V30 END BOND
M  V30 END CTAB
M  END
>  <Dataset>  (405) 
ChEMBL_Kinases

>  <Ligand_Instance>  (405) 
nan

>  <PDB_ID>  (405) 
nan

>  <Standardized_SMILES>  (405) 
Oc1ccc(C2=NN(c3ccc(Cl)cc3)C(c3ccc(Cl)cc3)C2)cc1

>  <Name>  (405) 
nan

>  <Pocket>  (405) 
nan

>  <ATP_Site>  (405) 
nan

>  <Peripheral>  (405) 
nan

>  <Num_H_Atoms_ProtBoundConf>  (405) 
nan

>  <Num_Resolved_Atoms>  (405) 
nan

>  <Num_Not_Resolved_Atoms>  (405) 
nan

$$$$
CHEMBL4286709
     RDKit          3D

  0  0  0  0  0  0  0  0  0  0999 V3000
M  V30 BEGIN CTAB
M  V30 COUNTS 14 14 0 0 0
M  V30 BEGIN ATOM
M  V30 1 N 1.506017 -2.159175 0.155497 0
M  V30 2 C 1.410409 -0.813100 0.605779 0
M  V30 3 C 0.193084 -0.203845 0.408854 0
M  V30 4 C 0.043261 1.099945 0.825430 0
M  V30 5 C 1.150177 1.676162 1.409940 0
M  V30 6 N 2.322818 1.040411 1.582107 0
M  V30 7 C 2.506912 -0.227128 1.190234 0
M  V30 8 O 3.607197 -0.808209 1.357334 0
M  V30 9 H 2.212713 -2.209933 -0.612419 0
M  V30 10 H 1.249504 -3.168250 0.168472 0
M  V30 11 H -0.642262 -0.719229 -0.061164 0
M  V30 12 H -0.900402 1.608335 0.685700 0
M  V30 13 H 1.062411 2.701030 1.747631 0
M  V30 14 H 3.106016 1.582242 2.043797 0
M  V30 END ATOM
M  V30 BEGIN BOND
M  V30 1 1 1 2
M  V30 2 2 2 3
M  V30 3 1 3 4
M  V30 4 2 4 5
M  V30 5 1 5 6
M  V30 6 1 6 7
M  V30 7 2 7 8
M  V30 8 1 7 2
M  V30 9 1 1 9
M  V30 10 1 1 10
M  V30 11 1 3 11
M  V30 12 1 4 12
M  V30 13 1 5 13
M  V30 14 1 6 14
M  V30 END BOND
M  V30 END CTAB
M  END
>  <Dataset>  (406) 
ChEMBL_Kinases

>  <Ligand_Instance>  (406) 
nan

>  <PDB_ID>  (406) 
nan

>  <Standardized_SMILES>  (406) 
Nc1ccc[nH]c1=O

>  <Name>  (406) 
nan

>  <Pocket>  (406) 
nan

>  <ATP_Site>  (406) 
nan

>  <Peripheral>  (406) 
nan

>  <Num_H_Atoms_ProtBoundConf>  (406) 
nan

>  <Num_Resolved_Atoms>  (406) 
nan

>  <Num_Not_Resolved_Atoms>  (406) 
nan

$$$$
CHEMBL4758063
     RDKit          3D

  0  0  0  0  0  0  0  0  0  0999 V3000
M  V30 BEGIN CTAB
M  V30 COUNTS 28 30 0 0 0
M  V30 BEGIN ATOM
M  V30 1 O 0.599076 -5.776072 3.267963 0
M  V30 2 C 0.425201 -4.546296 3.466046 0
M  V30 3 O 0.014812 -4.345876 4.797071 0
M  V30 4 C 0.568134 -3.376528 2.606362 0
M  V30 5 C 0.316772 -2.093710 3.051011 0
M  V30 6 C 0.497676 -1.094464 2.116627 0
M  V30 7 C 0.899954 -1.289218 0.811182 0
M  V30 8 C 1.072063 -0.184561 -0.127048 0
M  V30 9 N 2.124058 -0.017518 -0.976272 0
M  V30 10 N 1.962963 1.095902 -1.691278 0
M  V30 11 C 0.804276 1.690796 -1.333794 0
M  V30 12 C 0.201198 2.849479 -1.777658 0
M  V30 13 C -1.007143 3.218473 -1.218340 0
M  V30 14 F -1.691243 4.351325 -1.587211 0
M  V30 15 C -1.593781 2.437956 -0.234801 0
M  V30 16 C -0.960333 1.268799 0.195894 0
M  V30 17 C 0.238904 0.898287 -0.356022 0
M  V30 18 C 1.145741 -2.584092 0.389341 0
M  V30 19 C 0.973800 -3.613466 1.302867 0
M  V30 20 H -0.600954 -4.999067 5.285043 0
M  V30 21 H 0.003214 -1.917008 4.060641 0
M  V30 22 H 0.298711 -0.079447 2.468752 0
M  V30 23 H 2.626542 1.450603 -2.411932 0
M  V30 24 H 0.632421 3.489079 -2.549492 0
M  V30 25 H -2.555639 2.705467 0.229881 0
M  V30 26 H -1.422346 0.661483 0.965014 0
M  V30 27 H 1.463991 -2.834120 -0.612773 0
M  V30 28 H 1.167536 -4.619194 0.965536 0
M  V30 END ATOM
M  V30 BEGIN BOND
M  V30 1 2 1 2
M  V30 2 1 2 3
M  V30 3 1 2 4
M  V30 4 2 4 5
M  V30 5 1 5 6
M  V30 6 2 6 7
M  V30 7 1 7 8
M  V30 8 2 8 9
M  V30 9 1 9 10
M  V30 10 1 10 11
M  V30 11 2 11 12
M  V30 12 1 12 13
M  V30 13 1 13 14
M  V30 14 2 13 15
M  V30 15 1 15 16
M  V30 16 2 16 17
M  V30 17 1 7 18
M  V30 18 2 18 19
M  V30 19 1 19 4
M  V30 20 1 17 8
M  V30 21 1 17 11
M  V30 22 1 3 20
M  V30 23 1 5 21
M  V30 24 1 6 22
M  V30 25 1 10 23
M  V30 26 1 12 24
M  V30 27 1 15 25
M  V30 28 1 16 26
M  V30 29 1 18 27
M  V30 30 1 19 28
M  V30 END BOND
M  V30 END CTAB
M  END
>  <Dataset>  (407) 
ChEMBL_Kinases

>  <Ligand_Instance>  (407) 
nan

>  <PDB_ID>  (407) 
nan

>  <Standardized_SMILES>  (407) 
O=C(O)c1ccc(-c2n[nH]c3cc(F)ccc23)cc1

>  <Name>  (407) 
nan

>  <Pocket>  (407) 
nan

>  <ATP_Site>  (407) 
nan

>  <Peripheral>  (407) 
nan

>  <Num_H_Atoms_ProtBoundConf>  (407) 
nan

>  <Num_Resolved_Atoms>  (407) 
nan

>  <Num_Not_Resolved_Atoms>  (407) 
nan

$$$$
CHEMBL4758388
     RDKit          3D

  0  0  0  0  0  0  0  0  0  0999 V3000
M  V30 BEGIN CTAB
M  V30 COUNTS 35 37 0 0 0
M  V30 BEGIN ATOM
M  V30 1 C -1.885924 -0.017427 3.959821 0
M  V30 2 C -1.063535 -0.701747 2.911920 0
M  V30 3 C -0.718709 -2.038972 3.055127 0
M  V30 4 C 0.049135 -2.650011 2.061261 0
M  V30 5 C 0.466965 -1.942786 0.943712 0
M  V30 6 C 1.266870 -2.627722 -0.064925 0
M  V30 7 O 1.521657 -3.850609 0.170375 0
M  V30 8 N 1.724469 -1.983051 -1.216122 0
M  V30 9 C 2.515800 -2.709940 -2.186702 0
M  V30 10 C 3.471445 -1.893731 -3.074732 0
M  V30 11 C 2.140832 -2.341766 -3.632090 0
M  V30 12 C 0.096029 -0.621821 0.854847 0
M  V30 13 C -0.659993 0.033761 1.803485 0
M  V30 14 N -0.998947 1.410893 1.627905 0
M  V30 15 C -0.565209 2.441113 2.383561 0
M  V30 16 C -0.948096 3.731876 2.134872 0
M  V30 17 N -1.779186 3.993874 1.112141 0
M  V30 18 C -2.224141 2.979485 0.345021 0
M  V30 19 C -1.836255 1.657982 0.594312 0
M  V30 20 O -2.334409 0.829816 -0.206056 0
M  V30 21 H -1.245393 0.544909 4.690122 0
M  V30 22 H -2.532747 -0.753644 4.506740 0
M  V30 23 H -2.593914 0.711506 3.521807 0
M  V30 24 H -1.034312 -2.612334 3.921023 0
M  V30 25 H 0.286473 -3.682526 2.222005 0
M  V30 26 H 1.519311 -0.980027 -1.415675 0
M  V30 27 H 2.750295 -3.772153 -2.005059 0
M  V30 28 H 4.339127 -2.413428 -3.498161 0
M  V30 29 H 3.589267 -0.810469 -2.809205 0
M  V30 30 H 2.113140 -3.157240 -4.370753 0
M  V30 31 H 1.431253 -1.536384 -3.815924 0
M  V30 32 H 0.398580 -0.048571 0.011732 0
M  V30 33 H 0.110397 2.155814 3.201208 0
M  V30 34 H -0.584191 4.527911 2.755884 0
M  V30 35 H -2.891919 3.255966 -0.464186 0
M  V30 END ATOM
M  V30 BEGIN BOND
M  V30 1 1 1 2
M  V30 2 2 2 3
M  V30 3 1 3 4
M  V30 4 2 4 5
M  V30 5 1 5 6
M  V30 6 2 6 7
M  V30 7 1 6 8
M  V30 8 1 8 9
M  V30 9 1 9 10
M  V30 10 1 10 11
M  V30 11 1 5 12
M  V30 12 2 12 13
M  V30 13 1 13 14
M  V30 14 1 14 15
M  V30 15 2 15 16
M  V30 16 1 16 17
M  V30 17 2 17 18
M  V30 18 1 18 19
M  V30 19 2 19 20
M  V30 20 1 13 2
M  V30 21 1 19 14
M  V30 22 1 11 9
M  V30 23 1 1 21
M  V30 24 1 1 22
M  V30 25 1 1 23
M  V30 26 1 3 24
M  V30 27 1 4 25
M  V30 28 1 8 26
M  V30 29 1 9 27
M  V30 30 1 10 28
M  V30 31 1 10 29
M  V30 32 1 11 30
M  V30 33 1 11 31
M  V30 34 1 12 32
M  V30 35 1 15 33
M  V30 36 1 16 34
M  V30 37 1 18 35
M  V30 END BOND
M  V30 END CTAB
M  END
>  <Dataset>  (408) 
ChEMBL_Kinases

>  <Ligand_Instance>  (408) 
nan

>  <PDB_ID>  (408) 
nan

>  <Standardized_SMILES>  (408) 
Cc1ccc(C(=O)NC2CC2)cc1-n1ccncc1=O

>  <Name>  (408) 
nan

>  <Pocket>  (408) 
nan

>  <ATP_Site>  (408) 
nan

>  <Peripheral>  (408) 
nan

>  <Num_H_Atoms_ProtBoundConf>  (408) 
nan

>  <Num_Resolved_Atoms>  (408) 
nan

>  <Num_Not_Resolved_Atoms>  (408) 
nan

$$$$
CHEMBL4286601
     RDKit          3D

  0  0  0  0  0  0  0  0  0  0999 V3000
M  V30 BEGIN CTAB
M  V30 COUNTS 69 74 0 0 0
M  V30 BEGIN ATOM
M  V30 1 C 3.118983 -3.414252 4.547533 0
M  V30 2 O 2.089935 -3.277507 3.589002 0
M  V30 3 C 1.605102 -2.001393 3.232367 0
M  V30 4 N 1.937587 -0.796718 3.640050 0
M  V30 5 C 1.555969 0.223593 3.360590 0
M  V30 6 C 1.800079 1.646475 3.702436 0
M  V30 7 C 2.748584 2.011762 4.624032 0
M  V30 8 C 2.890909 3.362714 4.864637 0
M  V30 9 N 2.146496 4.277177 4.236148 0
M  V30 10 C 1.219699 3.946771 3.337726 0
M  V30 11 N 0.423448 4.925907 2.665672 0
M  V30 12 C 0.585376 6.299463 2.926975 0
M  V30 13 O 1.450162 6.641604 3.768272 0
M  V30 14 C -0.267777 7.268962 2.200635 0
M  V30 15 C -1.651791 6.908215 1.808309 0
M  V30 16 C -0.581957 6.987693 0.740706 0
M  V30 17 C 1.044716 2.608113 3.067363 0
M  V30 18 S 0.259165 -0.292651 2.098497 0
M  V30 19 C 0.647655 -2.051498 2.326523 0
M  V30 20 C -0.175635 -2.935220 1.481834 0
M  V30 21 O -1.034944 -2.450790 0.710302 0
M  V30 22 N -0.145558 -4.335529 1.400633 0
M  V30 23 C -0.638269 -5.529516 0.838360 0
M  V30 24 C -0.496931 -5.745522 -0.621229 0
M  V30 25 N -1.179206 -4.888993 -1.527372 0
M  V30 26 C -1.640194 -3.710125 -2.161507 0
M  V30 27 C -0.804612 -3.211541 -3.167251 0
M  V30 28 C -1.141802 -2.045182 -3.865162 0
M  V30 29 N -2.264217 -1.463908 -3.524602 0
M  V30 30 C -3.079271 -1.914153 -2.574088 0
M  V30 31 C -4.257443 -1.256251 -2.262018 0
M  V30 32 C -5.086063 -1.761586 -1.263592 0
M  V30 33 C -4.791824 -2.921984 -0.540013 0
M  V30 34 C -3.614706 -3.563991 -0.863881 0
M  V30 35 C -2.810028 -3.048936 -1.852788 0
M  V30 36 C -0.166284 -1.608904 -4.920287 0
M  V30 37 C 1.243563 -1.650006 -4.402141 0
M  V30 38 C 1.531266 -2.770088 -3.455430 0
M  V30 39 C 0.478170 -3.852016 -3.577571 0
M  V30 40 H 3.655640 -4.363722 4.419081 0
M  V30 41 H 2.654588 -3.333106 5.546509 0
M  V30 42 H 3.797011 -2.535057 4.405898 0
M  V30 43 H 3.272568 1.177426 5.051435 0
M  V30 44 H 3.660935 3.598605 5.608150 0
M  V30 45 H -0.282797 4.624661 1.976833 0
M  V30 46 H -0.088370 8.332708 2.453857 0
M  V30 47 H -2.083345 5.932288 2.091816 0
M  V30 48 H -2.402136 7.721949 1.716161 0
M  V30 49 H -0.288072 5.995729 0.328125 0
M  V30 50 H -0.591529 7.826055 0.007757 0
M  V30 51 H 0.288682 2.350809 2.335445 0
M  V30 52 H 0.626149 -4.579078 2.109422 0
M  V30 53 H -0.218218 -6.417697 1.360569 0
M  V30 54 H -1.761965 -5.651245 1.040398 0
M  V30 55 H 0.601412 -5.847100 -0.897516 0
M  V30 56 H -0.853756 -6.815891 -0.792017 0
M  V30 57 H -1.738729 -5.486696 -2.225221 0
M  V30 58 H -4.550379 -0.342851 -2.787763 0
M  V30 59 H -5.997487 -1.203699 -1.061688 0
M  V30 60 H -5.460774 -3.267966 0.216026 0
M  V30 61 H -3.330470 -4.469153 -0.338463 0
M  V30 62 H -0.301591 -2.318812 -5.765651 0
M  V30 63 H -0.415662 -0.583445 -5.248493 0
M  V30 64 H 1.910027 -1.698164 -5.290176 0
M  V30 65 H 1.420610 -0.686655 -3.876689 0
M  V30 66 H 2.557887 -3.170305 -3.580703 0
M  V30 67 H 1.492003 -2.386057 -2.398215 0
M  V30 68 H 0.727368 -4.755093 -3.027480 0
M  V30 69 H 0.360881 -4.064405 -4.662756 0
M  V30 END ATOM
M  V30 BEGIN BOND
M  V30 1 1 1 2
M  V30 2 1 2 3
M  V30 3 1 3 4
M  V30 4 2 4 5
M  V30 5 1 5 6
M  V30 6 2 6 7
M  V30 7 1 7 8
M  V30 8 2 8 9
M  V30 9 1 9 10
M  V30 10 1 10 11
M  V30 11 1 11 12
M  V30 12 2 12 13
M  V30 13 1 12 14
M  V30 14 1 14 15
M  V30 15 1 15 16
M  V30 16 2 10 17
M  V30 17 1 5 18
M  V30 18 1 18 19
M  V30 19 1 19 20
M  V30 20 2 20 21
M  V30 21 1 20 22
M  V30 22 1 22 23
M  V30 23 1 23 24
M  V30 24 1 24 25
M  V30 25 1 25 26
M  V30 26 2 26 27
M  V30 27 1 27 28
M  V30 28 2 28 29
M  V30 29 1 29 30
M  V30 30 2 30 31
M  V30 31 1 31 32
M  V30 32 2 32 33
M  V30 33 1 33 34
M  V30 34 2 34 35
M  V30 35 1 28 36
M  V30 36 1 36 37
M  V30 37 1 37 38
M  V30 38 1 38 39
M  V30 39 2 19 3
M  V30 40 1 35 26
M  V30 41 1 17 6
M  V30 42 1 39 27
M  V30 43 1 16 14
M  V30 44 1 35 30
M  V30 45 1 1 40
M  V30 46 1 1 41
M  V30 47 1 1 42
M  V30 48 1 7 43
M  V30 49 1 8 44
M  V30 50 1 11 45
M  V30 51 1 14 46
M  V30 52 1 15 47
M  V30 53 1 15 48
M  V30 54 1 16 49
M  V30 55 1 16 50
M  V30 56 1 17 51
M  V30 57 1 22 52
M  V30 58 1 23 53
M  V30 59 1 23 54
M  V30 60 1 24 55
M  V30 61 1 24 56
M  V30 62 1 25 57
M  V30 63 1 31 58
M  V30 64 1 32 59
M  V30 65 1 33 60
M  V30 66 1 34 61
M  V30 67 1 36 62
M  V30 68 1 36 63
M  V30 69 1 37 64
M  V30 70 1 37 65
M  V30 71 1 38 66
M  V30 72 1 38 67
M  V30 73 1 39 68
M  V30 74 1 39 69
M  V30 END BOND
M  V30 END CTAB
M  END
>  <Dataset>  (409) 
ChEMBL_Kinases

>  <Ligand_Instance>  (409) 
nan

>  <PDB_ID>  (409) 
nan

>  <Standardized_SMILES>  (409) 
COc1nc(-c2ccnc(NC(=O)C3CC3)c2)sc1C(=O)NCCNc1c2c(nc3ccccc13)CCCC2

>  <Name>  (409) 
nan

>  <Pocket>  (409) 
nan

>  <ATP_Site>  (409) 
nan

>  <Peripheral>  (409) 
nan

>  <Num_H_Atoms_ProtBoundConf>  (409) 
nan

>  <Num_Resolved_Atoms>  (409) 
nan

>  <Num_Not_Resolved_Atoms>  (409) 
nan

$$$$
CHEMBL4758072
     RDKit          3D

  0  0  0  0  0  0  0  0  0  0999 V3000
M  V30 BEGIN CTAB
M  V30 COUNTS 53 57 0 0 0
M  V30 BEGIN ATOM
M  V30 1 C 3.869875 -1.701294 7.589098 0
M  V30 2 C 3.775542 -1.267274 6.180047 0
M  V30 3 C 4.853820 -1.403981 5.331254 0
M  V30 4 C 4.762414 -0.997838 4.016760 0
M  V30 5 C 3.578529 -0.442639 3.525501 0
M  V30 6 N 3.453449 -0.015156 2.175560 0
M  V30 7 C 3.012431 -0.636229 1.067953 0
M  V30 8 C 3.071101 0.192299 -0.061719 0
M  V30 9 C 2.604506 -0.436941 -1.321762 0
M  V30 10 O 1.245740 -0.323879 -1.575686 0
M  V30 11 C 0.498829 0.792731 -1.752397 0
M  V30 12 C 0.934147 2.100312 -1.727072 0
M  V30 13 C 0.142420 3.218738 -1.912768 0
M  V30 14 C -1.199920 3.000724 -2.143424 0
M  V30 15 C -1.665743 1.701354 -2.174724 0
M  V30 16 C -3.008480 1.503451 -2.406181 0
M  V30 17 N -3.413579 0.237864 -2.427862 0
M  V30 18 C -2.658781 -0.851348 -2.249760 0
M  V30 19 N -3.149077 -2.182954 -2.283584 0
M  V30 20 C -4.470530 -2.644152 -2.505159 0
M  V30 21 C -5.563069 -1.853854 -2.751398 0
M  V30 22 C -6.851952 -2.285772 -2.967358 0
M  V30 23 C -7.087605 -3.641237 -2.937016 0
M  V30 24 C -6.029061 -4.488765 -2.694050 0
M  V30 25 Cl -6.292075 -6.217803 -2.648323 0
M  V30 26 C -4.764555 -3.989599 -2.486303 0
M  V30 27 N -1.351422 -0.668012 -2.024146 0
M  V30 28 C -0.863552 0.578600 -1.986959 0
M  V30 29 N 3.571099 1.319585 0.470624 0
M  V30 30 N 3.791623 1.196603 1.766638 0
M  V30 31 C 2.468808 -0.288379 4.351745 0
M  V30 32 C 2.621996 -0.717209 5.669518 0
M  V30 33 N 1.462529 -0.539655 6.473735 0 CHG=1 VAL=4
M  V30 34 O 0.885147 -1.076577 7.438428 0
M  V30 35 O 0.596567 0.517108 6.239443 0 CHG=-1 VAL=1
M  V30 36 H 4.154948 -0.866250 8.263045 0
M  V30 37 H 2.904710 -2.106946 7.994054 0
M  V30 38 H 4.683194 -2.467317 7.719534 0
M  V30 39 H 5.801543 -1.835300 5.677414 0
M  V30 40 H 5.536453 -1.063771 3.292612 0
M  V30 41 H 2.681809 -1.678144 1.222823 0
M  V30 42 H 3.142185 0.120623 -2.150705 0
M  V30 43 H 2.959990 -1.477725 -1.431116 0
M  V30 44 H 1.976660 2.287768 -1.555104 0
M  V30 45 H 0.561107 4.215288 -1.877033 0
M  V30 46 H -1.893627 3.830421 -2.300012 0
M  V30 47 H -3.685048 2.327680 -2.560077 0
M  V30 48 H -2.440849 -2.962361 -2.121940 0
M  V30 49 H -5.458007 -0.781337 -2.790724 0
M  V30 50 H -7.675623 -1.621017 -3.156980 0
M  V30 51 H -8.077785 -4.039945 -3.099343 0
M  V30 52 H -3.965595 -4.724440 -2.297699 0
M  V30 53 H 1.548832 0.139972 3.980202 0
M  V30 END ATOM
M  V30 BEGIN BOND
M  V30 1 1 1 2
M  V30 2 2 2 3
M  V30 3 1 3 4
M  V30 4 2 4 5
M  V30 5 1 5 6
M  V30 6 1 6 7
M  V30 7 2 7 8
M  V30 8 1 8 9
M  V30 9 1 9 10
M  V30 10 1 10 11
M  V30 11 2 11 12
M  V30 12 1 12 13
M  V30 13 2 13 14
M  V30 14 1 14 15
M  V30 15 2 15 16
M  V30 16 1 16 17
M  V30 17 2 17 18
M  V30 18 1 18 19
M  V30 19 1 19 20
M  V30 20 2 20 21
M  V30 21 1 21 22
M  V30 22 2 22 23
M  V30 23 1 23 24
M  V30 24 1 24 25
M  V30 25 2 24 26
M  V30 26 1 18 27
M  V30 27 2 27 28
M  V30 28 1 8 29
M  V30 29 2 29 30
M  V30 30 1 5 31
M  V30 31 2 31 32
M  V30 32 1 32 33
M  V30 33 2 33 34
M  V30 34 1 33 35
M  V30 35 1 32 2
M  V30 36 1 30 6
M  V30 37 1 28 11
M  V30 38 1 28 15
M  V30 39 1 26 20
M  V30 40 1 1 36
M  V30 41 1 1 37
M  V30 42 1 1 38
M  V30 43 1 3 39
M  V30 44 1 4 40
M  V30 45 1 7 41
M  V30 46 1 9 42
M  V30 47 1 9 43
M  V30 48 1 12 44
M  V30 49 1 13 45
M  V30 50 1 14 46
M  V30 51 1 16 47
M  V30 52 1 19 48
M  V30 53 1 21 49
M  V30 54 1 22 50
M  V30 55 1 23 51
M  V30 56 1 26 52
M  V30 57 1 31 53
M  V30 END BOND
M  V30 END CTAB
M  END
>  <Dataset>  (410) 
ChEMBL_Kinases

>  <Ligand_Instance>  (410) 
nan

>  <PDB_ID>  (410) 
nan

>  <Standardized_SMILES>  (410) 
Cc1ccc(-n2cc(COc3cccc4cnc(Nc5cccc(Cl)c5)nc34)nn2)cc1[N+](=O)[O-]

>  <Name>  (410) 
nan

>  <Pocket>  (410) 
nan

>  <ATP_Site>  (410) 
nan

>  <Peripheral>  (410) 
nan

>  <Num_H_Atoms_ProtBoundConf>  (410) 
nan

>  <Num_Resolved_Atoms>  (410) 
nan

>  <Num_Not_Resolved_Atoms>  (410) 
nan

$$$$
CHEMBL4286561
     RDKit          3D

  0  0  0  0  0  0  0  0  0  0999 V3000
M  V30 BEGIN CTAB
M  V30 COUNTS 38 40 0 0 0
M  V30 BEGIN ATOM
M  V30 1 C 1.227342 -2.172074 4.059728 0
M  V30 2 C 0.807817 -3.420555 3.380896 0
M  V30 3 N 0.620198 -4.650469 3.928972 0
M  V30 4 N 0.245175 -5.499130 2.983052 0
M  V30 5 C 0.173842 -4.857946 1.785283 0
M  V30 6 N -0.188936 -5.394089 0.509055 0
M  V30 7 C 0.527877 -3.539971 2.022872 0
M  V30 8 C 0.602723 -2.456370 1.052289 0
M  V30 9 C 1.727302 -2.122812 0.324159 0
M  V30 10 C 1.685294 -1.053759 -0.587970 0
M  V30 11 C 0.516881 -0.289963 -0.795820 0
M  V30 12 O 0.853445 0.620155 -1.718221 0
M  V30 13 C 0.080067 1.618058 -2.270037 0
M  V30 14 C -0.395357 2.598097 -1.271232 0
M  V30 15 C -1.562422 2.756444 -0.562997 0
M  V30 16 C -1.729765 3.778682 0.342389 0
M  V30 17 C -0.750306 4.711585 0.604398 0
M  V30 18 C 0.430993 4.575962 -0.093418 0
M  V30 19 C 0.594162 3.550307 -0.999118 0
M  V30 20 C -0.545706 -0.699560 -0.026336 0
M  V30 21 C -0.557663 -1.733730 0.876770 0
M  V30 22 H 2.074471 -1.678747 3.557045 0
M  V30 23 H 1.561830 -2.455988 5.089422 0
M  V30 24 H 0.347950 -1.509344 4.179483 0
M  V30 25 H 0.757909 -4.871490 4.951815 0
M  V30 26 H -1.118050 -5.340227 -0.003543 0
M  V30 27 H 0.528365 -5.922448 -0.035322 0
M  V30 28 H 2.556606 -2.770797 0.563645 0
M  V30 29 H 2.692291 -0.996790 -1.030051 0
M  V30 30 H 0.677063 2.121677 -3.078875 0
M  V30 31 H -0.805186 1.109864 -2.760397 0
M  V30 32 H -2.282499 1.996987 -0.829847 0
M  V30 33 H -2.710762 3.755373 0.812553 0
M  V30 34 H -1.028780 5.445005 1.332953 0
M  V30 35 H 1.177184 5.323797 0.135721 0
M  V30 36 H 1.588334 3.593708 -1.459806 0
M  V30 37 H -1.388337 -0.080848 -0.247338 0
M  V30 38 H -1.516633 -1.859724 1.360007 0
M  V30 END ATOM
M  V30 BEGIN BOND
M  V30 1 1 1 2
M  V30 2 1 2 3
M  V30 3 1 3 4
M  V30 4 2 4 5
M  V30 5 1 5 6
M  V30 6 1 5 7
M  V30 7 1 7 8
M  V30 8 2 8 9
M  V30 9 1 9 10
M  V30 10 2 10 11
M  V30 11 1 11 12
M  V30 12 1 12 13
M  V30 13 1 13 14
M  V30 14 2 14 15
M  V30 15 1 15 16
M  V30 16 2 16 17
M  V30 17 1 17 18
M  V30 18 2 18 19
M  V30 19 1 11 20
M  V30 20 2 20 21
M  V30 21 2 7 2
M  V30 22 1 21 8
M  V30 23 1 19 14
M  V30 24 1 1 22
M  V30 25 1 1 23
M  V30 26 1 1 24
M  V30 27 1 3 25
M  V30 28 1 6 26
M  V30 29 1 6 27
M  V30 30 1 9 28
M  V30 31 1 10 29
M  V30 32 1 13 30
M  V30 33 1 13 31
M  V30 34 1 15 32
M  V30 35 1 16 33
M  V30 36 1 17 34
M  V30 37 1 18 35
M  V30 38 1 19 36
M  V30 39 1 20 37
M  V30 40 1 21 38
M  V30 END BOND
M  V30 END CTAB
M  END
>  <Dataset>  (411) 
ChEMBL_Kinases

>  <Ligand_Instance>  (411) 
nan

>  <PDB_ID>  (411) 
nan

>  <Standardized_SMILES>  (411) 
Cc1[nH]nc(N)c1-c1ccc(OCc2ccccc2)cc1

>  <Name>  (411) 
nan

>  <Pocket>  (411) 
nan

>  <ATP_Site>  (411) 
nan

>  <Peripheral>  (411) 
nan

>  <Num_H_Atoms_ProtBoundConf>  (411) 
nan

>  <Num_Resolved_Atoms>  (411) 
nan

>  <Num_Not_Resolved_Atoms>  (411) 
nan

$$$$
CHEMBL4286550
     RDKit          3D

  0  0  0  0  0  0  0  0  0  0999 V3000
M  V30 BEGIN CTAB
M  V30 COUNTS 52 56 0 0 0
M  V30 BEGIN ATOM
M  V30 1 C -0.032793 -4.981977 1.624690 0
M  V30 2 N 1.064671 -5.481140 0.852759 0
M  V30 3 C 0.900043 -5.315382 -0.562808 0
M  V30 4 C 1.703370 -4.142669 -1.034294 0
M  V30 5 N 1.937441 -3.183466 0.036146 0
M  V30 6 C 1.489176 -1.847054 0.324284 0
M  V30 7 C 2.384701 -0.836492 0.682764 0
M  V30 8 C 1.841881 0.397419 0.970785 0
M  V30 9 C 0.504929 0.704775 0.931565 0
M  V30 10 C -0.081468 1.916435 1.213856 0
M  V30 11 N 0.852539 2.871271 1.587819 0
M  V30 12 C 1.842439 3.554008 0.875171 0
M  V30 13 C 2.271582 3.541383 -0.425440 0
M  V30 14 C 3.322148 4.430289 -0.589500 0
M  V30 15 N 3.499656 4.959219 0.624978 0
M  V30 16 N 2.650422 4.466162 1.492200 0
M  V30 17 N -1.423314 2.033987 1.129974 0
M  V30 18 C -2.231736 1.009585 0.779437 0
M  V30 19 C -3.683074 1.063614 0.697363 0
M  V30 20 C -4.464123 2.182448 0.906690 0
M  V30 21 C -5.834849 2.252490 0.840822 0
M  V30 22 C -6.478978 1.053442 0.525486 0
M  V30 23 C -5.759944 -0.085766 0.304884 0
M  V30 24 C -4.369588 -0.110102 0.383983 0
M  V30 25 N -1.640953 -0.159142 0.506840 0
M  V30 26 C -0.319395 -0.356014 0.565828 0
M  V30 27 C 0.142021 -1.632806 0.259659 0
M  V30 28 C 2.811513 -3.733321 1.068034 0
M  V30 29 C 2.354607 -5.163662 1.370813 0
M  V30 30 H 0.276449 -4.054503 2.118388 0
M  V30 31 H -0.923594 -4.765054 0.993487 0
M  V30 32 H -0.293450 -5.774147 2.380661 0
M  V30 33 H 1.216981 -6.207425 -1.154346 0
M  V30 34 H -0.189682 -5.201054 -0.763999 0
M  V30 35 H 1.286859 -3.693533 -1.949227 0
M  V30 36 H 2.716727 -4.548549 -1.321369 0
M  V30 37 H 3.439411 -1.025700 0.726558 0
M  V30 38 H 2.504894 1.212466 1.259144 0
M  V30 39 H 0.670746 3.005627 2.599629 0
M  V30 40 H 1.808014 2.910282 -1.153333 0
M  V30 41 H 3.864599 4.628815 -1.517378 0
M  V30 42 H 4.223959 5.673025 0.840694 0
M  V30 43 H -3.920326 3.092905 1.148520 0
M  V30 44 H -6.416083 3.122709 1.003105 0
M  V30 45 H -7.551270 0.961281 0.441202 0
M  V30 46 H -6.239700 -1.031545 0.062636 0
M  V30 47 H -3.850673 -1.054230 0.197549 0
M  V30 48 H -0.562187 -2.388767 -0.008348 0
M  V30 49 H 3.860525 -3.797407 0.718794 0
M  V30 50 H 2.782908 -3.145374 2.003447 0
M  V30 51 H 2.324849 -5.318736 2.466602 0
M  V30 52 H 3.081459 -5.905162 0.946487 0
M  V30 END ATOM
M  V30 BEGIN BOND
M  V30 1 1 1 2
M  V30 2 1 2 3
M  V30 3 1 3 4
M  V30 4 1 4 5
M  V30 5 1 5 6
M  V30 6 2 6 7
M  V30 7 1 7 8
M  V30 8 2 8 9
M  V30 9 1 9 10
M  V30 10 1 10 11
M  V30 11 1 11 12
M  V30 12 1 12 13
M  V30 13 2 13 14
M  V30 14 1 14 15
M  V30 15 1 15 16
M  V30 16 2 10 17
M  V30 17 1 17 18
M  V30 18 1 18 19
M  V30 19 2 19 20
M  V30 20 1 20 21
M  V30 21 2 21 22
M  V30 22 1 22 23
M  V30 23 2 23 24
M  V30 24 2 18 25
M  V30 25 1 25 26
M  V30 26 2 26 27
M  V30 27 1 5 28
M  V30 28 1 28 29
M  V30 29 1 29 2
M  V30 30 1 27 6
M  V30 31 1 26 9
M  V30 32 2 16 12
M  V30 33 1 24 19
M  V30 34 1 1 30
M  V30 35 1 1 31
M  V30 36 1 1 32
M  V30 37 1 3 33
M  V30 38 1 3 34
M  V30 39 1 4 35
M  V30 40 1 4 36
M  V30 41 1 7 37
M  V30 42 1 8 38
M  V30 43 1 11 39
M  V30 44 1 13 40
M  V30 45 1 14 41
M  V30 46 1 15 42
M  V30 47 1 20 43
M  V30 48 1 21 44
M  V30 49 1 22 45
M  V30 50 1 23 46
M  V30 51 1 24 47
M  V30 52 1 27 48
M  V30 53 1 28 49
M  V30 54 1 28 50
M  V30 55 1 29 51
M  V30 56 1 29 52
M  V30 END BOND
M  V30 END CTAB
M  END
>  <Dataset>  (412) 
ChEMBL_Kinases

>  <Ligand_Instance>  (412) 
nan

>  <PDB_ID>  (412) 
nan

>  <Standardized_SMILES>  (412) 
CN1CCN(c2ccc3c(Nc4cc[nH]n4)nc(-c4ccccc4)nc3c2)CC1

>  <Name>  (412) 
nan

>  <Pocket>  (412) 
nan

>  <ATP_Site>  (412) 
nan

>  <Peripheral>  (412) 
nan

>  <Num_H_Atoms_ProtBoundConf>  (412) 
nan

>  <Num_Resolved_Atoms>  (412) 
nan

>  <Num_Not_Resolved_Atoms>  (412) 
nan

$$$$
CHEMBL4286467
     RDKit          3D

  0  0  0  0  0  0  0  0  0  0999 V3000
M  V30 BEGIN CTAB
M  V30 COUNTS 78 82 0 0 0
M  V30 BEGIN ATOM
M  V30 1 C 5.707795 -2.817491 -3.928653 0
M  V30 2 O 4.899058 -3.381609 -2.911399 0
M  V30 3 C 3.827051 -2.672112 -2.365557 0
M  V30 4 C 3.508610 -1.386139 -2.790923 0
M  V30 5 C 2.436718 -0.667898 -2.250894 0
M  V30 6 N 2.261827 0.565568 -2.747115 0
M  V30 7 C 1.252073 1.273589 -2.231380 0
M  V30 8 O 1.056299 2.421817 -2.665924 0
M  V30 9 C 0.420620 0.780044 -1.239697 0
M  V30 10 C -0.689954 1.476873 -0.594108 0
M  V30 11 O -1.430792 1.009418 0.299661 0
M  V30 12 N -1.122542 2.809854 -0.865882 0
M  V30 13 C -2.233233 2.955557 0.051690 0
M  V30 14 C -3.493071 2.594455 -0.421143 0
M  V30 15 C -4.597045 2.690395 0.378977 0
M  V30 16 C -5.904323 2.309713 -0.122693 0
M  V30 17 O -5.921221 1.921872 -1.331093 0
M  V30 18 N -7.125408 2.313760 0.537530 0
M  V30 19 C -8.451588 1.950543 0.097314 0
M  V30 20 C -8.508747 0.451719 0.060361 0
M  V30 21 C -8.231433 -0.339643 -1.052840 0
M  V30 22 C -8.308419 -1.713069 -0.983464 0
M  V30 23 C -8.664092 -2.318574 0.200321 0
M  V30 24 C -8.943132 -1.536338 1.316469 0
M  V30 25 Cl -9.378822 -2.495997 2.725006 0
M  V30 26 C -8.864178 -0.161754 1.242496 0
M  V30 27 C -4.405807 3.156189 1.661637 0
M  V30 28 C -3.173681 3.537210 2.207533 0
M  V30 29 C -2.121424 3.407630 1.331954 0
M  V30 30 C -0.757550 3.787170 1.798480 0
M  V30 31 C 0.630785 -0.490861 -0.755753 0
M  V30 32 C 1.652520 -1.251700 -1.251651 0
M  V30 33 C 2.004349 -2.519853 -0.865013 0
M  V30 34 C 3.056735 -3.246279 -1.381292 0
M  V30 35 C 3.298187 -4.603010 -0.823869 0
M  V30 36 C 4.495595 -4.592142 0.114607 0
M  V30 37 C 4.234757 -3.611817 1.220963 0
M  V30 38 N 5.334117 -3.533811 2.168999 0
M  V30 39 C 6.510886 -2.971851 1.588064 0
M  V30 40 C 7.537828 -2.393039 2.460639 0
M  V30 41 O 7.262743 -2.644933 3.794935 0
M  V30 42 C 5.993335 -2.065003 4.024747 0
M  V30 43 C 4.921359 -2.925870 3.406431 0
M  V30 44 H 6.283150 -1.966417 -3.474197 0
M  V30 45 H 6.436379 -3.527829 -4.333402 0
M  V30 46 H 5.049254 -2.363797 -4.697235 0
M  V30 47 H 4.125674 -0.935083 -3.573735 0
M  V30 48 H 2.862336 0.973728 -3.488127 0
M  V30 49 H -0.638283 3.386040 -1.581542 0
M  V30 50 H -3.564323 2.234168 -1.452299 0
M  V30 51 H -7.062124 2.639456 1.536123 0
M  V30 52 H -9.225076 2.299459 0.804035 0
M  V30 53 H -8.653111 2.333627 -0.942617 0
M  V30 54 H -7.961889 0.197585 -1.944627 0
M  V30 55 H -8.064429 -2.232394 -1.923379 0
M  V30 56 H -8.703885 -3.417166 0.176155 0
M  V30 57 H -9.107116 0.291268 2.198059 0
M  V30 58 H -5.274264 3.231675 2.289069 0
M  V30 59 H -3.081024 3.893137 3.212661 0
M  V30 60 H -0.544620 4.849972 1.637016 0
M  V30 61 H 0.002935 3.097864 1.368095 0
M  V30 62 H -0.733804 3.605170 2.893289 0
M  V30 63 H 0.014669 -0.951762 0.015466 0
M  V30 64 H 1.382253 -2.964299 -0.089704 0
M  V30 65 H 3.490789 -5.369156 -1.598255 0
M  V30 66 H 2.435034 -4.926498 -0.232464 0
M  V30 67 H 5.381874 -4.413732 -0.484374 0
M  V30 68 H 4.567700 -5.601543 0.560349 0
M  V30 69 H 3.990396 -2.596074 0.910500 0
M  V30 70 H 3.357090 -4.000033 1.787138 0
M  V30 71 H 6.959037 -3.769450 0.931513 0
M  V30 72 H 6.157256 -2.187858 0.861595 0
M  V30 73 H 8.539088 -2.782010 2.158720 0
M  V30 74 H 7.600684 -1.280203 2.274325 0
M  V30 75 H 5.999791 -1.106178 3.452444 0
M  V30 76 H 5.891057 -1.937924 5.099338 0
M  V30 77 H 4.052005 -2.271137 3.193015 0
M  V30 78 H 4.593567 -3.655659 4.170497 0
M  V30 END ATOM
M  V30 BEGIN BOND
M  V30 1 1 1 2
M  V30 2 1 2 3
M  V30 3 2 3 4
M  V30 4 1 4 5
M  V30 5 1 5 6
M  V30 6 1 6 7
M  V30 7 2 7 8
M  V30 8 1 7 9
M  V30 9 1 9 10
M  V30 10 2 10 11
M  V30 11 1 10 12
M  V30 12 1 12 13
M  V30 13 2 13 14
M  V30 14 1 14 15
M  V30 15 1 15 16
M  V30 16 2 16 17
M  V30 17 1 16 18
M  V30 18 1 18 19
M  V30 19 1 19 20
M  V30 20 2 20 21
M  V30 21 1 21 22
M  V30 22 2 22 23
M  V30 23 1 23 24
M  V30 24 1 24 25
M  V30 25 2 24 26
M  V30 26 2 15 27
M  V30 27 1 27 28
M  V30 28 2 28 29
M  V30 29 1 29 30
M  V30 30 2 9 31
M  V30 31 1 31 32
M  V30 32 1 32 33
M  V30 33 2 33 34
M  V30 34 1 34 35
M  V30 35 1 35 36
M  V30 36 1 36 37
M  V30 37 1 37 38
M  V30 38 1 38 39
M  V30 39 1 39 40
M  V30 40 1 40 41
M  V30 41 1 41 42
M  V30 42 1 42 43
M  V30 43 1 34 3
M  V30 44 1 43 38
M  V30 45 2 32 5
M  V30 46 1 29 13
M  V30 47 1 26 20
M  V30 48 1 1 44
M  V30 49 1 1 45
M  V30 50 1 1 46
M  V30 51 1 4 47
M  V30 52 1 6 48
M  V30 53 1 12 49
M  V30 54 1 14 50
M  V30 55 1 18 51
M  V30 56 1 19 52
M  V30 57 1 19 53
M  V30 58 1 21 54
M  V30 59 1 22 55
M  V30 60 1 23 56
M  V30 61 1 26 57
M  V30 62 1 27 58
M  V30 63 1 28 59
M  V30 64 1 30 60
M  V30 65 1 30 61
M  V30 66 1 30 62
M  V30 67 1 31 63
M  V30 68 1 33 64
M  V30 69 1 35 65
M  V30 70 1 35 66
M  V30 71 1 36 67
M  V30 72 1 36 68
M  V30 73 1 37 69
M  V30 74 1 37 70
M  V30 75 1 39 71
M  V30 76 1 39 72
M  V30 77 1 40 73
M  V30 78 1 40 74
M  V30 79 1 42 75
M  V30 80 1 42 76
M  V30 81 1 43 77
M  V30 82 1 43 78
M  V30 END BOND
M  V30 END CTAB
M  END
>  <Dataset>  (413) 
ChEMBL_Kinases

>  <Ligand_Instance>  (413) 
nan

>  <PDB_ID>  (413) 
nan

>  <Standardized_SMILES>  (413) 
COc1cc2[nH]c(=O)c(C(=O)Nc3cc(C(=O)NCc4cccc(Cl)c4)ccc3C)cc2cc1CCCN1CCOCC1

>  <Name>  (413) 
nan

>  <Pocket>  (413) 
nan

>  <ATP_Site>  (413) 
nan

>  <Peripheral>  (413) 
nan

>  <Num_H_Atoms_ProtBoundConf>  (413) 
nan

>  <Num_Resolved_Atoms>  (413) 
nan

>  <Num_Not_Resolved_Atoms>  (413) 
nan

$$$$
CHEMBL4758121
     RDKit          3D

  0  0  0  0  0  0  0  0  0  0999 V3000
M  V30 BEGIN CTAB
M  V30 COUNTS 51 56 0 0 0
M  V30 BEGIN ATOM
M  V30 1 O 4.917809 -2.044202 1.905358 0
M  V30 2 C 3.871453 -1.574123 1.071488 0
M  V30 3 C 3.819974 -2.321257 -0.171801 0
M  V30 4 C 3.592408 -3.621573 -0.428985 0
M  V30 5 N 3.586372 -4.129239 -1.637531 0
M  V30 6 C 3.811466 -3.338103 -2.640592 0
M  V30 7 S 4.073224 -1.641588 -1.834870 0
M  V30 8 C 4.149833 -0.114639 0.866054 0
M  V30 9 C 2.949144 0.591413 0.340795 0
M  V30 10 N 1.773176 0.250806 1.093043 0
M  V30 11 C 0.850575 1.059097 1.822309 0
M  V30 12 C -0.432548 0.910460 1.281628 0
M  V30 13 C -1.523118 1.590995 1.807105 0
M  V30 14 C -1.317135 2.427292 2.885725 0
M  V30 15 C -2.516053 3.009185 3.260437 0
M  V30 16 N -3.419286 2.500433 2.386476 0
M  V30 17 N -2.840082 1.675957 1.542119 0
M  V30 18 C -3.482558 0.948781 0.474489 0
M  V30 19 C -3.925764 1.275434 -0.804089 0
M  V30 20 N -4.452754 0.138564 -1.326136 0
M  V30 21 N -4.358305 -0.842560 -0.457111 0
M  V30 22 C -4.831168 -2.191838 -0.710108 0
M  V30 23 C -3.900327 -3.342152 -0.471216 0
M  V30 24 C -4.358141 -2.978840 -1.863655 0
M  V30 25 C -3.767422 -0.393950 0.668878 0
M  V30 26 C -0.052364 2.572383 3.416944 0
M  V30 27 C 1.024902 1.893012 2.889162 0
M  V30 28 Cl 2.683463 1.967620 3.444696 0
M  V30 29 C 1.477959 -1.176284 1.103959 0
M  V30 30 C 2.607624 -1.825863 1.855493 0
M  V30 31 H 4.717039 -1.749139 2.828401 0
M  V30 32 H 3.391980 -4.369508 0.353541 0
M  V30 33 H 3.845994 -3.573378 -3.700257 0
M  V30 34 H 4.535761 0.277143 1.812262 0
M  V30 35 H 5.006478 -0.048755 0.147532 0
M  V30 36 H 2.757835 0.212582 -0.699667 0
M  V30 37 H 3.088056 1.680482 0.214003 0
M  V30 38 H -0.728403 0.284716 0.434889 0
M  V30 39 H -2.670565 3.711980 4.075148 0
M  V30 40 H -3.787849 2.295437 -1.140305 0
M  V30 41 H -5.879557 -2.402876 -0.368856 0
M  V30 42 H -2.825908 -3.142906 -0.265719 0
M  V30 43 H -4.278672 -4.284246 -0.011956 0
M  V30 44 H -3.628151 -2.594538 -2.605882 0
M  V30 45 H -5.062516 -3.712429 -2.328638 0
M  V30 46 H -3.577627 -1.031976 1.542423 0
M  V30 47 H 0.200752 3.205876 4.261168 0
M  V30 48 H 0.544620 -1.444312 1.593485 0
M  V30 49 H 1.497985 -1.484258 0.017963 0
M  V30 50 H 2.437559 -2.899432 1.934734 0
M  V30 51 H 2.650533 -1.332391 2.860324 0
M  V30 END ATOM
M  V30 BEGIN BOND
M  V30 1 1 1 2
M  V30 2 1 2 3
M  V30 3 2 3 4
M  V30 4 1 4 5
M  V30 5 2 5 6
M  V30 6 1 6 7
M  V30 7 1 2 8
M  V30 8 1 8 9
M  V30 9 1 9 10
M  V30 10 1 10 11
M  V30 11 2 11 12
M  V30 12 1 12 13
M  V30 13 2 13 14
M  V30 14 1 14 15
M  V30 15 2 15 16
M  V30 16 1 16 17
M  V30 17 1 17 18
M  V30 18 1 18 19
M  V30 19 2 19 20
M  V30 20 1 20 21
M  V30 21 1 21 22
M  V30 22 1 22 23
M  V30 23 1 23 24
M  V30 24 1 21 25
M  V30 25 1 14 26
M  V30 26 2 26 27
M  V30 27 1 27 28
M  V30 28 1 10 29
M  V30 29 1 29 30
M  V30 30 1 30 2
M  V30 31 1 7 3
M  V30 32 1 27 11
M  V30 33 1 17 13
M  V30 34 2 25 18
M  V30 35 1 24 22
M  V30 36 1 1 31
M  V30 37 1 4 32
M  V30 38 1 6 33
M  V30 39 1 8 34
M  V30 40 1 8 35
M  V30 41 1 9 36
M  V30 42 1 9 37
M  V30 43 1 12 38
M  V30 44 1 15 39
M  V30 45 1 19 40
M  V30 46 1 22 41
M  V30 47 1 23 42
M  V30 48 1 23 43
M  V30 49 1 24 44
M  V30 50 1 24 45
M  V30 51 1 25 46
M  V30 52 1 26 47
M  V30 53 1 29 48
M  V30 54 1 29 49
M  V30 55 1 30 50
M  V30 56 1 30 51
M  V30 END BOND
M  V30 END CTAB
M  END
>  <Dataset>  (414) 
ChEMBL_Kinases

>  <Ligand_Instance>  (414) 
nan

>  <PDB_ID>  (414) 
nan

>  <Standardized_SMILES>  (414) 
OC1(c2cncs2)CCN(c2cc3c(cnn3-c3cnn(C4CC4)c3)cc2Cl)CC1

>  <Name>  (414) 
nan

>  <Pocket>  (414) 
nan

>  <ATP_Site>  (414) 
nan

>  <Peripheral>  (414) 
nan

>  <Num_H_Atoms_ProtBoundConf>  (414) 
nan

>  <Num_Resolved_Atoms>  (414) 
nan

>  <Num_Not_Resolved_Atoms>  (414) 
nan

$$$$
CHEMBL4758154
     RDKit          3D

  0  0  0  0  0  0  0  0  0  0999 V3000
M  V30 BEGIN CTAB
M  V30 COUNTS 38 40 0 0 0
M  V30 BEGIN ATOM
M  V30 1 O -2.086667 -1.263311 1.167087 0
M  V30 2 C -1.626688 -1.850934 2.179104 0
M  V30 3 N -0.261257 -1.603738 2.335879 0
M  V30 4 C 0.606344 -0.817507 1.536100 0
M  V30 5 C 0.696383 0.507793 1.905957 0
M  V30 6 C 1.518915 1.383346 1.198577 0
M  V30 7 C 2.266611 0.936353 0.103729 0
M  V30 8 O 3.072151 1.834127 -0.573173 0
M  V30 9 C 2.943288 2.188282 -1.902932 0
M  V30 10 C 2.002296 1.836959 -2.847038 0
M  V30 11 C 2.053397 2.304842 -4.139947 0
M  V30 12 C 3.088584 3.155026 -4.488492 0
M  V30 13 C 4.060873 3.544368 -3.591680 0
M  V30 14 C 3.980098 3.050407 -2.284079 0
M  V30 15 C 2.156148 -0.407319 -0.246013 0
M  V30 16 Br 3.171148 -1.083349 -1.724684 0
M  V30 17 C 1.339205 -1.291789 0.450704 0
M  V30 18 C -2.504334 -2.657255 3.001765 0
M  V30 19 C -3.836557 -2.744938 2.658711 0
M  V30 20 C -4.758532 -3.473381 3.364321 0
M  V30 21 Cl -6.413012 -3.515042 2.842994 0
M  V30 22 C -4.362680 -4.166942 4.482965 0
M  V30 23 C -3.044945 -4.126034 4.887183 0
M  V30 24 Cl -2.499762 -4.993446 6.305481 0
M  V30 25 C -2.174080 -3.368813 4.122449 0
M  V30 26 O -0.867467 -3.357998 4.565366 0
M  V30 27 H 0.240276 -2.032318 3.138034 0
M  V30 28 H 0.176591 0.964602 2.719395 0
M  V30 29 H 1.610555 2.413510 1.460306 0
M  V30 30 H 1.253797 1.188468 -2.469669 0
M  V30 31 H 1.278863 1.984873 -4.823343 0
M  V30 32 H 3.146680 3.537184 -5.507300 0
M  V30 33 H 4.847910 4.211061 -3.918084 0
M  V30 34 H 4.782652 3.409788 -1.656613 0
M  V30 35 H 1.240663 -2.337093 0.193178 0
M  V30 36 H -4.190073 -2.206774 1.774330 0
M  V30 37 H -5.060906 -4.765329 5.083957 0
M  V30 38 H -0.371747 -4.208812 4.777656 0
M  V30 END ATOM
M  V30 BEGIN BOND
M  V30 1 2 1 2
M  V30 2 1 2 3
M  V30 3 1 3 4
M  V30 4 2 4 5
M  V30 5 1 5 6
M  V30 6 2 6 7
M  V30 7 1 7 8
M  V30 8 1 8 9
M  V30 9 2 9 10
M  V30 10 1 10 11
M  V30 11 2 11 12
M  V30 12 1 12 13
M  V30 13 2 13 14
M  V30 14 1 7 15
M  V30 15 1 15 16
M  V30 16 2 15 17
M  V30 17 1 2 18
M  V30 18 2 18 19
M  V30 19 1 19 20
M  V30 20 1 20 21
M  V30 21 2 20 22
M  V30 22 1 22 23
M  V30 23 1 23 24
M  V30 24 2 23 25
M  V30 25 1 25 26
M  V30 26 1 17 4
M  V30 27 1 25 18
M  V30 28 1 14 9
M  V30 29 1 3 27
M  V30 30 1 5 28
M  V30 31 1 6 29
M  V30 32 1 10 30
M  V30 33 1 11 31
M  V30 34 1 12 32
M  V30 35 1 13 33
M  V30 36 1 14 34
M  V30 37 1 17 35
M  V30 38 1 19 36
M  V30 39 1 22 37
M  V30 40 1 26 38
M  V30 END BOND
M  V30 END CTAB
M  END
>  <Dataset>  (415) 
ChEMBL_Kinases

>  <Ligand_Instance>  (415) 
nan

>  <PDB_ID>  (415) 
nan

>  <Standardized_SMILES>  (415) 
O=C(Nc1ccc(Oc2ccccc2)c(Br)c1)c1cc(Cl)cc(Cl)c1O

>  <Name>  (415) 
nan

>  <Pocket>  (415) 
nan

>  <ATP_Site>  (415) 
nan

>  <Peripheral>  (415) 
nan

>  <Num_H_Atoms_ProtBoundConf>  (415) 
nan

>  <Num_Resolved_Atoms>  (415) 
nan

>  <Num_Not_Resolved_Atoms>  (415) 
nan

$$$$
CHEMBL4758192
     RDKit          3D

  0  0  0  0  0  0  0  0  0  0999 V3000
M  V30 BEGIN CTAB
M  V30 COUNTS 54 57 0 0 0
M  V30 BEGIN ATOM
M  V30 1 C 0.075165 -5.174057 5.083574 0
M  V30 2 C 1.124961 -4.565037 4.236788 0
M  V30 3 N 1.897606 -4.913732 3.337183 0
M  V30 4 C 2.741357 -4.063185 2.783772 0
M  V30 5 C 2.803391 -2.777810 3.169090 0
M  V30 6 C 3.631561 -1.648065 2.728823 0
M  V30 7 C 3.019308 -0.874180 1.618432 0
M  V30 8 O 1.904463 -1.215789 1.149083 0
M  V30 9 N 3.720897 0.249426 1.108758 0
M  V30 10 C 3.227811 1.060854 0.048613 0
M  V30 11 C 2.060433 0.958433 -0.676030 0
M  V30 12 C 1.993146 1.983771 -1.626229 0
M  V30 13 C 0.928274 2.269267 -2.623330 0 CFG=1
M  V30 14 C 0.710021 1.073841 -3.511154 0
M  V30 15 C -0.741863 0.727056 -3.479401 0
M  V30 16 C -1.327738 1.444967 -2.302128 0 CFG=1
M  V30 17 O -1.578257 0.593980 -1.205533 0
M  V30 18 C -2.804535 0.353249 -0.648284 0
M  V30 19 O -3.835343 0.922302 -1.123682 0
M  V30 20 N -2.833874 -0.545073 0.456269 0
M  V30 21 C -1.956001 -1.367102 1.277444 0
M  V30 22 C -3.130740 -2.331436 1.380542 0 CFG=1
M  V30 23 C -3.223179 -3.023789 2.651177 0
M  V30 24 N -3.308517 -3.575227 3.646804 0
M  V30 25 C -3.930898 -1.041736 1.287669 0 CFG=2
M  V30 26 C -5.241071 -1.175354 0.571129 0
M  V30 27 C -0.405049 2.579504 -1.981150 0
M  V30 28 N 3.134936 2.673804 -1.436890 0
M  V30 29 N 3.846768 2.135885 -0.466195 0
M  V30 30 S 1.560208 -2.730361 4.437683 0
M  V30 31 H -0.067400 -4.618356 6.039354 0
M  V30 32 H -0.907825 -5.241916 4.599144 0
M  V30 33 H 0.423669 -6.195972 5.332391 0
M  V30 34 H 3.367526 -4.495139 2.002634 0
M  V30 35 H 3.717426 -0.953005 3.597078 0
M  V30 36 H 4.625028 -2.051397 2.475017 0
M  V30 37 H 4.641242 0.482265 1.539052 0
M  V30 38 H 1.297403 0.226475 -0.564260 0
M  V30 39 H 1.228258 3.173313 -3.198503 0
M  V30 40 H 1.303497 0.225509 -3.119841 0
M  V30 41 H 1.041209 1.343270 -4.530037 0
M  V30 42 H -0.868643 -0.372001 -3.431678 0
M  V30 43 H -1.214547 1.118584 -4.420081 0
M  V30 44 H -2.328492 1.871697 -2.603811 0
M  V30 45 H -1.785671 -0.815136 2.232815 0
M  V30 46 H -1.066010 -1.756007 0.763652 0
M  V30 47 H -3.134759 -2.952404 0.466697 0
M  V30 48 H -4.040920 -0.560997 2.256921 0
M  V30 49 H -5.687686 -2.145101 0.887159 0
M  V30 50 H -5.905357 -0.365733 0.905337 0
M  V30 51 H -5.132089 -1.234139 -0.528475 0
M  V30 52 H -0.306851 2.713779 -0.874747 0
M  V30 53 H -0.828465 3.543459 -2.343491 0
M  V30 54 H 3.457174 3.531094 -1.966454 0
M  V30 END ATOM
M  V30 BEGIN BOND
M  V30 1 1 1 2
M  V30 2 2 2 3
M  V30 3 1 3 4
M  V30 4 2 4 5
M  V30 5 1 5 6
M  V30 6 1 6 7
M  V30 7 2 7 8
M  V30 8 1 7 9
M  V30 9 1 9 10
M  V30 10 1 10 11
M  V30 11 2 11 12
M  V30 12 1 12 13
M  V30 13 1 13 14
M  V30 14 1 14 15
M  V30 15 1 15 16
M  V30 16 1 16 17
M  V30 17 1 17 18
M  V30 18 2 18 19
M  V30 19 1 18 20
M  V30 20 1 20 21
M  V30 21 1 21 22
M  V30 22 1 22 23
M  V30 23 3 23 24
M  V30 24 1 22 25
M  V30 25 1 25 26
M  V30 26 1 16 27
M  V30 27 1 12 28
M  V30 28 1 28 29
M  V30 29 1 5 30
M  V30 30 1 30 2
M  V30 31 2 29 10
M  V30 32 1 27 13
M  V30 33 1 25 20
M  V30 34 1 1 31
M  V30 35 1 1 32
M  V30 36 1 1 33
M  V30 37 1 4 34
M  V30 38 1 6 35
M  V30 39 1 6 36
M  V30 40 1 9 37
M  V30 41 1 11 38
M  V30 42 1 13 39 CFG=3
M  V30 43 1 14 40
M  V30 44 1 14 41
M  V30 45 1 15 42
M  V30 46 1 15 43
M  V30 47 1 16 44 CFG=3
M  V30 48 1 21 45
M  V30 49 1 21 46
M  V30 50 1 22 47 CFG=3
M  V30 51 1 25 48 CFG=1
M  V30 52 1 26 49
M  V30 53 1 26 50
M  V30 54 1 26 51
M  V30 55 1 27 52
M  V30 56 1 27 53
M  V30 57 1 28 54
M  V30 END BOND
M  V30 END CTAB
M  END
>  <Dataset>  (416) 
ChEMBL_Kinases

>  <Ligand_Instance>  (416) 
nan

>  <PDB_ID>  (416) 
nan

>  <Standardized_SMILES>  (416) 
Cc1ncc(CC(=O)Nc2cc([C@H]3CC[C@@H](OC(=O)N4C[C@@H](C#N)[C@@H]4C)C3)[nH]n2)s1

>  <Name>  (416) 
nan

>  <Pocket>  (416) 
nan

>  <ATP_Site>  (416) 
nan

>  <Peripheral>  (416) 
nan

>  <Num_H_Atoms_ProtBoundConf>  (416) 
nan

>  <Num_Resolved_Atoms>  (416) 
nan

>  <Num_Not_Resolved_Atoms>  (416) 
nan

$$$$
CHEMBL4758203
     RDKit          3D

  0  0  0  0  0  0  0  0  0  0999 V3000
M  V30 BEGIN CTAB
M  V30 COUNTS 64 68 0 0 0
M  V30 BEGIN ATOM
M  V30 1 O 3.353604 -0.405174 3.564707 0
M  V30 2 S 2.013323 -0.741801 4.110377 0
M  V30 3 O 2.170828 -1.650603 5.289647 0
M  V30 4 N 1.057243 -1.614541 2.940989 0
M  V30 5 C -0.196977 -2.012126 3.505083 0
M  V30 6 C -1.066972 -2.770546 2.539618 0
M  V30 7 C -0.317044 -4.013631 2.115858 0
M  V30 8 N -1.116544 -4.806713 1.173451 0
M  V30 9 C -1.551073 -4.290634 -0.077530 0
M  V30 10 N -2.306500 -5.037303 -0.908468 0
M  V30 11 C -2.736814 -4.581072 -2.095916 0
M  V30 12 C -2.423118 -3.310063 -2.529617 0
M  V30 13 C -1.650589 -2.536316 -1.688281 0
M  V30 14 C -1.167660 -1.167823 -1.855318 0
M  V30 15 N -1.943154 -0.069609 -1.746579 0
M  V30 16 C -1.118940 0.975689 -1.959002 0
M  V30 17 C -1.574534 2.366723 -1.924975 0
M  V30 18 C -2.904979 2.618915 -1.659751 0
M  V30 19 C -3.416079 3.902378 -1.607573 0
M  V30 20 C -2.529042 4.959963 -1.835542 0
M  V30 21 C -1.204920 4.704262 -2.099421 0
M  V30 22 C -0.692005 3.404864 -2.151327 0
M  V30 23 N 0.139909 0.545868 -2.194750 0
M  V30 24 C 0.148311 -0.815797 -2.137099 0
M  V30 25 C 1.318658 -1.656921 -2.340551 0
M  V30 26 C 1.271101 -2.524080 -3.437763 0
M  V30 27 C 2.328586 -3.376924 -3.739329 0
M  V30 28 C 3.451852 -3.362751 -2.930862 0
M  V30 29 F 4.514797 -4.168593 -3.170939 0
M  V30 30 C 3.524402 -2.506756 -1.829488 0
M  V30 31 O 4.612845 -2.433352 -0.973648 0
M  V30 32 C 2.457997 -1.677902 -1.563658 0
M  V30 33 N -1.254493 -3.058037 -0.513025 0
M  V30 34 C 1.135292 0.704259 4.566499 0
M  V30 35 C 1.391173 1.839111 3.830197 0
M  V30 36 C 0.771583 3.067747 4.068533 0
M  V30 37 C -0.148077 3.138086 5.103342 0
M  V30 38 C -0.404114 2.011760 5.836525 0
M  V30 39 C 0.211226 0.805260 5.594576 0
M  V30 40 H 0.867026 -1.054807 2.095252 0
M  V30 41 H -0.092065 -2.563794 4.461885 0
M  V30 42 H -0.754956 -1.075903 3.778727 0
M  V30 43 H -1.203798 -2.092705 1.649883 0
M  V30 44 H -2.067840 -2.969448 2.913768 0
M  V30 45 H 0.618359 -3.633095 1.625831 0
M  V30 46 H -0.065816 -4.591793 3.003119 0
M  V30 47 H -1.374759 -5.782175 1.429854 0
M  V30 48 H -3.342854 -5.153270 -2.783229 0
M  V30 49 H -2.685706 -2.802116 -3.440993 0
M  V30 50 H -2.949166 -0.090459 -1.542361 0
M  V30 51 H -3.634909 1.829896 -1.475334 0
M  V30 52 H -4.467264 4.090135 -1.397537 0
M  V30 53 H -2.901633 5.992964 -1.800811 0
M  V30 54 H -0.564850 5.553596 -2.268817 0
M  V30 55 H 0.336707 3.228291 -2.357928 0
M  V30 56 H 0.444533 -2.630561 -4.148348 0
M  V30 57 H 2.327377 -4.062370 -4.581950 0
M  V30 58 H 4.753957 -3.060039 -0.183448 0
M  V30 59 H 2.470766 -0.995521 -0.719067 0
M  V30 60 H 2.099960 1.865618 3.000656 0
M  V30 61 H 0.965549 3.958068 3.497686 0
M  V30 62 H -0.641085 4.084385 5.306511 0
M  V30 63 H -1.113891 2.016220 6.651897 0
M  V30 64 H 0.037718 -0.102317 6.149477 0
M  V30 END ATOM
M  V30 BEGIN BOND
M  V30 1 2 1 2
M  V30 2 2 2 3
M  V30 3 1 2 4
M  V30 4 1 4 5
M  V30 5 1 5 6
M  V30 6 1 6 7
M  V30 7 1 7 8
M  V30 8 1 8 9
M  V30 9 2 9 10
M  V30 10 1 10 11
M  V30 11 2 11 12
M  V30 12 1 12 13
M  V30 13 1 13 14
M  V30 14 1 14 15
M  V30 15 1 15 16
M  V30 16 1 16 17
M  V30 17 2 17 18
M  V30 18 1 18 19
M  V30 19 2 19 20
M  V30 20 1 20 21
M  V30 21 2 21 22
M  V30 22 2 16 23
M  V30 23 1 23 24
M  V30 24 1 24 25
M  V30 25 2 25 26
M  V30 26 1 26 27
M  V30 27 2 27 28
M  V30 28 1 28 29
M  V30 29 1 28 30
M  V30 30 1 30 31
M  V30 31 2 30 32
M  V30 32 2 13 33
M  V30 33 1 2 34
M  V30 34 2 34 35
M  V30 35 1 35 36
M  V30 36 2 36 37
M  V30 37 1 37 38
M  V30 38 2 38 39
M  V30 39 1 33 9
M  V30 40 1 39 34
M  V30 41 2 24 14
M  V30 42 1 32 25
M  V30 43 1 22 17
M  V30 44 1 4 40
M  V30 45 1 5 41
M  V30 46 1 5 42
M  V30 47 1 6 43
M  V30 48 1 6 44
M  V30 49 1 7 45
M  V30 50 1 7 46
M  V30 51 1 8 47
M  V30 52 1 11 48
M  V30 53 1 12 49
M  V30 54 1 15 50
M  V30 55 1 18 51
M  V30 56 1 19 52
M  V30 57 1 20 53
M  V30 58 1 21 54
M  V30 59 1 22 55
M  V30 60 1 26 56
M  V30 61 1 27 57
M  V30 62 1 31 58
M  V30 63 1 32 59
M  V30 64 1 35 60
M  V30 65 1 36 61
M  V30 66 1 37 62
M  V30 67 1 38 63
M  V30 68 1 39 64
M  V30 END BOND
M  V30 END CTAB
M  END
>  <Dataset>  (417) 
ChEMBL_Kinases

>  <Ligand_Instance>  (417) 
nan

>  <PDB_ID>  (417) 
nan

>  <Standardized_SMILES>  (417) 
O=S(=O)(NCCCNc1nccc(-c2[nH]c(-c3ccccc3)nc2-c2ccc(F)c(O)c2)n1)c1ccccc1

>  <Name>  (417) 
nan

>  <Pocket>  (417) 
nan

>  <ATP_Site>  (417) 
nan

>  <Peripheral>  (417) 
nan

>  <Num_H_Atoms_ProtBoundConf>  (417) 
nan

>  <Num_Resolved_Atoms>  (417) 
nan

>  <Num_Not_Resolved_Atoms>  (417) 
nan

$$$$
CHEMBL4758334
     RDKit          3D

  0  0  0  0  0  0  0  0  0  0999 V3000
M  V30 BEGIN CTAB
M  V30 COUNTS 30 32 0 0 0
M  V30 BEGIN ATOM
M  V30 1 C -1.923212 -1.535486 3.081790 0
M  V30 2 C -1.157220 -2.768036 2.717525 0
M  V30 3 C -0.990032 -2.921501 1.221405 0
M  V30 4 N -0.269806 -1.761001 0.731103 0
M  V30 5 C 1.070531 -1.866422 0.713443 0
M  V30 6 O 1.654800 -2.900327 1.097382 0
M  V30 7 C 1.805907 -0.794609 0.255949 0
M  V30 8 C 3.181318 -0.900963 0.237119 0
M  V30 9 C 3.895909 0.184184 -0.224735 0
M  V30 10 C 3.311417 1.376055 -0.671286 0
M  V30 11 C 1.935216 1.443444 -0.636975 0
M  V30 12 F 1.527837 2.611275 -1.081818 0
M  V30 13 C 1.227645 0.369453 -0.179860 0
M  V30 14 N -0.095599 0.420510 -0.141437 0
M  V30 15 C -0.936911 1.389217 -0.488663 0
M  V30 16 S -0.849034 2.887266 -1.086749 0
M  V30 17 N -2.187293 0.958239 -0.262723 0
M  V30 18 N -2.127572 -0.290062 0.229789 0
M  V30 19 C -0.814051 -0.608534 0.298355 0
M  V30 20 H -1.334167 -0.619899 2.892739 0
M  V30 21 H -2.915873 -1.527510 2.611905 0
M  V30 22 H -2.110286 -1.590675 4.185197 0
M  V30 23 H -0.147002 -2.726108 3.188734 0
M  V30 24 H -1.654494 -3.674186 3.149626 0
M  V30 25 H -1.976521 -3.033080 0.725116 0
M  V30 26 H -0.414303 -3.846019 1.035159 0
M  V30 27 H 3.661973 -1.807027 0.574978 0
M  V30 28 H 4.967845 0.052724 -0.220147 0
M  V30 29 H 4.029335 2.125639 -1.000260 0
M  V30 30 H -3.163484 1.336298 -0.369754 0
M  V30 END ATOM
M  V30 BEGIN BOND
M  V30 1 1 1 2
M  V30 2 1 2 3
M  V30 3 1 3 4
M  V30 4 1 4 5
M  V30 5 2 5 6
M  V30 6 1 5 7
M  V30 7 2 7 8
M  V30 8 1 8 9
M  V30 9 2 9 10
M  V30 10 1 10 11
M  V30 11 1 11 12
M  V30 12 2 11 13
M  V30 13 1 13 14
M  V30 14 1 14 15
M  V30 15 2 15 16
M  V30 16 1 15 17
M  V30 17 1 17 18
M  V30 18 2 18 19
M  V30 19 1 19 4
M  V30 20 1 13 7
M  V30 21 1 19 14
M  V30 22 1 1 20
M  V30 23 1 1 21
M  V30 24 1 1 22
M  V30 25 1 2 23
M  V30 26 1 2 24
M  V30 27 1 3 25
M  V30 28 1 3 26
M  V30 29 1 8 27
M  V30 30 1 9 28
M  V30 31 1 10 29
M  V30 32 1 17 30
M  V30 END BOND
M  V30 END CTAB
M  END
>  <Dataset>  (418) 
ChEMBL_Kinases

>  <Ligand_Instance>  (418) 
nan

>  <PDB_ID>  (418) 
nan

>  <Standardized_SMILES>  (418) 
CCCn1c(=O)c2cccc(F)c2n2c(=S)[nH]nc12

>  <Name>  (418) 
nan

>  <Pocket>  (418) 
nan

>  <ATP_Site>  (418) 
nan

>  <Peripheral>  (418) 
nan

>  <Num_H_Atoms_ProtBoundConf>  (418) 
nan

>  <Num_Resolved_Atoms>  (418) 
nan

>  <Num_Not_Resolved_Atoms>  (418) 
nan

$$$$
CHEMBL4286223
     RDKit          3D

  0  0  0  0  0  0  0  0  0  0999 V3000
M  V30 BEGIN CTAB
M  V30 COUNTS 49 51 0 0 0
M  V30 BEGIN ATOM
M  V30 1 N 1.548355 -3.764059 3.125347 0
M  V30 2 C 1.896227 -2.706456 2.795499 0
M  V30 3 C 2.360087 -1.371886 2.377023 0
M  V30 4 C 3.440108 -0.916386 3.161255 0
M  V30 5 N 3.788980 0.236338 2.681862 0
M  V30 6 C 3.450489 1.037638 1.749597 0
M  V30 7 N 3.956958 2.292943 1.383912 0
M  V30 8 C 3.739555 3.078883 0.192242 0
M  V30 9 C 3.093655 2.385038 -0.796029 0
M  V30 10 C 2.900398 3.178303 -1.939693 0
M  V30 11 C 3.329354 4.501963 -2.012133 0
M  V30 12 C 3.970550 5.070747 -0.926366 0
M  V30 13 Br 4.585675 6.889296 -0.971136 0
M  V30 14 C 4.206319 4.362309 0.248452 0
M  V30 15 N 2.485997 0.415687 1.209288 0
M  V30 16 C 1.795246 -0.678328 1.293875 0
M  V30 17 N 0.689036 -1.276879 0.680674 0
M  V30 18 C -0.413497 -1.872262 0.068561 0
M  V30 19 C -0.947414 -3.139657 0.723131 0 CFG=1
M  V30 20 C -1.436637 -2.977171 2.109012 0
M  V30 21 C -2.935656 -2.860568 2.224606 0
M  V30 22 C -3.608745 -2.243562 1.027996 0 CFG=2
M  V30 23 C -5.112271 -2.456466 1.222104 0
M  V30 24 N -5.879918 -1.918713 0.138149 0
M  V30 25 C -3.225758 -2.832642 -0.272164 0
M  V30 26 C -1.978687 -3.680062 -0.228709 0
M  V30 27 H 3.858332 -1.461572 3.981366 0
M  V30 28 H 4.562584 2.652466 2.171978 0
M  V30 29 H 2.718322 1.386209 -0.865645 0
M  V30 30 H 2.384510 2.712949 -2.795415 0
M  V30 31 H 3.160239 5.085371 -2.926344 0
M  V30 32 H 4.685278 4.731774 1.128829 0
M  V30 33 H 0.671579 -0.491507 -0.078536 0
M  V30 34 H -1.290803 -1.138889 0.003767 0
M  V30 35 H -0.272642 -2.172483 -1.026919 0
M  V30 36 H -0.098649 -3.855933 0.726292 0
M  V30 37 H -1.162075 -3.882916 2.699458 0
M  V30 38 H -0.950690 -2.105457 2.553421 0
M  V30 39 H -3.370749 -3.889747 2.327764 0
M  V30 40 H -3.249600 -2.328006 3.138823 0
M  V30 41 H -3.490111 -1.130677 1.075292 0
M  V30 42 H -5.348909 -3.545929 1.369362 0
M  V30 43 H -5.382003 -1.940667 2.179756 0
M  V30 44 H -5.519265 -1.007507 -0.166529 0
M  V30 45 H -6.032349 -2.584079 -0.641954 0
M  V30 46 H -4.076550 -3.410162 -0.688309 0
M  V30 47 H -3.041618 -2.017953 -1.005433 0
M  V30 48 H -1.546161 -3.766055 -1.246240 0
M  V30 49 H -2.314179 -4.700731 0.064460 0
M  V30 END ATOM
M  V30 BEGIN BOND
M  V30 1 3 1 2
M  V30 2 1 2 3
M  V30 3 2 3 4
M  V30 4 1 4 5
M  V30 5 2 5 6
M  V30 6 1 6 7
M  V30 7 1 7 8
M  V30 8 2 8 9
M  V30 9 1 9 10
M  V30 10 2 10 11
M  V30 11 1 11 12
M  V30 12 1 12 13
M  V30 13 2 12 14
M  V30 14 1 6 15
M  V30 15 2 15 16
M  V30 16 1 16 17
M  V30 17 1 17 18
M  V30 18 1 18 19
M  V30 19 1 19 20
M  V30 20 1 20 21
M  V30 21 1 21 22
M  V30 22 1 22 23
M  V30 23 1 23 24
M  V30 24 1 22 25
M  V30 25 1 25 26
M  V30 26 1 16 3
M  V30 27 1 26 19
M  V30 28 1 14 8
M  V30 29 1 4 27
M  V30 30 1 7 28
M  V30 31 1 9 29
M  V30 32 1 10 30
M  V30 33 1 11 31
M  V30 34 1 14 32
M  V30 35 1 17 33
M  V30 36 1 18 34
M  V30 37 1 18 35
M  V30 38 1 19 36 CFG=1
M  V30 39 1 20 37
M  V30 40 1 20 38
M  V30 41 1 21 39
M  V30 42 1 21 40
M  V30 43 1 22 41 CFG=3
M  V30 44 1 23 42
M  V30 45 1 23 43
M  V30 46 1 24 44
M  V30 47 1 24 45
M  V30 48 1 25 46
M  V30 49 1 25 47
M  V30 50 1 26 48
M  V30 51 1 26 49
M  V30 END BOND
M  V30 END CTAB
M  END
>  <Dataset>  (419) 
ChEMBL_Kinases

>  <Ligand_Instance>  (419) 
nan

>  <PDB_ID>  (419) 
nan

>  <Standardized_SMILES>  (419) 
N#Cc1cnc(Nc2cccc(Br)c2)nc1NC[C@H]1CC[C@H](CN)CC1

>  <Name>  (419) 
nan

>  <Pocket>  (419) 
nan

>  <ATP_Site>  (419) 
nan

>  <Peripheral>  (419) 
nan

>  <Num_H_Atoms_ProtBoundConf>  (419) 
nan

>  <Num_Resolved_Atoms>  (419) 
nan

>  <Num_Not_Resolved_Atoms>  (419) 
nan

$$$$
CHEMBL4758384
     RDKit          3D

  0  0  0  0  0  0  0  0  0  0999 V3000
M  V30 BEGIN CTAB
M  V30 COUNTS 63 67 0 0 0
M  V30 BEGIN ATOM
M  V30 1 C 3.502161 -1.699878 5.692809 0
M  V30 2 N 3.173330 -2.819720 4.834995 0
M  V30 3 C 4.354362 -3.244857 4.143200 0
M  V30 4 C 4.887942 -2.197533 3.195756 0
M  V30 5 N 3.765780 -1.399192 2.741426 0
M  V30 6 C 4.137854 -0.614321 1.612448 0
M  V30 7 C 3.086515 0.234852 1.045836 0
M  V30 8 C 2.300503 -0.330598 0.034341 0
M  V30 9 C 1.280775 0.430656 -0.543425 0
M  V30 10 C 1.012088 1.736157 -0.152846 0
M  V30 11 C -0.064826 2.499597 -0.780110 0
M  V30 12 C -0.076569 3.867363 -0.964376 0
M  V30 13 N -1.123466 4.483202 -1.556590 0
M  V30 14 C -2.199641 3.779584 -1.990830 0
M  V30 15 N -3.362798 4.127211 -2.604818 0
M  V30 16 C -4.115821 3.021193 -2.828472 0
M  V30 17 C -3.453135 1.914287 -2.359973 0
M  V30 18 C -3.913041 0.553146 -2.405805 0
M  V30 19 C -4.479650 0.029367 -3.566794 0
M  V30 20 C -4.948456 -1.263150 -3.703697 0
M  V30 21 C -4.844102 -2.088006 -2.606529 0
M  V30 22 C -4.291492 -1.652325 -1.402343 0
M  V30 23 N -4.176834 -2.477835 -0.274736 0
M  V30 24 S -3.612994 -4.107834 -0.278769 0
M  V30 25 C -4.620147 -5.184683 -1.249208 0
M  V30 26 O -2.197794 -4.161007 -0.771815 0
M  V30 27 O -3.634243 -4.623216 1.130524 0
M  V30 28 C -3.842218 -0.332140 -1.349103 0
M  V30 29 C -2.247137 2.394639 -1.833224 0
M  V30 30 C -1.171558 1.777210 -1.226833 0
M  V30 31 C 1.805189 2.271981 0.850484 0
M  V30 32 C 2.822822 1.545316 1.443305 0
M  V30 33 C 2.643960 -2.264809 2.572489 0
M  V30 34 C 2.060416 -2.525883 3.966456 0
M  V30 35 H 4.141293 -2.039629 6.522853 0
M  V30 36 H 4.103423 -0.989590 5.089022 0
M  V30 37 H 2.622359 -1.188414 6.108690 0
M  V30 38 H 4.177277 -4.234826 3.648390 0
M  V30 39 H 5.134213 -3.407865 4.925585 0
M  V30 40 H 5.720369 -1.600669 3.618299 0
M  V30 41 H 5.286931 -2.734695 2.287271 0
M  V30 42 H 4.983196 0.048152 1.940347 0
M  V30 43 H 4.579446 -1.257630 0.825378 0
M  V30 44 H 2.386016 -1.330233 -0.378610 0
M  V30 45 H 0.648324 0.015831 -1.338204 0
M  V30 46 H 0.796413 4.415254 -0.609321 0
M  V30 47 H -3.612825 5.125658 -2.857333 0
M  V30 48 H -5.082015 3.101462 -3.311111 0
M  V30 49 H -4.560130 0.690309 -4.436635 0
M  V30 50 H -5.371975 -1.565006 -4.656771 0
M  V30 51 H -5.203348 -3.082307 -2.706345 0
M  V30 52 H -4.474666 -2.005222 0.612974 0
M  V30 53 H -4.296752 -5.266629 -2.309539 0
M  V30 54 H -4.475361 -6.225767 -0.837278 0
M  V30 55 H -5.679318 -4.938388 -1.125248 0
M  V30 56 H -3.422433 -0.009407 -0.424577 0
M  V30 57 H -1.250341 0.721477 -1.127405 0
M  V30 58 H 1.613254 3.287979 1.169948 0
M  V30 59 H 3.453903 1.949260 2.230488 0
M  V30 60 H 1.858203 -1.896781 1.885656 0
M  V30 61 H 2.917517 -3.269513 2.177666 0
M  V30 62 H 1.585212 -1.586004 4.348882 0
M  V30 63 H 1.308576 -3.338152 3.933448 0
M  V30 END ATOM
M  V30 BEGIN BOND
M  V30 1 1 1 2
M  V30 2 1 2 3
M  V30 3 1 3 4
M  V30 4 1 4 5
M  V30 5 1 5 6
M  V30 6 1 6 7
M  V30 7 2 7 8
M  V30 8 1 8 9
M  V30 9 2 9 10
M  V30 10 1 10 11
M  V30 11 2 11 12
M  V30 12 1 12 13
M  V30 13 2 13 14
M  V30 14 1 14 15
M  V30 15 1 15 16
M  V30 16 2 16 17
M  V30 17 1 17 18
M  V30 18 2 18 19
M  V30 19 1 19 20
M  V30 20 2 20 21
M  V30 21 1 21 22
M  V30 22 1 22 23
M  V30 23 1 23 24
M  V30 24 1 24 25
M  V30 25 2 24 26
M  V30 26 2 24 27
M  V30 27 2 22 28
M  V30 28 1 17 29
M  V30 29 2 29 30
M  V30 30 1 10 31
M  V30 31 2 31 32
M  V30 32 1 5 33
M  V30 33 1 33 34
M  V30 34 1 34 2
M  V30 35 1 32 7
M  V30 36 1 30 11
M  V30 37 1 29 14
M  V30 38 1 28 18
M  V30 39 1 1 35
M  V30 40 1 1 36
M  V30 41 1 1 37
M  V30 42 1 3 38
M  V30 43 1 3 39
M  V30 44 1 4 40
M  V30 45 1 4 41
M  V30 46 1 6 42
M  V30 47 1 6 43
M  V30 48 1 8 44
M  V30 49 1 9 45
M  V30 50 1 12 46
M  V30 51 1 15 47
M  V30 52 1 16 48
M  V30 53 1 19 49
M  V30 54 1 20 50
M  V30 55 1 21 51
M  V30 56 1 23 52
M  V30 57 1 25 53
M  V30 58 1 25 54
M  V30 59 1 25 55
M  V30 60 1 28 56
M  V30 61 1 30 57
M  V30 62 1 31 58
M  V30 63 1 32 59
M  V30 64 1 33 60
M  V30 65 1 33 61
M  V30 66 1 34 62
M  V30 67 1 34 63
M  V30 END BOND
M  V30 END CTAB
M  END
>  <Dataset>  (420) 
ChEMBL_Kinases

>  <Ligand_Instance>  (420) 
nan

>  <PDB_ID>  (420) 
nan

>  <Standardized_SMILES>  (420) 
CN1CCN(Cc2ccc(-c3cnc4[nH]cc(-c5cccc(NS(C)(=O)=O)c5)c4c3)cc2)CC1

>  <Name>  (420) 
nan

>  <Pocket>  (420) 
nan

>  <ATP_Site>  (420) 
nan

>  <Peripheral>  (420) 
nan

>  <Num_H_Atoms_ProtBoundConf>  (420) 
nan

>  <Num_Resolved_Atoms>  (420) 
nan

>  <Num_Not_Resolved_Atoms>  (420) 
nan

$$$$
CHEMBL4286618
     RDKit          3D

  0  0  0  0  0  0  0  0  0  0999 V3000
M  V30 BEGIN CTAB
M  V30 COUNTS 76 81 0 0 0
M  V30 BEGIN ATOM
M  V30 1 O 2.107257 -0.271595 -0.292885 0
M  V30 2 C 1.874166 -0.201522 0.906222 0
M  V30 3 S 2.511503 1.098304 2.012373 0
M  V30 4 C 1.011027 1.054134 3.050684 0
M  V30 5 C 0.557367 2.123961 3.629759 0
M  V30 6 C 1.123595 3.459805 3.560216 0
M  V30 7 C 1.017147 4.188508 4.742663 0
M  V30 8 C 1.512864 5.477709 4.805758 0
M  V30 9 C 2.128478 6.107698 3.724986 0
M  V30 10 O 2.606554 7.405932 3.850079 0
M  V30 11 C 1.880657 8.531036 3.528108 0
M  V30 12 C 2.488522 9.768271 3.762110 0
M  V30 13 C 1.768568 10.906369 3.442462 0
M  V30 14 C 0.513975 10.897438 2.918261 0
M  V30 15 F -0.198278 12.016994 2.600962 0
M  V30 16 C -0.093155 9.692180 2.683504 0
M  V30 17 C 0.588825 8.514573 2.988421 0
M  V30 18 C 2.221385 5.352615 2.550624 0
M  V30 19 C 1.730270 4.066771 2.479933 0
M  V30 20 C 0.625455 -0.352350 2.955641 0
M  V30 21 O -0.065981 -0.679670 3.961986 0
M  V30 22 N 1.090898 -1.032328 1.796334 0
M  V30 23 C 0.779532 -2.403209 1.552832 0
M  V30 24 C 0.053411 -3.199472 2.406218 0
M  V30 25 C -0.214690 -4.534468 2.062208 0
M  V30 26 C 0.234519 -5.106813 0.857503 0
M  V30 27 O -0.165750 -6.361533 0.816933 0
M  V30 28 C -0.186077 -7.481273 0.099689 0
M  V30 29 C -0.938439 -7.520338 -1.191007 0
M  V30 30 C -0.448184 -6.512298 -2.177444 0
M  V30 31 N -1.185678 -6.621514 -3.434905 0
M  V30 32 C -2.546592 -6.245475 -3.338841 0
M  V30 33 C -2.922929 -5.022724 -4.158080 0
M  V30 34 N -1.801822 -4.214063 -4.368657 0
M  V30 35 C -1.678802 -2.933221 -3.853333 0
M  V30 36 C -1.512246 -2.782439 -2.368197 0
M  V30 37 C -2.500952 -3.248181 -1.375528 0
M  V30 38 C -2.326394 -1.779473 -1.591981 0
M  V30 39 C -0.776137 -4.829681 -5.109014 0
M  V30 40 C -0.458579 -6.194378 -4.576282 0
M  V30 41 C 0.953673 -4.263622 0.049147 0
M  V30 42 C 1.222812 -2.960392 0.371960 0
M  V30 43 H -0.355323 1.938619 4.220125 0
M  V30 44 H 0.547455 3.779987 5.646610 0
M  V30 45 H 1.446064 6.080202 5.723910 0
M  V30 46 H 3.487755 9.895703 4.177156 0
M  V30 47 H 2.196315 11.892258 3.604836 0
M  V30 48 H -1.092867 9.649149 2.265972 0
M  V30 49 H 0.140876 7.538598 2.816881 0
M  V30 50 H 2.695248 5.801726 1.685143 0
M  V30 51 H 1.793730 3.478582 1.585297 0
M  V30 52 H -0.296761 -2.785884 3.327919 0
M  V30 53 H -0.801105 -5.025866 2.847936 0
M  V30 54 H -0.630389 -8.324608 0.749535 0
M  V30 55 H 0.867739 -7.872272 -0.172779 0
M  V30 56 H -0.901757 -8.563115 -1.625821 0
M  V30 57 H -2.037016 -7.380281 -0.984102 0
M  V30 58 H -0.766432 -5.509971 -1.778875 0
M  V30 59 H 0.630435 -6.597606 -2.293847 0
M  V30 60 H -3.230929 -7.115341 -3.568327 0
M  V30 61 H -2.798070 -5.991533 -2.278614 0
M  V30 62 H -3.829216 -4.521060 -3.752429 0
M  V30 63 H -3.238042 -5.442822 -5.168411 0
M  V30 64 H -0.797099 -2.418021 -4.352899 0
M  V30 65 H -2.535849 -2.247628 -4.173883 0
M  V30 66 H -0.436585 -2.794207 -2.011433 0
M  V30 67 H -2.107794 -3.680171 -0.407951 0
M  V30 68 H -3.496664 -3.640827 -1.611799 0
M  V30 69 H -1.877189 -1.227266 -0.747390 0
M  V30 70 H -3.152360 -1.214919 -2.090702 0
M  V30 71 H -1.184165 -5.000365 -6.155397 0
M  V30 72 H 0.156481 -4.213330 -5.194341 0
M  V30 73 H 0.634059 -6.176101 -4.272872 0
M  V30 74 H -0.462253 -6.957757 -5.404823 0
M  V30 75 H 1.286985 -4.748577 -0.850777 0
M  V30 76 H 1.795554 -2.495388 -0.397814 0
M  V30 END ATOM
M  V30 BEGIN BOND
M  V30 1 2 1 2
M  V30 2 1 2 3
M  V30 3 1 3 4
M  V30 4 2 4 5
M  V30 5 1 5 6
M  V30 6 2 6 7
M  V30 7 1 7 8
M  V30 8 2 8 9
M  V30 9 1 9 10
M  V30 10 1 10 11
M  V30 11 2 11 12
M  V30 12 1 12 13
M  V30 13 2 13 14
M  V30 14 1 14 15
M  V30 15 1 14 16
M  V30 16 2 16 17
M  V30 17 1 9 18
M  V30 18 2 18 19
M  V30 19 1 4 20
M  V30 20 2 20 21
M  V30 21 1 20 22
M  V30 22 1 22 23
M  V30 23 2 23 24
M  V30 24 1 24 25
M  V30 25 2 25 26
M  V30 26 1 26 27
M  V30 27 1 27 28
M  V30 28 1 28 29
M  V30 29 1 29 30
M  V30 30 1 30 31
M  V30 31 1 31 32
M  V30 32 1 32 33
M  V30 33 1 33 34
M  V30 34 1 34 35
M  V30 35 1 35 36
M  V30 36 1 36 37
M  V30 37 1 37 38
M  V30 38 1 34 39
M  V30 39 1 39 40
M  V30 40 1 26 41
M  V30 41 2 41 42
M  V30 42 1 22 2
M  V30 43 1 42 23
M  V30 44 1 19 6
M  V30 45 1 40 31
M  V30 46 1 17 11
M  V30 47 1 38 36
M  V30 48 1 5 43
M  V30 49 1 7 44
M  V30 50 1 8 45
M  V30 51 1 12 46
M  V30 52 1 13 47
M  V30 53 1 16 48
M  V30 54 1 17 49
M  V30 55 1 18 50
M  V30 56 1 19 51
M  V30 57 1 24 52
M  V30 58 1 25 53
M  V30 59 1 28 54
M  V30 60 1 28 55
M  V30 61 1 29 56
M  V30 62 1 29 57
M  V30 63 1 30 58
M  V30 64 1 30 59
M  V30 65 1 32 60
M  V30 66 1 32 61
M  V30 67 1 33 62
M  V30 68 1 33 63
M  V30 69 1 35 64
M  V30 70 1 35 65
M  V30 71 1 36 66
M  V30 72 1 37 67
M  V30 73 1 37 68
M  V30 74 1 38 69
M  V30 75 1 38 70
M  V30 76 1 39 71
M  V30 77 1 39 72
M  V30 78 1 40 73
M  V30 79 1 40 74
M  V30 80 1 41 75
M  V30 81 1 42 76
M  V30 END BOND
M  V30 END CTAB
M  END
>  <Dataset>  (421) 
ChEMBL_Kinases

>  <Ligand_Instance>  (421) 
nan

>  <PDB_ID>  (421) 
nan

>  <Standardized_SMILES>  (421) 
O=C1S/C(=C\c2ccc(Oc3ccc(F)cc3)cc2)C(=O)N1c1ccc(OCCCN2CCN(CC3CC3)CC2)cc1

>  <Name>  (421) 
nan

>  <Pocket>  (421) 
nan

>  <ATP_Site>  (421) 
nan

>  <Peripheral>  (421) 
nan

>  <Num_H_Atoms_ProtBoundConf>  (421) 
nan

>  <Num_Resolved_Atoms>  (421) 
nan

>  <Num_Not_Resolved_Atoms>  (421) 
nan

$$$$
CHEMBL428409
     RDKit          3D

  0  0  0  0  0  0  0  0  0  0999 V3000
M  V30 BEGIN CTAB
M  V30 COUNTS 39 42 0 0 0
M  V30 BEGIN ATOM
M  V30 1 N 2.031538 -4.442466 3.465252 0
M  V30 2 C 1.762139 -3.490613 2.419942 0
M  V30 3 C 2.254815 -2.112162 2.727964 0
M  V30 4 C 1.910568 -1.232911 1.579845 0
M  V30 5 C 2.903296 -0.933594 0.662971 0
M  V30 6 C 2.616215 -0.147716 -0.412366 0
M  V30 7 C 3.642437 0.118225 -1.294740 0
M  V30 8 C 3.337824 0.914420 -2.378896 0
M  V30 9 N 2.098378 1.439444 -2.614927 0
M  V30 10 C 1.119782 1.162743 -1.737982 0
M  V30 11 O 0.067131 1.696791 -2.074120 0
M  V30 12 C 1.366532 0.377672 -0.644148 0
M  V30 13 C 0.371053 0.094901 0.249754 0
M  V30 14 C -0.889830 0.595469 0.072279 0
M  V30 15 C -1.906651 0.326663 0.966414 0
M  V30 16 C -3.291901 0.818124 0.862463 0
M  V30 17 C -3.915217 1.039729 -0.349587 0
M  V30 18 N -5.149025 1.478157 0.014334 0
M  V30 19 N -5.262376 1.518294 1.332885 0
M  V30 20 C -4.107246 1.107713 1.930414 0
M  V30 21 C -1.561491 -0.484166 2.055004 0
M  V30 22 C -0.303530 -1.007869 2.269222 0
M  V30 23 C 0.665996 -0.695240 1.328379 0
M  V30 24 H 1.346845 -4.342902 4.246076 0
M  V30 25 H 1.936141 -5.416311 3.104267 0
M  V30 26 H 0.702559 -3.539074 2.115117 0
M  V30 27 H 2.322404 -3.860820 1.507926 0
M  V30 28 H 3.357030 -2.138059 2.847082 0
M  V30 29 H 1.873247 -1.712852 3.687808 0
M  V30 30 H 3.909713 -1.328006 0.805200 0
M  V30 31 H 4.640776 -0.271803 -1.154944 0
M  V30 32 H 4.154618 1.112952 -3.061231 0
M  V30 33 H 2.034353 2.021085 -3.480515 0
M  V30 34 H -1.254909 1.216542 -0.713156 0
M  V30 35 H -3.604419 0.929480 -1.364934 0
M  V30 36 H -6.130423 1.826619 1.854594 0
M  V30 37 H -3.927555 1.043790 2.988652 0
M  V30 38 H -2.358109 -0.710475 2.780441 0
M  V30 39 H -0.175743 -1.612575 3.153374 0
M  V30 END ATOM
M  V30 BEGIN BOND
M  V30 1 1 1 2
M  V30 2 1 2 3
M  V30 3 1 3 4
M  V30 4 2 4 5
M  V30 5 1 5 6
M  V30 6 1 6 7
M  V30 7 2 7 8
M  V30 8 1 8 9
M  V30 9 1 9 10
M  V30 10 2 10 11
M  V30 11 1 10 12
M  V30 12 1 12 13
M  V30 13 2 13 14
M  V30 14 1 14 15
M  V30 15 1 15 16
M  V30 16 1 16 17
M  V30 17 2 17 18
M  V30 18 1 18 19
M  V30 19 1 19 20
M  V30 20 2 15 21
M  V30 21 1 21 22
M  V30 22 2 22 23
M  V30 23 1 23 4
M  V30 24 2 12 6
M  V30 25 1 23 13
M  V30 26 2 20 16
M  V30 27 1 1 24
M  V30 28 1 1 25
M  V30 29 1 2 26
M  V30 30 1 2 27
M  V30 31 1 3 28
M  V30 32 1 3 29
M  V30 33 1 5 30
M  V30 34 1 7 31
M  V30 35 1 8 32
M  V30 36 1 9 33
M  V30 37 1 14 34
M  V30 38 1 17 35
M  V30 39 1 19 36
M  V30 40 1 20 37
M  V30 41 1 21 38
M  V30 42 1 22 39
M  V30 END BOND
M  V30 END CTAB
M  END
>  <Dataset>  (422) 
ChEMBL_Kinases

>  <Ligand_Instance>  (422) 
nan

>  <PDB_ID>  (422) 
nan

>  <Standardized_SMILES>  (422) 
NCCc1cc2cc[nH]c(=O)c2c2cc(-c3cn[nH]c3)ccc12

>  <Name>  (422) 
nan

>  <Pocket>  (422) 
nan

>  <ATP_Site>  (422) 
nan

>  <Peripheral>  (422) 
nan

>  <Num_H_Atoms_ProtBoundConf>  (422) 
nan

>  <Num_Resolved_Atoms>  (422) 
nan

>  <Num_Not_Resolved_Atoms>  (422) 
nan

$$$$
CHEMBL4758769
     RDKit          3D

  0  0  0  0  0  0  0  0  0  0999 V3000
M  V30 BEGIN CTAB
M  V30 COUNTS 43 46 0 0 0
M  V30 BEGIN ATOM
M  V30 1 F 1.644675 -1.494055 5.686374 0
M  V30 2 C 2.673399 -1.978276 4.897793 0
M  V30 3 F 3.829198 -1.852004 5.639432 0
M  V30 4 F 2.498494 -3.311080 4.594714 0
M  V30 5 C 2.821207 -1.236387 3.634742 0
M  V30 6 C 3.961432 -0.496627 3.422976 0
M  V30 7 N 4.145441 0.241390 2.326101 0
M  V30 8 C 3.216969 0.288797 1.385053 0
M  V30 9 N 3.202818 0.972709 0.116762 0
M  V30 10 C 2.062144 1.110452 -0.719035 0
M  V30 11 C 2.134481 1.232492 -2.081456 0
M  V30 12 C 0.989956 1.382252 -2.830687 0
M  V30 13 C -0.247624 1.408658 -2.197096 0
M  V30 14 C -0.302773 1.286127 -0.822460 0
M  V30 15 C 0.847551 1.132343 -0.033668 0
M  V30 16 O -1.491654 1.301355 -0.071363 0
M  V30 17 C -2.838315 1.201727 -0.576577 0
M  V30 18 C -2.852730 0.198404 -1.736265 0
M  V30 19 C -2.600709 0.889167 -3.045010 0
M  V30 20 O -1.344489 1.562158 -3.070455 0
M  V30 21 N 2.127053 -0.434518 1.611210 0
M  V30 22 C 1.852387 -1.200679 2.668372 0
M  V30 23 N 0.659282 -1.958194 2.705619 0
M  V30 24 C -0.109472 -2.924997 3.388912 0
M  V30 25 C -1.471075 -3.329895 2.791894 0
M  V30 26 C -0.324326 -4.286894 2.805161 0
M  V30 27 H 4.762930 -0.497650 4.172921 0
M  V30 28 H 4.062084 1.423701 -0.279306 0
M  V30 29 H 3.110097 1.205482 -2.531007 0
M  V30 30 H 1.024578 1.482341 -3.904760 0
M  V30 31 H 0.591771 1.068440 0.993278 0
M  V30 32 H -3.427412 0.739837 0.237789 0
M  V30 33 H -3.226954 2.185170 -0.895349 0
M  V30 34 H -3.719838 -0.451118 -1.711545 0
M  V30 35 H -1.949982 -0.455698 -1.560221 0
M  V30 36 H -2.539069 0.089651 -3.814561 0
M  V30 37 H -3.433542 1.579736 -3.237685 0
M  V30 38 H 0.049513 -1.710472 1.866985 0
M  V30 39 H -0.203576 -2.789157 4.495037 0
M  V30 40 H -1.752973 -2.797521 1.855973 0
M  V30 41 H -2.305161 -3.549805 3.467506 0
M  V30 42 H -0.340860 -5.178117 3.428433 0
M  V30 43 H 0.190041 -4.428625 1.814264 0
M  V30 END ATOM
M  V30 BEGIN BOND
M  V30 1 1 1 2
M  V30 2 1 2 3
M  V30 3 1 2 4
M  V30 4 1 2 5
M  V30 5 2 5 6
M  V30 6 1 6 7
M  V30 7 2 7 8
M  V30 8 1 8 9
M  V30 9 1 9 10
M  V30 10 2 10 11
M  V30 11 1 11 12
M  V30 12 2 12 13
M  V30 13 1 13 14
M  V30 14 2 14 15
M  V30 15 1 14 16
M  V30 16 1 16 17
M  V30 17 1 17 18
M  V30 18 1 18 19
M  V30 19 1 19 20
M  V30 20 1 8 21
M  V30 21 2 21 22
M  V30 22 1 22 23
M  V30 23 1 23 24
M  V30 24 1 24 25
M  V30 25 1 25 26
M  V30 26 1 22 5
M  V30 27 1 26 24
M  V30 28 1 15 10
M  V30 29 1 20 13
M  V30 30 1 6 27
M  V30 31 1 9 28
M  V30 32 1 11 29
M  V30 33 1 12 30
M  V30 34 1 15 31
M  V30 35 1 17 32
M  V30 36 1 17 33
M  V30 37 1 18 34
M  V30 38 1 18 35
M  V30 39 1 19 36
M  V30 40 1 19 37
M  V30 41 1 23 38
M  V30 42 1 24 39
M  V30 43 1 25 40
M  V30 44 1 25 41
M  V30 45 1 26 42
M  V30 46 1 26 43
M  V30 END BOND
M  V30 END CTAB
M  END
>  <Dataset>  (423) 
ChEMBL_Kinases

>  <Ligand_Instance>  (423) 
nan

>  <PDB_ID>  (423) 
nan

>  <Standardized_SMILES>  (423) 
FC(F)(F)c1cnc(Nc2ccc3c(c2)OCCCO3)nc1NC1CC1

>  <Name>  (423) 
nan

>  <Pocket>  (423) 
nan

>  <ATP_Site>  (423) 
nan

>  <Peripheral>  (423) 
nan

>  <Num_H_Atoms_ProtBoundConf>  (423) 
nan

>  <Num_Resolved_Atoms>  (423) 
nan

>  <Num_Not_Resolved_Atoms>  (423) 
nan

$$$$
CHEMBL428398
     RDKit          3D

  0  0  0  0  0  0  0  0  0  0999 V3000
M  V30 BEGIN CTAB
M  V30 COUNTS 54 58 0 0 0
M  V30 BEGIN ATOM
M  V30 1 C 3.281450 -7.162580 2.348309 0
M  V30 2 C 3.020465 -5.681980 2.653301 0 CFG=1
M  V30 3 C 3.563812 -4.903799 1.501405 0
M  V30 4 C 3.206941 -3.448812 1.486132 0
M  V30 5 C 1.862146 -3.093315 1.956186 0 CFG=2
M  V30 6 N 1.877532 -1.855004 2.706181 0
M  V30 7 C 2.294653 -0.695976 2.017585 0
M  V30 8 C 1.513377 -0.259241 0.867152 0
M  V30 9 C 1.656804 -0.577557 -0.466913 0
M  V30 10 C 0.838984 -0.092100 -1.465169 0
M  V30 11 C -0.193074 0.765033 -1.143066 0
M  V30 12 C -0.393820 1.125862 0.174967 0
M  V30 13 C 0.450597 0.614596 1.140996 0
M  V30 14 C -1.559269 2.047364 0.240945 0
M  V30 15 C -1.996690 2.172944 -1.158265 0
M  V30 16 C -2.915423 2.758557 -2.015258 0
M  V30 17 C -3.985632 3.662001 -1.587064 0
M  V30 18 C -5.228748 3.394984 -2.167420 0
M  V30 19 C -6.345238 4.124814 -1.893870 0
M  V30 20 C -6.252857 5.175192 -1.006116 0
M  V30 21 C -5.024615 5.458512 -0.416766 0
M  V30 22 C -3.902803 4.699871 -0.712298 0
M  V30 23 N -2.642881 2.350017 -3.278429 0
M  V30 24 N -1.600086 1.536439 -3.267655 0
M  V30 25 C -1.191423 1.414691 -1.989543 0
M  V30 26 C 1.042426 -4.113610 2.664878 0
M  V30 27 C 1.528265 -5.511283 2.609658 0
M  V30 28 H 4.355927 -7.425411 2.456942 0
M  V30 29 H 2.618301 -7.834981 2.911448 0
M  V30 30 H 3.063124 -7.305639 1.256748 0
M  V30 31 H 3.483627 -5.440540 3.617211 0
M  V30 32 H 4.665470 -5.038390 1.517375 0
M  V30 33 H 3.161254 -5.386172 0.563692 0
M  V30 34 H 3.982346 -2.947211 2.140356 0
M  V30 35 H 3.449201 -3.096491 0.460611 0
M  V30 36 H 1.257665 -2.838714 1.033489 0
M  V30 37 H 2.402903 -1.937989 3.585041 0
M  V30 38 H 3.353583 -0.827632 1.640003 0
M  V30 39 H 2.369396 0.138060 2.741687 0
M  V30 40 H 2.472916 -1.247399 -0.682853 0
M  V30 41 H 1.068467 -0.429259 -2.484614 0
M  V30 42 H 0.242847 0.934882 2.159837 0
M  V30 43 H -2.344182 1.668048 0.924529 0
M  V30 44 H -1.170820 3.044360 0.556388 0
M  V30 45 H -5.378220 2.583591 -2.876050 0
M  V30 46 H -7.325381 3.968244 -2.307534 0
M  V30 47 H -7.066089 5.820459 -0.713957 0
M  V30 48 H -4.816027 6.258331 0.299167 0
M  V30 49 H -2.921297 4.861021 -0.294675 0
M  V30 50 H -1.234320 1.114969 -4.142531 0
M  V30 51 H -0.032365 -4.108134 2.386491 0
M  V30 52 H 1.048689 -3.836380 3.761754 0
M  V30 53 H 1.107405 -6.122764 3.435035 0
M  V30 54 H 1.171648 -5.997936 1.663248 0
M  V30 END ATOM
M  V30 BEGIN BOND
M  V30 1 1 1 2
M  V30 2 1 2 3
M  V30 3 1 3 4
M  V30 4 1 4 5
M  V30 5 1 5 6
M  V30 6 1 6 7
M  V30 7 1 7 8
M  V30 8 2 8 9
M  V30 9 1 9 10
M  V30 10 2 10 11
M  V30 11 1 11 12
M  V30 12 2 12 13
M  V30 13 1 12 14
M  V30 14 1 14 15
M  V30 15 1 15 16
M  V30 16 1 16 17
M  V30 17 2 17 18
M  V30 18 1 18 19
M  V30 19 2 19 20
M  V30 20 1 20 21
M  V30 21 2 21 22
M  V30 22 2 16 23
M  V30 23 1 23 24
M  V30 24 1 24 25
M  V30 25 1 5 26
M  V30 26 1 26 27
M  V30 27 1 27 2
M  V30 28 1 13 8
M  V30 29 2 25 15
M  V30 30 1 25 11
M  V30 31 1 22 17
M  V30 32 1 1 28
M  V30 33 1 1 29
M  V30 34 1 1 30
M  V30 35 1 2 31 CFG=1
M  V30 36 1 3 32
M  V30 37 1 3 33
M  V30 38 1 4 34
M  V30 39 1 4 35
M  V30 40 1 5 36 CFG=3
M  V30 41 1 6 37
M  V30 42 1 7 38
M  V30 43 1 7 39
M  V30 44 1 9 40
M  V30 45 1 10 41
M  V30 46 1 13 42
M  V30 47 1 14 43
M  V30 48 1 14 44
M  V30 49 1 18 45
M  V30 50 1 19 46
M  V30 51 1 20 47
M  V30 52 1 21 48
M  V30 53 1 22 49
M  V30 54 1 24 50
M  V30 55 1 26 51
M  V30 56 1 26 52
M  V30 57 1 27 53
M  V30 58 1 27 54
M  V30 END BOND
M  V30 END CTAB
M  END
>  <Dataset>  (424) 
ChEMBL_Kinases

>  <Ligand_Instance>  (424) 
nan

>  <PDB_ID>  (424) 
nan

>  <Standardized_SMILES>  (424) 
C[C@H]1CC[C@H](NCc2ccc3c(c2)Cc2c(-c4ccccc4)n[nH]c2-3)CC1

>  <Name>  (424) 
nan

>  <Pocket>  (424) 
nan

>  <ATP_Site>  (424) 
nan

>  <Peripheral>  (424) 
nan

>  <Num_H_Atoms_ProtBoundConf>  (424) 
nan

>  <Num_Resolved_Atoms>  (424) 
nan

>  <Num_Not_Resolved_Atoms>  (424) 
nan

$$$$
CHEMBL428392
     RDKit          3D

  0  0  0  0  0  0  0  0  0  0999 V3000
M  V30 BEGIN CTAB
M  V30 COUNTS 59 63 0 0 0
M  V30 BEGIN ATOM
M  V30 1 C 3.273788 -4.893225 3.913675 0
M  V30 2 C 3.470532 -3.435626 3.600783 0 CFG=1
M  V30 3 C 3.773397 -2.717617 4.899038 0
M  V30 4 C 3.590748 -1.222376 4.621620 0
M  V30 5 C 4.363199 -0.800889 3.401591 0 CFG=2
M  V30 6 N 3.543198 -0.356798 2.315412 0
M  V30 7 C 2.736357 0.780187 2.612324 0
M  V30 8 C 1.964103 1.080706 1.352584 0
M  V30 9 C 2.478546 1.937430 0.398243 0
M  V30 10 C 1.793314 2.239813 -0.780269 0
M  V30 11 C 0.550381 1.652864 -0.991213 0
M  V30 12 C 0.038545 0.797754 -0.037017 0
M  V30 13 C 0.718203 0.501000 1.126568 0
M  V30 14 C -1.296850 0.266984 -0.432324 0
M  V30 15 C -1.533014 0.906090 -1.747195 0
M  V30 16 C -2.448202 0.995705 -2.788625 0
M  V30 17 C -3.727804 0.267388 -2.796728 0
M  V30 18 C -4.522887 0.237169 -1.671720 0
M  V30 19 C -5.735206 -0.444347 -1.656521 0
M  V30 20 C -6.119974 -1.096034 -2.816591 0
M  V30 21 C -7.418622 -1.829146 -2.808760 0
M  V30 22 N -8.533494 -1.015339 -3.216825 0
M  V30 23 C -5.317732 -1.063210 -3.945389 0
M  V30 24 C -4.110388 -0.382691 -3.955798 0
M  V30 25 N -1.897734 1.848456 -3.701763 0
M  V30 26 N -0.725915 2.259194 -3.260467 0
M  V30 27 C -0.441643 1.715096 -2.060386 0
M  V30 28 C 5.313180 -1.898730 3.017563 0
M  V30 29 C 4.591415 -3.172690 2.629786 0
M  V30 30 H 4.128662 -5.362972 4.440645 0
M  V30 31 H 2.962591 -5.445948 2.994790 0
M  V30 32 H 2.400005 -4.945593 4.602758 0
M  V30 33 H 2.494707 -3.056030 3.227729 0
M  V30 34 H 4.749673 -2.953235 5.320395 0
M  V30 35 H 2.990753 -2.990049 5.634414 0
M  V30 36 H 2.497466 -1.102053 4.477633 0
M  V30 37 H 3.976179 -0.707021 5.526408 0
M  V30 38 H 5.019404 0.074644 3.684315 0
M  V30 39 H 3.978747 -0.402051 1.394067 0
M  V30 40 H 1.962469 0.503046 3.351243 0
M  V30 41 H 3.316907 1.687243 2.873774 0
M  V30 42 H 3.453138 2.381788 0.590531 0
M  V30 43 H 2.194964 2.909538 -1.526705 0
M  V30 44 H 0.348695 -0.163439 1.895114 0
M  V30 45 H -2.077958 0.527219 0.309342 0
M  V30 46 H -1.314838 -0.826743 -0.567421 0
M  V30 47 H -4.218867 0.744330 -0.776270 0
M  V30 48 H -6.328081 -0.443099 -0.753538 0
M  V30 49 H -7.582929 -2.321260 -1.821141 0
M  V30 50 H -7.348724 -2.680408 -3.545919 0
M  V30 51 H -8.160814 -0.277343 -3.854543 0
M  V30 52 H -9.287724 -1.583045 -3.654582 0
M  V30 53 H -5.680811 -1.593662 -4.814899 0
M  V30 54 H -3.502334 -0.377743 -4.863729 0
M  V30 55 H -0.085400 2.924479 -3.767454 0
M  V30 56 H 5.969241 -2.087855 3.915165 0
M  V30 57 H 5.986964 -1.566427 2.206843 0
M  V30 58 H 4.155580 -3.036788 1.628085 0
M  V30 59 H 5.301759 -4.001576 2.660899 0
M  V30 END ATOM
M  V30 BEGIN BOND
M  V30 1 1 1 2
M  V30 2 1 2 3
M  V30 3 1 3 4
M  V30 4 1 4 5
M  V30 5 1 5 6
M  V30 6 1 6 7
M  V30 7 1 7 8
M  V30 8 2 8 9
M  V30 9 1 9 10
M  V30 10 2 10 11
M  V30 11 1 11 12
M  V30 12 2 12 13
M  V30 13 1 12 14
M  V30 14 1 14 15
M  V30 15 1 15 16
M  V30 16 1 16 17
M  V30 17 2 17 18
M  V30 18 1 18 19
M  V30 19 2 19 20
M  V30 20 1 20 21
M  V30 21 1 21 22
M  V30 22 1 20 23
M  V30 23 2 23 24
M  V30 24 2 16 25
M  V30 25 1 25 26
M  V30 26 1 26 27
M  V30 27 1 5 28
M  V30 28 1 28 29
M  V30 29 1 29 2
M  V30 30 1 13 8
M  V30 31 2 27 15
M  V30 32 1 27 11
M  V30 33 1 24 17
M  V30 34 1 1 30
M  V30 35 1 1 31
M  V30 36 1 1 32
M  V30 37 1 2 33 CFG=3
M  V30 38 1 3 34
M  V30 39 1 3 35
M  V30 40 1 4 36
M  V30 41 1 4 37
M  V30 42 1 5 38 CFG=1
M  V30 43 1 6 39
M  V30 44 1 7 40
M  V30 45 1 7 41
M  V30 46 1 9 42
M  V30 47 1 10 43
M  V30 48 1 13 44
M  V30 49 1 14 45
M  V30 50 1 14 46
M  V30 51 1 18 47
M  V30 52 1 19 48
M  V30 53 1 21 49
M  V30 54 1 21 50
M  V30 55 1 22 51
M  V30 56 1 22 52
M  V30 57 1 23 53
M  V30 58 1 24 54
M  V30 59 1 26 55
M  V30 60 1 28 56
M  V30 61 1 28 57
M  V30 62 1 29 58
M  V30 63 1 29 59
M  V30 END BOND
M  V30 END CTAB
M  END
>  <Dataset>  (425) 
ChEMBL_Kinases

>  <Ligand_Instance>  (425) 
nan

>  <PDB_ID>  (425) 
nan

>  <Standardized_SMILES>  (425) 
C[C@H]1CC[C@H](NCc2ccc3c(c2)Cc2c(-c4ccc(CN)cc4)n[nH]c2-3)CC1

>  <Name>  (425) 
nan

>  <Pocket>  (425) 
nan

>  <ATP_Site>  (425) 
nan

>  <Peripheral>  (425) 
nan

>  <Num_H_Atoms_ProtBoundConf>  (425) 
nan

>  <Num_Resolved_Atoms>  (425) 
nan

>  <Num_Not_Resolved_Atoms>  (425) 
nan

$$$$
CHEMBL4283909
     RDKit          3D

  0  0  0  0  0  0  0  0  0  0999 V3000
M  V30 BEGIN CTAB
M  V30 COUNTS 24 25 0 0 0
M  V30 BEGIN ATOM
M  V30 1 C 1.626298 -2.046844 -0.739130 0
M  V30 2 C 0.998083 -2.092560 0.608062 0
M  V30 3 N 0.852846 -3.220924 1.343490 0
M  V30 4 N 0.265109 -2.956156 2.487235 0
M  V30 5 C 0.009326 -1.641687 2.530133 0
M  V30 6 N -0.601866 -0.825759 3.514471 0
M  V30 7 C 0.470231 -1.076623 1.340124 0
M  V30 8 C 0.463884 0.292759 0.834141 0
M  V30 9 C -0.665507 0.646404 0.096691 0
M  V30 10 C -0.772308 1.921329 -0.428734 0
M  V30 11 C 0.256188 2.802800 -0.198921 0
M  V30 12 Cl 0.134859 4.424967 -0.859643 0
M  V30 13 C 1.398890 2.492601 0.529743 0
M  V30 14 Cl 2.689201 3.631188 0.806028 0
M  V30 15 C 1.468903 1.217419 1.035473 0
M  V30 16 H 2.225347 -1.105793 -0.774140 0
M  V30 17 H 2.282112 -2.916834 -0.922080 0
M  V30 18 H 0.834971 -1.960796 -1.509496 0
M  V30 19 H 1.159332 -4.180034 1.058481 0
M  V30 20 H 0.131199 -0.420862 4.137276 0
M  V30 21 H -1.551328 -0.526110 3.781985 0
M  V30 22 H -1.515894 -0.000445 -0.123418 0
M  V30 23 H -1.637869 2.237657 -1.010551 0
M  V30 24 H 2.330130 0.896046 1.616790 0
M  V30 END ATOM
M  V30 BEGIN BOND
M  V30 1 1 1 2
M  V30 2 1 2 3
M  V30 3 1 3 4
M  V30 4 2 4 5
M  V30 5 1 5 6
M  V30 6 1 5 7
M  V30 7 1 7 8
M  V30 8 2 8 9
M  V30 9 1 9 10
M  V30 10 2 10 11
M  V30 11 1 11 12
M  V30 12 1 11 13
M  V30 13 1 13 14
M  V30 14 2 13 15
M  V30 15 2 7 2
M  V30 16 1 15 8
M  V30 17 1 1 16
M  V30 18 1 1 17
M  V30 19 1 1 18
M  V30 20 1 3 19
M  V30 21 1 6 20
M  V30 22 1 6 21
M  V30 23 1 9 22
M  V30 24 1 10 23
M  V30 25 1 15 24
M  V30 END BOND
M  V30 END CTAB
M  END
>  <Dataset>  (426) 
ChEMBL_Kinases

>  <Ligand_Instance>  (426) 
nan

>  <PDB_ID>  (426) 
nan

>  <Standardized_SMILES>  (426) 
Cc1[nH]nc(N)c1-c1ccc(Cl)c(Cl)c1

>  <Name>  (426) 
nan

>  <Pocket>  (426) 
nan

>  <ATP_Site>  (426) 
nan

>  <Peripheral>  (426) 
nan

>  <Num_H_Atoms_ProtBoundConf>  (426) 
nan

>  <Num_Resolved_Atoms>  (426) 
nan

>  <Num_Not_Resolved_Atoms>  (426) 
nan

$$$$
CHEMBL4758811
     RDKit          3D

  0  0  0  0  0  0  0  0  0  0999 V3000
M  V30 BEGIN CTAB
M  V30 COUNTS 38 40 0 0 0
M  V30 BEGIN ATOM
M  V30 1 O -0.851943 -1.493051 0.368301 0
M  V30 2 C -0.602487 -2.696763 0.688763 0
M  V30 3 N 0.699512 -2.894655 1.249074 0
M  V30 4 C 1.345963 -1.601987 1.273004 0
M  V30 5 C 1.138268 -0.881640 2.431711 0
M  V30 6 C 1.745328 0.379196 2.502405 0
M  V30 7 C 2.496605 0.803358 1.422940 0
M  V30 8 O 3.123874 2.064860 1.453562 0
M  V30 9 C 2.472056 3.198269 0.988086 0
M  V30 10 C 1.174597 3.159647 0.468556 0
M  V30 11 C 0.551236 4.309094 0.011782 0
M  V30 12 C 1.214289 5.525991 0.064944 0
M  V30 13 C 2.511359 5.548283 0.587211 0
M  V30 14 C 3.143813 4.390248 1.049197 0
M  V30 15 C 2.684721 0.052639 0.272529 0
M  V30 16 C 2.092925 -1.199618 0.179856 0
M  V30 17 C -1.629774 -3.710810 0.460580 0
M  V30 18 C -1.399965 -5.020923 0.792572 0
M  V30 19 C -2.352998 -6.002013 0.588265 0
M  V30 20 Cl -2.075148 -7.688834 1.008477 0
M  V30 21 C -3.586227 -5.688509 0.034518 0
M  V30 22 C -3.783823 -4.369783 -0.286080 0
M  V30 23 Cl -5.319359 -3.858423 -0.997692 0
M  V30 24 C -2.861794 -3.353380 -0.100708 0
M  V30 25 O -3.127191 -2.031212 -0.449230 0
M  V30 26 H 0.909929 -3.897341 1.517079 0
M  V30 27 H 0.549566 -1.249446 3.241188 0
M  V30 28 H 1.624413 0.995112 3.378837 0
M  V30 29 H 0.709991 2.174892 0.454724 0
M  V30 30 H -0.459757 4.241005 -0.386301 0
M  V30 31 H 0.758309 6.445307 -0.283107 0
M  V30 32 H 2.995670 6.517962 0.611702 0
M  V30 33 H 4.158717 4.460674 1.448451 0
M  V30 34 H 3.277377 0.407616 -0.558107 0
M  V30 35 H 2.194370 -1.841619 -0.684108 0
M  V30 36 H -0.473669 -5.368613 1.229000 0
M  V30 37 H -4.398812 -6.378849 -0.166400 0
M  V30 38 H -3.175223 -1.267816 0.216601 0
M  V30 END ATOM
M  V30 BEGIN BOND
M  V30 1 2 1 2
M  V30 2 1 2 3
M  V30 3 1 3 4
M  V30 4 2 4 5
M  V30 5 1 5 6
M  V30 6 2 6 7
M  V30 7 1 7 8
M  V30 8 1 8 9
M  V30 9 2 9 10
M  V30 10 1 10 11
M  V30 11 2 11 12
M  V30 12 1 12 13
M  V30 13 2 13 14
M  V30 14 1 7 15
M  V30 15 2 15 16
M  V30 16 1 2 17
M  V30 17 2 17 18
M  V30 18 1 18 19
M  V30 19 1 19 20
M  V30 20 2 19 21
M  V30 21 1 21 22
M  V30 22 1 22 23
M  V30 23 2 22 24
M  V30 24 1 24 25
M  V30 25 1 16 4
M  V30 26 1 24 17
M  V30 27 1 14 9
M  V30 28 1 3 26
M  V30 29 1 5 27
M  V30 30 1 6 28
M  V30 31 1 10 29
M  V30 32 1 11 30
M  V30 33 1 12 31
M  V30 34 1 13 32
M  V30 35 1 14 33
M  V30 36 1 15 34
M  V30 37 1 16 35
M  V30 38 1 18 36
M  V30 39 1 21 37
M  V30 40 1 25 38
M  V30 END BOND
M  V30 END CTAB
M  END
>  <Dataset>  (427) 
ChEMBL_Kinases

>  <Ligand_Instance>  (427) 
nan

>  <PDB_ID>  (427) 
nan

>  <Standardized_SMILES>  (427) 
O=C(Nc1ccc(Oc2ccccc2)cc1)c1cc(Cl)cc(Cl)c1O

>  <Name>  (427) 
nan

>  <Pocket>  (427) 
nan

>  <ATP_Site>  (427) 
nan

>  <Peripheral>  (427) 
nan

>  <Num_H_Atoms_ProtBoundConf>  (427) 
nan

>  <Num_Resolved_Atoms>  (427) 
nan

>  <Num_Not_Resolved_Atoms>  (427) 
nan

$$$$
CHEMBL4758812
     RDKit          3D

  0  0  0  0  0  0  0  0  0  0999 V3000
M  V30 BEGIN CTAB
M  V30 COUNTS 33 35 0 0 0
M  V30 BEGIN ATOM
M  V30 1 C 0.418322 -2.304995 4.734155 0
M  V30 2 C -0.116830 -2.734792 3.399612 0
M  V30 3 O 0.471270 -2.109429 2.305756 0
M  V30 4 C 1.798314 -2.129123 1.939452 0
M  V30 5 O 2.617511 -2.773952 2.642759 0
M  V30 6 C 2.202711 -1.395800 0.741726 0
M  V30 7 C 3.508509 -1.358809 0.298560 0
M  V30 8 N 3.801669 -0.659209 -0.816455 0
M  V30 9 C 2.880404 0.019192 -1.538708 0
M  V30 10 N 3.219027 0.750936 -2.714481 0
M  V30 11 N 1.597845 0.000512 -1.129363 0
M  V30 12 N 0.486388 0.544621 -1.597704 0
M  V30 13 C -0.558107 0.220113 -0.809980 0
M  V30 14 C -1.984341 0.534480 -0.847102 0
M  V30 15 C -2.421395 1.194217 0.290640 0
M  V30 16 C -3.752145 1.553508 0.390636 0
M  V30 17 N -4.641622 1.276305 -0.597703 0
M  V30 18 C -4.197683 0.640864 -1.682621 0
M  V30 19 C -2.890173 0.252939 -1.852069 0
M  V30 20 N -0.038635 -0.551307 0.168566 0
M  V30 21 C 1.288428 -0.693154 -0.018221 0
M  V30 22 H -0.393344 -2.492840 5.493241 0
M  V30 23 H 0.553690 -1.195848 4.755370 0
M  V30 24 H 1.333709 -2.847073 5.016264 0
M  V30 25 H -0.122670 -3.834935 3.328983 0
M  V30 26 H -1.192482 -2.437310 3.385340 0
M  V30 27 H 4.282613 -1.887140 0.844185 0
M  V30 28 H 2.500039 0.875064 -3.460723 0
M  V30 29 H 2.520458 0.885207 -3.465946 0
M  V30 30 H -1.785718 1.459876 1.134762 0
M  V30 31 H -4.100916 2.075003 1.288404 0
M  V30 32 H -4.880287 0.403918 -2.490490 0
M  V30 33 H -2.463578 -0.263111 -2.701734 0
M  V30 END ATOM
M  V30 BEGIN BOND
M  V30 1 1 1 2
M  V30 2 1 2 3
M  V30 3 1 3 4
M  V30 4 2 4 5
M  V30 5 1 4 6
M  V30 6 2 6 7
M  V30 7 1 7 8
M  V30 8 2 8 9
M  V30 9 1 9 10
M  V30 10 1 9 11
M  V30 11 1 11 12
M  V30 12 2 12 13
M  V30 13 1 13 14
M  V30 14 2 14 15
M  V30 15 1 15 16
M  V30 16 2 16 17
M  V30 17 1 17 18
M  V30 18 2 18 19
M  V30 19 1 13 20
M  V30 20 2 20 21
M  V30 21 1 21 6
M  V30 22 1 21 11
M  V30 23 1 19 14
M  V30 24 1 1 22
M  V30 25 1 1 23
M  V30 26 1 1 24
M  V30 27 1 2 25
M  V30 28 1 2 26
M  V30 29 1 7 27
M  V30 30 1 10 28
M  V30 31 1 10 29
M  V30 32 1 15 30
M  V30 33 1 16 31
M  V30 34 1 18 32
M  V30 35 1 19 33
M  V30 END BOND
M  V30 END CTAB
M  END
>  <Dataset>  (428) 
ChEMBL_Kinases

>  <Ligand_Instance>  (428) 
nan

>  <PDB_ID>  (428) 
nan

>  <Standardized_SMILES>  (428) 
CCOC(=O)c1cnc(N)n2nc(-c3ccncc3)nc12

>  <Name>  (428) 
nan

>  <Pocket>  (428) 
nan

>  <ATP_Site>  (428) 
nan

>  <Peripheral>  (428) 
nan

>  <Num_H_Atoms_ProtBoundConf>  (428) 
nan

>  <Num_Resolved_Atoms>  (428) 
nan

>  <Num_Not_Resolved_Atoms>  (428) 
nan

$$$$
CHEMBL4758817
     RDKit          3D

  0  0  0  0  0  0  0  0  0  0999 V3000
M  V30 BEGIN CTAB
M  V30 COUNTS 48 51 0 0 0
M  V30 BEGIN ATOM
M  V30 1 C -1.677861 -3.130078 -2.321200 0
M  V30 2 C -1.761751 -2.828791 -0.861377 0
M  V30 3 C -1.914058 -4.181635 -0.147426 0
M  V30 4 C -0.460170 -2.236816 -0.388532 0
M  V30 5 C -0.631816 -0.939830 0.336426 0
M  V30 6 C 0.625306 -0.465336 0.729410 0
M  V30 7 C 0.747520 0.724921 1.424253 0
M  V30 8 O 1.848883 1.373631 1.902193 0
M  V30 9 C 3.184683 0.996493 1.807508 0
M  V30 10 C 3.870101 0.750596 3.128669 0
M  V30 11 C 3.638234 1.928453 4.019416 0
M  V30 12 N 3.876276 3.142221 3.277641 0
M  V30 13 C 4.736245 2.909829 2.148360 0
M  V30 14 C 4.058121 2.041606 1.097922 0
M  V30 15 C -0.417894 1.439781 1.722674 0
M  V30 16 C -1.671327 0.961906 1.328076 0
M  V30 17 C -1.759570 -0.209626 0.647127 0
M  V30 18 C -3.004246 -0.802714 0.183857 0
M  V30 19 N -4.150661 -0.157677 0.442664 0
M  V30 20 C -5.316867 -0.679031 0.027285 0
M  V30 21 N -5.272778 -1.844571 -0.640109 0
M  V30 22 C -4.147344 -2.501872 -0.908181 0
M  V30 23 N -4.398649 -3.698320 -1.622570 0
M  V30 24 C -2.928531 -1.998028 -0.497646 0
M  V30 25 H -1.899273 -4.186078 -2.545018 0
M  V30 26 H -2.261490 -2.424831 -2.949314 0
M  V30 27 H -0.626710 -2.983008 -2.642472 0
M  V30 28 H -0.870710 -4.615140 -0.147476 0
M  V30 29 H -2.213749 -4.057358 0.910383 0
M  V30 30 H -2.527640 -4.889232 -0.724032 0
M  V30 31 H 0.220721 -2.106862 -1.258783 0
M  V30 32 H 0.010698 -2.915830 0.372107 0
M  V30 33 H 1.589556 -0.916144 0.563313 0
M  V30 34 H 3.248345 0.045487 1.238354 0
M  V30 35 H 4.959289 0.665944 2.942100 0
M  V30 36 H 3.571400 -0.211172 3.589574 0
M  V30 37 H 4.300260 1.848960 4.914456 0
M  V30 38 H 2.570457 1.976117 4.383800 0
M  V30 39 H 2.953007 3.526743 2.984326 0
M  V30 40 H 4.940875 3.887592 1.668134 0
M  V30 41 H 5.702174 2.490528 2.434120 0
M  V30 42 H 4.861425 1.486121 0.578279 0
M  V30 43 H 3.503835 2.636046 0.367537 0
M  V30 44 H -0.476101 2.396645 2.266151 0
M  V30 45 H -2.586065 1.467556 1.530535 0
M  V30 46 H -6.219314 -0.127526 0.256123 0
M  V30 47 H -4.292159 -4.115579 -2.587695 0
M  V30 48 H -4.786653 -4.641304 -1.486214 0
M  V30 END ATOM
M  V30 BEGIN BOND
M  V30 1 1 1 2
M  V30 2 1 2 3
M  V30 3 1 2 4
M  V30 4 1 4 5
M  V30 5 2 5 6
M  V30 6 1 6 7
M  V30 7 1 7 8
M  V30 8 1 8 9
M  V30 9 1 9 10
M  V30 10 1 10 11
M  V30 11 1 11 12
M  V30 12 1 12 13
M  V30 13 1 13 14
M  V30 14 2 7 15
M  V30 15 1 15 16
M  V30 16 2 16 17
M  V30 17 1 17 18
M  V30 18 2 18 19
M  V30 19 1 19 20
M  V30 20 2 20 21
M  V30 21 1 21 22
M  V30 22 1 22 23
M  V30 23 2 22 24
M  V30 24 1 24 2
M  V30 25 1 17 5
M  V30 26 1 24 18
M  V30 27 1 14 9
M  V30 28 1 1 25
M  V30 29 1 1 26
M  V30 30 1 1 27
M  V30 31 1 3 28
M  V30 32 1 3 29
M  V30 33 1 3 30
M  V30 34 1 4 31
M  V30 35 1 4 32
M  V30 36 1 6 33
M  V30 37 1 9 34
M  V30 38 1 10 35
M  V30 39 1 10 36
M  V30 40 1 11 37
M  V30 41 1 11 38
M  V30 42 1 12 39
M  V30 43 1 13 40
M  V30 44 1 13 41
M  V30 45 1 14 42
M  V30 46 1 14 43
M  V30 47 1 15 44
M  V30 48 1 16 45
M  V30 49 1 20 46
M  V30 50 1 23 47
M  V30 51 1 23 48
M  V30 END BOND
M  V30 END CTAB
M  END
>  <Dataset>  (429) 
ChEMBL_Kinases

>  <Ligand_Instance>  (429) 
nan

>  <PDB_ID>  (429) 
nan

>  <Standardized_SMILES>  (429) 
CC1(C)Cc2cc(OC3CCNCC3)ccc2-c2ncnc(N)c21

>  <Name>  (429) 
nan

>  <Pocket>  (429) 
nan

>  <ATP_Site>  (429) 
nan

>  <Peripheral>  (429) 
nan

>  <Num_H_Atoms_ProtBoundConf>  (429) 
nan

>  <Num_Resolved_Atoms>  (429) 
nan

>  <Num_Not_Resolved_Atoms>  (429) 
nan

$$$$
CHEMBL4758821
     RDKit          3D

  0  0  0  0  0  0  0  0  0  0999 V3000
M  V30 BEGIN CTAB
M  V30 COUNTS 51 53 0 0 0
M  V30 BEGIN ATOM
M  V30 1 C 4.769177 -5.432105 2.626225 0
M  V30 2 C 4.767948 -3.950987 2.818289 0
M  V30 3 O 5.680125 -3.465868 3.564777 0
M  V30 4 N 3.816724 -3.087656 2.218250 0
M  V30 5 C 3.873470 -1.636358 2.449837 0 CFG=2
M  V30 6 C 2.630946 -1.258393 3.167591 0
M  V30 7 C 2.206615 0.165014 3.075060 0
M  V30 8 C 2.969031 0.958554 2.046604 0
M  V30 9 C 3.152537 0.127912 0.808836 0 CFG=2
M  V30 10 C 1.921623 -0.466351 0.297329 0
M  V30 11 O 1.736273 -1.717006 0.172629 0
M  V30 12 N 0.837034 0.367514 -0.097642 0
M  V30 13 C -0.368721 -0.213510 -0.598673 0
M  V30 14 C -1.409036 0.642313 -0.975194 0
M  V30 15 C -2.517340 -0.029996 -1.441392 0
M  V30 16 C -3.698555 0.744244 -1.876983 0
M  V30 17 C -4.201589 1.324050 -3.016333 0
M  V30 18 N -5.363958 1.890202 -2.698463 0
M  V30 19 N -5.626361 1.696219 -1.399395 0
M  V30 20 C -6.850195 2.233660 -0.841091 0
M  V30 21 C -4.618439 0.990327 -0.855133 0
M  V30 22 C -4.718184 0.663711 0.603281 0
M  V30 23 C -2.645200 -1.397298 -1.548162 0
M  V30 24 Cl -4.109524 -2.148111 -2.158474 0
M  V30 25 C -1.568945 -2.177790 -1.154326 0
M  V30 26 N -0.478020 -1.538638 -0.696361 0
M  V30 27 C 4.101702 -0.997210 1.118617 0
M  V30 28 H 4.016841 -5.871119 3.316459 0
M  V30 29 H 5.769147 -5.841676 2.833366 0
M  V30 30 H 4.417397 -5.663415 1.598817 0
M  V30 31 H 3.121713 -3.604661 1.630293 0
M  V30 32 H 4.749383 -1.507525 3.122814 0
M  V30 33 H 1.809114 -1.979132 2.912358 0
M  V30 34 H 2.802463 -1.456293 4.267018 0
M  V30 35 H 1.119523 0.165328 2.770751 0
M  V30 36 H 2.218312 0.718093 4.037761 0
M  V30 37 H 4.002242 1.118351 2.468678 0
M  V30 38 H 2.520097 1.936562 1.900669 0
M  V30 39 H 3.585813 0.782552 0.023229 0
M  V30 40 H 0.940646 1.401161 -0.014204 0
M  V30 41 H -1.362940 1.719173 -0.912718 0
M  V30 42 H -3.580482 1.206903 -3.893183 0
M  V30 43 H -7.038993 1.823521 0.177555 0
M  V30 44 H -7.730126 1.936743 -1.454739 0
M  V30 45 H -6.770351 3.342839 -0.804384 0
M  V30 46 H -3.777922 0.206536 0.982134 0
M  V30 47 H -4.849948 1.625058 1.163337 0
M  V30 48 H -5.606454 0.064676 0.813027 0
M  V30 49 H -1.590194 -3.247148 -1.206667 0
M  V30 50 H 4.056818 -1.716513 0.274912 0
M  V30 51 H 5.136469 -0.573165 1.107672 0
M  V30 END ATOM
M  V30 BEGIN BOND
M  V30 1 1 1 2
M  V30 2 2 2 3
M  V30 3 1 2 4
M  V30 4 1 4 5
M  V30 5 1 5 6
M  V30 6 1 6 7
M  V30 7 1 7 8
M  V30 8 1 8 9
M  V30 9 1 9 10
M  V30 10 2 10 11
M  V30 11 1 10 12
M  V30 12 1 12 13
M  V30 13 2 13 14
M  V30 14 1 14 15
M  V30 15 1 15 16
M  V30 16 1 16 17
M  V30 17 2 17 18
M  V30 18 1 18 19
M  V30 19 1 19 20
M  V30 20 1 19 21
M  V30 21 1 21 22
M  V30 22 2 15 23
M  V30 23 1 23 24
M  V30 24 1 23 25
M  V30 25 2 25 26
M  V30 26 1 9 27
M  V30 27 1 27 5
M  V30 28 1 26 13
M  V30 29 2 21 16
M  V30 30 1 1 28
M  V30 31 1 1 29
M  V30 32 1 1 30
M  V30 33 1 4 31
M  V30 34 1 5 32 CFG=1
M  V30 35 1 6 33
M  V30 36 1 6 34
M  V30 37 1 7 35
M  V30 38 1 7 36
M  V30 39 1 8 37
M  V30 40 1 8 38
M  V30 41 1 9 39 CFG=3
M  V30 42 1 12 40
M  V30 43 1 14 41
M  V30 44 1 17 42
M  V30 45 1 20 43
M  V30 46 1 20 44
M  V30 47 1 20 45
M  V30 48 1 22 46
M  V30 49 1 22 47
M  V30 50 1 22 48
M  V30 51 1 25 49
M  V30 52 1 27 50
M  V30 53 1 27 51
M  V30 END BOND
M  V30 END CTAB
M  END
>  <Dataset>  (430) 
ChEMBL_Kinases

>  <Ligand_Instance>  (430) 
nan

>  <PDB_ID>  (430) 
nan

>  <Standardized_SMILES>  (430) 
CC(=O)N[C@@H]1CCC[C@H](C(=O)Nc2cc(-c3cnn(C)c3C)c(Cl)cn2)C1

>  <Name>  (430) 
nan

>  <Pocket>  (430) 
nan

>  <ATP_Site>  (430) 
nan

>  <Peripheral>  (430) 
nan

>  <Num_H_Atoms_ProtBoundConf>  (430) 
nan

>  <Num_Resolved_Atoms>  (430) 
nan

>  <Num_Not_Resolved_Atoms>  (430) 
nan

$$$$
CHEMBL4758856
     RDKit          3D

  0  0  0  0  0  0  0  0  0  0999 V3000
M  V30 BEGIN CTAB
M  V30 COUNTS 30 32 0 0 0
M  V30 BEGIN ATOM
M  V30 1 O 0.274176 -2.847106 1.827845 0
M  V30 2 C 0.518629 -1.691792 1.393298 0
M  V30 3 C 1.810151 -1.331301 1.062506 0
M  V30 4 C 2.846316 -2.255083 1.212135 0
M  V30 5 C 4.129042 -1.846602 0.866331 0
M  V30 6 Cl 5.420805 -3.025582 1.062213 0
M  V30 7 C 4.450971 -0.585404 0.383106 0
M  V30 8 C 3.402477 0.312501 0.244316 0
M  V30 9 C 2.133114 -0.079967 0.582496 0
M  V30 10 N 1.108872 0.771204 0.455793 0
M  V30 11 C 1.047884 2.036847 0.032558 0
M  V30 12 S 2.162752 3.075227 -0.501811 0
M  V30 13 N -0.221481 2.463416 0.090507 0
M  V30 14 N -0.965174 1.447465 0.557564 0
M  V30 15 C -0.139969 0.397856 0.784127 0
M  V30 16 N -0.496078 -0.813000 1.255612 0
M  V30 17 C -1.872596 -1.131799 1.585795 0
M  V30 18 C -2.634596 -1.700475 0.432745 0
M  V30 19 C -4.081721 -2.019128 0.835907 0
M  V30 20 F -4.798729 -2.541325 -0.205274 0
M  V30 21 F -4.731788 -0.871876 1.264830 0
M  V30 22 F -4.076341 -2.898453 1.902151 0
M  V30 23 H 2.676507 -3.260334 1.583354 0
M  V30 24 H 5.478685 -0.351013 0.137824 0
M  V30 25 H 3.700675 1.268496 -0.130675 0
M  V30 26 H -0.735265 3.349749 -0.130218 0
M  V30 27 H -1.909754 -1.861618 2.411720 0
M  V30 28 H -2.433762 -0.249270 1.943123 0
M  V30 29 H -2.228128 -2.703254 0.115731 0
M  V30 30 H -2.632800 -1.075519 -0.472704 0
M  V30 END ATOM
M  V30 BEGIN BOND
M  V30 1 2 1 2
M  V30 2 1 2 3
M  V30 3 2 3 4
M  V30 4 1 4 5
M  V30 5 1 5 6
M  V30 6 2 5 7
M  V30 7 1 7 8
M  V30 8 2 8 9
M  V30 9 1 9 10
M  V30 10 1 10 11
M  V30 11 2 11 12
M  V30 12 1 11 13
M  V30 13 1 13 14
M  V30 14 2 14 15
M  V30 15 1 15 16
M  V30 16 1 16 17
M  V30 17 1 17 18
M  V30 18 1 18 19
M  V30 19 1 19 20
M  V30 20 1 19 21
M  V30 21 1 19 22
M  V30 22 1 16 2
M  V30 23 1 9 3
M  V30 24 1 15 10
M  V30 25 1 4 23
M  V30 26 1 7 24
M  V30 27 1 8 25
M  V30 28 1 13 26
M  V30 29 1 17 27
M  V30 30 1 17 28
M  V30 31 1 18 29
M  V30 32 1 18 30
M  V30 END BOND
M  V30 END CTAB
M  END
>  <Dataset>  (431) 
ChEMBL_Kinases

>  <Ligand_Instance>  (431) 
nan

>  <PDB_ID>  (431) 
nan

>  <Standardized_SMILES>  (431) 
O=c1c2cc(Cl)ccc2n2c(=S)[nH]nc2n1CCC(F)(F)F

>  <Name>  (431) 
nan

>  <Pocket>  (431) 
nan

>  <ATP_Site>  (431) 
nan

>  <Peripheral>  (431) 
nan

>  <Num_H_Atoms_ProtBoundConf>  (431) 
nan

>  <Num_Resolved_Atoms>  (431) 
nan

>  <Num_Not_Resolved_Atoms>  (431) 
nan

$$$$
CHEMBL4283832
     RDKit          3D

  0  0  0  0  0  0  0  0  0  0999 V3000
M  V30 BEGIN CTAB
M  V30 COUNTS 36 38 0 0 0
M  V30 BEGIN ATOM
M  V30 1 C -1.051767 -1.076679 2.644564 0
M  V30 2 C -0.314844 -0.824118 1.373244 0
M  V30 3 N 0.086722 -1.740114 0.473665 0
M  V30 4 N 0.716771 -1.179485 -0.545695 0
M  V30 5 C 1.292039 -1.808773 -1.700446 0
M  V30 6 O 1.852385 -1.075487 -2.557077 0
M  V30 7 C 1.218852 -3.272583 -1.860552 0
M  V30 8 C 1.867598 -4.058145 -0.744790 0
M  V30 9 C 0.656890 -4.931121 -0.683830 0
M  V30 10 C -0.082008 -3.937823 -1.556214 0
M  V30 11 C 0.706822 0.137788 -0.269345 0
M  V30 12 N 1.292559 1.116343 -1.127246 0
M  V30 13 C 0.073901 0.419638 0.920495 0
M  V30 14 C -0.160977 1.681915 1.589263 0
M  V30 15 C 0.772161 2.166127 2.489067 0
M  V30 16 C 0.531093 3.388510 3.128141 0
M  V30 17 C -0.652183 4.047126 2.810250 0
M  V30 18 Cl -0.993616 5.595871 3.597291 0
M  V30 19 C -1.598433 3.583416 1.915463 0
M  V30 20 Cl -3.055455 4.508515 1.597863 0
M  V30 21 C -1.328875 2.361756 1.294767 0
M  V30 22 H -2.156957 -0.945007 2.515194 0
M  V30 23 H -0.910408 -2.121350 2.990872 0
M  V30 24 H -0.669947 -0.430175 3.475251 0
M  V30 25 H 1.597159 -3.564270 -2.863033 0
M  V30 26 H 2.755539 -4.636475 -1.090606 0
M  V30 27 H 2.061551 -3.431621 0.154934 0
M  V30 28 H 0.144491 -4.979508 0.303872 0
M  V30 29 H 0.804349 -5.942296 -1.115410 0
M  V30 30 H -0.503443 -4.503559 -2.435363 0
M  V30 31 H -0.841173 -3.320479 -1.030691 0
M  V30 32 H 2.317764 1.227082 -1.359011 0
M  V30 33 H 0.946428 1.926282 -1.720607 0
M  V30 34 H 1.696181 1.651081 2.736826 0
M  V30 35 H 1.199013 3.846880 3.844501 0
M  V30 36 H -2.056517 1.993864 0.599378 0
M  V30 END ATOM
M  V30 BEGIN BOND
M  V30 1 1 1 2
M  V30 2 2 2 3
M  V30 3 1 3 4
M  V30 4 1 4 5
M  V30 5 2 5 6
M  V30 6 1 5 7
M  V30 7 1 7 8
M  V30 8 1 8 9
M  V30 9 1 9 10
M  V30 10 1 4 11
M  V30 11 1 11 12
M  V30 12 2 11 13
M  V30 13 1 13 14
M  V30 14 2 14 15
M  V30 15 1 15 16
M  V30 16 2 16 17
M  V30 17 1 17 18
M  V30 18 1 17 19
M  V30 19 1 19 20
M  V30 20 2 19 21
M  V30 21 1 13 2
M  V30 22 1 21 14
M  V30 23 1 10 7
M  V30 24 1 1 22
M  V30 25 1 1 23
M  V30 26 1 1 24
M  V30 27 1 7 25
M  V30 28 1 8 26
M  V30 29 1 8 27
M  V30 30 1 9 28
M  V30 31 1 9 29
M  V30 32 1 10 30
M  V30 33 1 10 31
M  V30 34 1 12 32
M  V30 35 1 12 33
M  V30 36 1 15 34
M  V30 37 1 16 35
M  V30 38 1 21 36
M  V30 END BOND
M  V30 END CTAB
M  END
>  <Dataset>  (432) 
ChEMBL_Kinases

>  <Ligand_Instance>  (432) 
nan

>  <PDB_ID>  (432) 
nan

>  <Standardized_SMILES>  (432) 
Cc1nn(C(=O)C2CCC2)c(N)c1-c1ccc(Cl)c(Cl)c1

>  <Name>  (432) 
nan

>  <Pocket>  (432) 
nan

>  <ATP_Site>  (432) 
nan

>  <Peripheral>  (432) 
nan

>  <Num_H_Atoms_ProtBoundConf>  (432) 
nan

>  <Num_Resolved_Atoms>  (432) 
nan

>  <Num_Not_Resolved_Atoms>  (432) 
nan

$$$$
CHEMBL4285400
     RDKit          3D

  0  0  0  0  0  0  0  0  0  0999 V3000
M  V30 BEGIN CTAB
M  V30 COUNTS 48 51 0 0 0
M  V30 BEGIN ATOM
M  V30 1 C 2.167130 -5.494263 2.214235 0
M  V30 2 C 2.277422 -4.444623 1.151203 0
M  V30 3 C 3.419312 -4.378421 0.351460 0
M  V30 4 C 3.490510 -3.400576 -0.618416 0
M  V30 5 C 2.477373 -2.488513 -0.826153 0
M  V30 6 C 1.357176 -2.582019 -0.014605 0
M  V30 7 C 0.150791 -1.756289 -0.015671 0
M  V30 8 N -1.098975 -2.198036 -0.279121 0
M  V30 9 N -1.962121 -1.174107 -0.191501 0
M  V30 10 C -1.279025 -0.056416 0.130217 0
M  V30 11 C 0.057782 -0.398356 0.246812 0
M  V30 12 C 1.155974 0.477090 0.576626 0
M  V30 13 C 1.442926 1.557493 -0.251179 0
M  V30 14 C 2.472464 2.442085 -0.011035 0
M  V30 15 C 3.289207 2.289524 1.096064 0
M  V30 16 O 4.338465 3.106266 1.431943 0
M  V30 17 C 2.995224 1.217697 1.906480 0
M  V30 18 C 1.975522 0.313210 1.699071 0
M  V30 19 C -2.247427 1.073476 0.224560 0 CFG=2
M  V30 20 C -1.873713 2.080145 1.270777 0
M  V30 21 C -3.514227 0.320639 0.568745 0
M  V30 22 C -3.461640 -0.132912 1.989193 0
M  V30 23 C -4.753909 1.119397 0.313168 0
M  V30 24 C -3.379568 -0.881124 -0.329064 0
M  V30 25 N 1.306061 -3.549400 0.932412 0
M  V30 26 H 1.095257 -5.495573 2.536705 0
M  V30 27 H 2.416532 -6.500998 1.859740 0
M  V30 28 H 2.739401 -5.197411 3.112758 0
M  V30 29 H 4.237780 -5.076810 0.482989 0
M  V30 30 H 4.353212 -3.283732 -1.285482 0
M  V30 31 H 2.415920 -1.693381 -1.537973 0
M  V30 32 H 0.870790 1.773890 -1.144398 0
M  V30 33 H 2.682459 3.283178 -0.670892 0
M  V30 34 H 4.478312 4.059577 1.188409 0
M  V30 35 H 3.617762 1.055070 2.800046 0
M  V30 36 H 1.778388 -0.517038 2.361997 0
M  V30 37 H -2.279624 1.500609 -0.797918 0
M  V30 38 H -2.777971 2.670900 1.495641 0
M  V30 39 H -1.495974 1.568744 2.153876 0
M  V30 40 H -1.150050 2.780049 0.806787 0
M  V30 41 H -2.432922 -0.227581 2.388079 0
M  V30 42 H -4.028756 0.577259 2.655376 0
M  V30 43 H -3.900911 -1.164865 2.073744 0
M  V30 44 H -4.824469 1.510139 -0.705520 0
M  V30 45 H -4.732531 1.977178 1.016930 0
M  V30 46 H -5.609302 0.487757 0.609256 0
M  V30 47 H -3.486936 -0.596447 -1.415988 0
M  V30 48 H -4.025076 -1.719694 -0.055658 0
M  V30 END ATOM
M  V30 BEGIN BOND
M  V30 1 1 1 2
M  V30 2 2 2 3
M  V30 3 1 3 4
M  V30 4 2 4 5
M  V30 5 1 5 6
M  V30 6 1 6 7
M  V30 7 2 7 8
M  V30 8 1 8 9
M  V30 9 1 9 10
M  V30 10 2 10 11
M  V30 11 1 11 12
M  V30 12 2 12 13
M  V30 13 1 13 14
M  V30 14 2 14 15
M  V30 15 1 15 16
M  V30 16 1 15 17
M  V30 17 2 17 18
M  V30 18 1 10 19
M  V30 19 1 19 20
M  V30 20 1 19 21
M  V30 21 1 21 22
M  V30 22 1 21 23
M  V30 23 1 21 24
M  V30 24 2 6 25
M  V30 25 1 25 2
M  V30 26 1 11 7
M  V30 27 1 18 12
M  V30 28 1 24 9
M  V30 29 1 1 26
M  V30 30 1 1 27
M  V30 31 1 1 28
M  V30 32 1 3 29
M  V30 33 1 4 30
M  V30 34 1 5 31
M  V30 35 1 13 32
M  V30 36 1 14 33
M  V30 37 1 16 34
M  V30 38 1 17 35
M  V30 39 1 18 36
M  V30 40 1 19 37 CFG=3
M  V30 41 1 20 38
M  V30 42 1 20 39
M  V30 43 1 20 40
M  V30 44 1 22 41
M  V30 45 1 22 42
M  V30 46 1 22 43
M  V30 47 1 23 44
M  V30 48 1 23 45
M  V30 49 1 23 46
M  V30 50 1 24 47
M  V30 51 1 24 48
M  V30 END BOND
M  V30 END CTAB
M  END
>  <Dataset>  (433) 
ChEMBL_Kinases

>  <Ligand_Instance>  (433) 
nan

>  <PDB_ID>  (433) 
nan

>  <Standardized_SMILES>  (433) 
Cc1cccc(-c2nn3c(c2-c2ccc(O)cc2)[C@H](C)C(C)(C)C3)n1

>  <Name>  (433) 
nan

>  <Pocket>  (433) 
nan

>  <ATP_Site>  (433) 
nan

>  <Peripheral>  (433) 
nan

>  <Num_H_Atoms_ProtBoundConf>  (433) 
nan

>  <Num_Resolved_Atoms>  (433) 
nan

>  <Num_Not_Resolved_Atoms>  (433) 
nan

$$$$
CHEMBL4758899
     RDKit          3D

  0  0  0  0  0  0  0  0  0  0999 V3000
M  V30 BEGIN CTAB
M  V30 COUNTS 50 53 0 0 0
M  V30 BEGIN ATOM
M  V30 1 C 3.049379 -4.136616 1.703360 0
M  V30 2 O 2.187193 -3.302817 0.933965 0
M  V30 3 C 1.603212 -3.887356 -0.186894 0
M  V30 4 C 1.822091 -5.196423 -0.564194 0
M  V30 5 C 1.207895 -5.713165 -1.691896 0
M  V30 6 C 0.355075 -4.952657 -2.486487 0
M  V30 7 C 0.134623 -3.632886 -2.105796 0
M  V30 8 C 0.746727 -3.122298 -0.984226 0
M  V30 9 O 0.638936 -1.842530 -0.467019 0
M  V30 10 C -0.280244 -0.842263 -0.761932 0
M  V30 11 C -0.281269 0.187597 0.156666 0
M  V30 12 C -1.093946 1.288127 0.089531 0
M  V30 13 N -1.098496 2.343653 1.041719 0
M  V30 14 C -0.294673 2.435147 2.231544 0 CFG=1
M  V30 15 C -0.439292 3.742743 2.975090 0
M  V30 16 C 0.475958 3.690204 4.174487 0
M  V30 17 C 1.115212 2.366364 4.423156 0 CFG=2
M  V30 18 O 2.308100 2.170846 3.719140 0
M  V30 19 C 0.190193 1.183656 4.277409 0
M  V30 20 C -0.807765 1.364355 3.178790 0
M  V30 21 N -1.936517 1.338412 -0.955166 0
M  V30 22 C -1.985337 0.368475 -1.884930 0
M  V30 23 C -1.169354 -0.730832 -1.811911 0
M  V30 24 N -1.380364 -1.634880 -2.892317 0
M  V30 25 C -2.277306 -1.196797 -3.946288 0
M  V30 26 C -0.774269 -2.939350 -3.013677 0
M  V30 27 O -1.097630 -3.541858 -4.069739 0
M  V30 28 H 3.566803 -3.581702 2.501944 0
M  V30 29 H 3.831229 -4.548119 1.001588 0
M  V30 30 H 2.522297 -5.014864 2.104113 0
M  V30 31 H 2.488568 -5.776554 0.064182 0
M  V30 32 H 1.400565 -6.742594 -1.959878 0
M  V30 33 H -0.126032 -5.335294 -3.358286 0
M  V30 34 H 0.427754 0.078897 0.963631 0
M  V30 35 H -1.732162 3.150672 0.902231 0
M  V30 36 H 0.762957 2.233112 1.975837 0
M  V30 37 H -0.235849 4.628695 2.345693 0
M  V30 38 H -1.469913 3.794592 3.326573 0
M  V30 39 H -0.090514 4.028481 5.090234 0
M  V30 40 H 1.313071 4.439621 4.063690 0
M  V30 41 H 1.441460 2.383181 5.505574 0
M  V30 42 H 2.424930 1.207738 3.459614 0
M  V30 43 H -0.311988 1.013103 5.248559 0
M  V30 44 H 0.841893 0.298819 4.080639 0
M  V30 45 H -1.146097 0.450725 2.683074 0
M  V30 46 H -1.740842 1.810214 3.630232 0
M  V30 47 H -2.676306 0.475187 -2.683154 0
M  V30 48 H -3.341645 -1.194810 -3.648009 0
M  V30 49 H -2.220750 -1.977947 -4.758568 0
M  V30 50 H -1.946039 -0.269441 -4.452631 0
M  V30 END ATOM
M  V30 BEGIN BOND
M  V30 1 1 1 2
M  V30 2 1 2 3
M  V30 3 2 3 4
M  V30 4 1 4 5
M  V30 5 2 5 6
M  V30 6 1 6 7
M  V30 7 2 7 8
M  V30 8 1 8 9
M  V30 9 1 9 10
M  V30 10 2 10 11
M  V30 11 1 11 12
M  V30 12 1 12 13
M  V30 13 1 13 14
M  V30 14 1 14 15
M  V30 15 1 15 16
M  V30 16 1 16 17
M  V30 17 1 17 18
M  V30 18 1 17 19
M  V30 19 1 19 20
M  V30 20 2 12 21
M  V30 21 1 21 22
M  V30 22 2 22 23
M  V30 23 1 23 24
M  V30 24 1 24 25
M  V30 25 1 24 26
M  V30 26 2 26 27
M  V30 27 1 8 3
M  V30 28 1 23 10
M  V30 29 1 26 7
M  V30 30 1 20 14
M  V30 31 1 1 28
M  V30 32 1 1 29
M  V30 33 1 1 30
M  V30 34 1 4 31
M  V30 35 1 5 32
M  V30 36 1 6 33
M  V30 37 1 11 34
M  V30 38 1 13 35
M  V30 39 1 14 36 CFG=3
M  V30 40 1 15 37
M  V30 41 1 15 38
M  V30 42 1 16 39
M  V30 43 1 16 40
M  V30 44 1 17 41 CFG=1
M  V30 45 1 18 42
M  V30 46 1 19 43
M  V30 47 1 19 44
M  V30 48 1 20 45
M  V30 49 1 20 46
M  V30 50 1 22 47
M  V30 51 1 25 48
M  V30 52 1 25 49
M  V30 53 1 25 50
M  V30 END BOND
M  V30 END CTAB
M  END
>  <Dataset>  (434) 
ChEMBL_Kinases

>  <Ligand_Instance>  (434) 
nan

>  <PDB_ID>  (434) 
nan

>  <Standardized_SMILES>  (434) 
COc1cccc2c1Oc1cc(N[C@H]3CC[C@H](O)CC3)ncc1N(C)C2=O

>  <Name>  (434) 
nan

>  <Pocket>  (434) 
nan

>  <ATP_Site>  (434) 
nan

>  <Peripheral>  (434) 
nan

>  <Num_H_Atoms_ProtBoundConf>  (434) 
nan

>  <Num_Resolved_Atoms>  (434) 
nan

>  <Num_Not_Resolved_Atoms>  (434) 
nan

$$$$
CHEMBL4758938
     RDKit          3D

  0  0  0  0  0  0  0  0  0  0999 V3000
M  V30 BEGIN CTAB
M  V30 COUNTS 48 51 0 0 0
M  V30 BEGIN ATOM
M  V30 1 C -2.077483 -7.310715 2.587723 0
M  V30 2 O -2.828058 -6.569521 1.657348 0
M  V30 3 C -2.453642 -5.310906 1.275646 0
M  V30 4 C -1.289089 -4.822812 1.862312 0
M  V30 5 C -0.906705 -3.549790 1.479775 0
M  V30 6 C -1.610490 -2.759982 0.564168 0
M  V30 7 C -1.054663 -1.441259 0.291663 0
M  V30 8 N 0.070525 -1.246893 -0.458860 0
M  V30 9 C 0.322753 0.091903 -0.501928 0
M  V30 10 C 1.304032 0.908438 -1.085837 0
M  V30 11 C 1.233862 2.265763 -0.898528 0
M  V30 12 N 2.155978 3.191527 -1.446909 0
M  V30 13 C 3.531721 3.252435 -0.968548 0
M  V30 14 C 3.668934 3.442182 0.470098 0
M  V30 15 C 3.794202 4.623398 1.182600 0
M  V30 16 C 3.921444 4.709668 2.568608 0
M  V30 17 C 3.921711 3.527530 3.274085 0
M  V30 18 C 3.801414 2.328835 2.620710 0
M  V30 19 C 3.674572 2.259298 1.232242 0
M  V30 20 N 0.243165 2.854836 -0.163823 0
M  V30 21 C -0.698756 2.081085 0.396320 0
M  V30 22 N -1.757411 2.666529 1.170930 0
M  V30 23 N -0.626150 0.727540 0.207801 0
M  V30 24 N -1.449655 -0.215583 0.679146 0
M  V30 25 C -2.752514 -3.279475 0.010489 0
M  V30 26 C -3.169291 -4.544189 0.364074 0
M  V30 27 O -4.289398 -5.193364 -0.106385 0
M  V30 28 C -5.127380 -4.552477 -1.033593 0
M  V30 29 H -1.858987 -6.721317 3.482456 0
M  V30 30 H -2.698893 -8.185768 2.884626 0
M  V30 31 H -1.150718 -7.746070 2.166889 0
M  V30 32 H -0.667903 -5.342135 2.579717 0
M  V30 33 H -0.002383 -3.144058 1.921984 0
M  V30 34 H 2.089792 0.461007 -1.661416 0
M  V30 35 H 1.771761 3.821913 -2.210081 0
M  V30 36 H 4.073072 4.035255 -1.567033 0
M  V30 37 H 4.009054 2.298207 -1.261971 0
M  V30 38 H 3.788499 5.512194 0.574591 0
M  V30 39 H 4.013274 5.650597 3.051860 0
M  V30 40 H 4.015101 3.496375 4.362247 0
M  V30 41 H 3.794687 1.355788 3.135347 0
M  V30 42 H 3.580564 1.285471 0.752636 0
M  V30 43 H -1.832060 2.862624 2.208150 0
M  V30 44 H -2.464674 2.856235 0.399132 0
M  V30 45 H -3.313284 -2.701933 -0.694434 0
M  V30 46 H -5.166427 -3.474128 -0.782334 0
M  V30 47 H -4.631920 -4.638824 -2.039299 0
M  V30 48 H -6.158157 -4.982645 -1.039669 0
M  V30 END ATOM
M  V30 BEGIN BOND
M  V30 1 1 1 2
M  V30 2 1 2 3
M  V30 3 2 3 4
M  V30 4 1 4 5
M  V30 5 2 5 6
M  V30 6 1 6 7
M  V30 7 1 7 8
M  V30 8 2 8 9
M  V30 9 1 9 10
M  V30 10 2 10 11
M  V30 11 1 11 12
M  V30 12 1 12 13
M  V30 13 1 13 14
M  V30 14 2 14 15
M  V30 15 1 15 16
M  V30 16 2 16 17
M  V30 17 1 17 18
M  V30 18 2 18 19
M  V30 19 1 11 20
M  V30 20 2 20 21
M  V30 21 1 21 22
M  V30 22 1 21 23
M  V30 23 1 23 24
M  V30 24 1 6 25
M  V30 25 2 25 26
M  V30 26 1 26 27
M  V30 27 1 27 28
M  V30 28 1 26 3
M  V30 29 2 24 7
M  V30 30 1 23 9
M  V30 31 1 19 14
M  V30 32 1 1 29
M  V30 33 1 1 30
M  V30 34 1 1 31
M  V30 35 1 4 32
M  V30 36 1 5 33
M  V30 37 1 10 34
M  V30 38 1 12 35
M  V30 39 1 13 36
M  V30 40 1 13 37
M  V30 41 1 15 38
M  V30 42 1 16 39
M  V30 43 1 17 40
M  V30 44 1 18 41
M  V30 45 1 19 42
M  V30 46 1 22 43
M  V30 47 1 22 44
M  V30 48 1 25 45
M  V30 49 1 28 46
M  V30 50 1 28 47
M  V30 51 1 28 48
M  V30 END BOND
M  V30 END CTAB
M  END
>  <Dataset>  (435) 
ChEMBL_Kinases

>  <Ligand_Instance>  (435) 
nan

>  <PDB_ID>  (435) 
nan

>  <Standardized_SMILES>  (435) 
COc1ccc(-c2nc3cc(NCc4ccccc4)nc(N)n3n2)cc1OC

>  <Name>  (435) 
nan

>  <Pocket>  (435) 
nan

>  <ATP_Site>  (435) 
nan

>  <Peripheral>  (435) 
nan

>  <Num_H_Atoms_ProtBoundConf>  (435) 
nan

>  <Num_Resolved_Atoms>  (435) 
nan

>  <Num_Not_Resolved_Atoms>  (435) 
nan

$$$$
CHEMBL4283774
     RDKit          3D

  0  0  0  0  0  0  0  0  0  0999 V3000
M  V30 BEGIN CTAB
M  V30 COUNTS 41 44 0 0 0
M  V30 BEGIN ATOM
M  V30 1 C 1.135735 -5.843519 2.492283 0
M  V30 2 N 0.687533 -4.516105 2.120174 0
M  V30 3 C -0.271939 -4.571652 1.065639 0
M  V30 4 C 0.379713 -4.101580 -0.211035 0
M  V30 5 C 1.555015 -3.281862 0.270038 0
M  V30 6 C 1.158396 -1.811347 0.344223 0
M  V30 7 N 1.354635 -0.758967 0.002164 0
M  V30 8 C 0.753907 0.375036 0.303236 0
M  V30 9 C 1.136564 1.678141 -0.235151 0
M  V30 10 C 0.182591 2.317529 -0.996940 0
M  V30 11 C 0.442429 3.557578 -1.554939 0
M  V30 12 C 1.664289 4.174562 -1.356353 0
M  V30 13 F 2.013264 5.384845 -1.859046 0
M  V30 14 C 2.620350 3.541045 -0.596806 0
M  V30 15 C 2.373172 2.292605 -0.028878 0
M  V30 16 C -0.308132 0.272924 1.196526 0
M  V30 17 C -1.191578 1.345480 1.741159 0
M  V30 18 C -2.560077 1.299688 1.497670 0
M  V30 19 C -3.311770 2.326509 2.035938 0
M  V30 20 N -2.701480 3.294943 2.750154 0
M  V30 21 C -1.376475 3.313854 2.969634 0
M  V30 22 N -0.598377 2.322387 2.458065 0
M  V30 23 S -0.317255 -1.598570 1.524631 0
M  V30 24 C 1.832785 -3.757800 1.674490 0
M  V30 25 H 1.413511 -5.884956 3.581296 0
M  V30 26 H 0.344272 -6.608307 2.273800 0
M  V30 27 H 2.010798 -6.075119 1.845804 0
M  V30 28 H -1.182892 -3.988272 1.327992 0
M  V30 29 H -0.625859 -5.610225 0.868059 0
M  V30 30 H -0.271033 -3.392821 -0.772917 0
M  V30 31 H 0.649243 -4.905192 -0.904580 0
M  V30 32 H 2.404688 -3.299473 -0.406895 0
M  V30 33 H -0.787389 1.913660 -1.201224 0
M  V30 34 H -0.232730 4.135211 -2.161873 0
M  V30 35 H 3.595156 3.958653 -0.398364 0
M  V30 36 H 3.088311 1.737416 0.583114 0
M  V30 37 H -2.980365 0.475582 0.905174 0
M  V30 38 H -4.395437 2.309304 1.855636 0
M  V30 39 H -0.915933 4.108670 3.549240 0
M  V30 40 H 2.012479 -2.879168 2.343546 0
M  V30 41 H 2.772719 -4.346741 1.660400 0
M  V30 END ATOM
M  V30 BEGIN BOND
M  V30 1 1 1 2
M  V30 2 1 2 3
M  V30 3 1 3 4
M  V30 4 1 4 5
M  V30 5 1 5 6
M  V30 6 2 6 7
M  V30 7 1 7 8
M  V30 8 1 8 9
M  V30 9 2 9 10
M  V30 10 1 10 11
M  V30 11 2 11 12
M  V30 12 1 12 13
M  V30 13 1 12 14
M  V30 14 2 14 15
M  V30 15 2 8 16
M  V30 16 1 16 17
M  V30 17 2 17 18
M  V30 18 1 18 19
M  V30 19 2 19 20
M  V30 20 1 20 21
M  V30 21 2 21 22
M  V30 22 1 16 23
M  V30 23 1 5 24
M  V30 24 1 24 2
M  V30 25 1 23 6
M  V30 26 1 15 9
M  V30 27 1 22 17
M  V30 28 1 1 25
M  V30 29 1 1 26
M  V30 30 1 1 27
M  V30 31 1 3 28
M  V30 32 1 3 29
M  V30 33 1 4 30
M  V30 34 1 4 31
M  V30 35 1 5 32
M  V30 36 1 10 33
M  V30 37 1 11 34
M  V30 38 1 14 35
M  V30 39 1 15 36
M  V30 40 1 18 37
M  V30 41 1 19 38
M  V30 42 1 21 39
M  V30 43 1 24 40
M  V30 44 1 24 41
M  V30 END BOND
M  V30 END CTAB
M  END
>  <Dataset>  (436) 
ChEMBL_Kinases

>  <Ligand_Instance>  (436) 
nan

>  <PDB_ID>  (436) 
nan

>  <Standardized_SMILES>  (436) 
CN1CCC(c2nc(-c3ccc(F)cc3)c(-c3ccncn3)s2)C1

>  <Name>  (436) 
nan

>  <Pocket>  (436) 
nan

>  <ATP_Site>  (436) 
nan

>  <Peripheral>  (436) 
nan

>  <Num_H_Atoms_ProtBoundConf>  (436) 
nan

>  <Num_Resolved_Atoms>  (436) 
nan

>  <Num_Not_Resolved_Atoms>  (436) 
nan

$$$$
CHEMBL4758964
     RDKit          3D

  0  0  0  0  0  0  0  0  0  0999 V3000
M  V30 BEGIN CTAB
M  V30 COUNTS 42 45 0 0 0
M  V30 BEGIN ATOM
M  V30 1 O -0.578450 -0.339482 2.405054 0
M  V30 2 C 0.302914 0.342358 1.873813 0
M  V30 3 C 1.523939 0.572054 2.452704 0
M  V30 4 C 1.859501 0.049629 3.672543 0
M  V30 5 C 3.082267 0.265332 4.267486 0
M  V30 6 F 3.382819 -0.265490 5.468785 0
M  V30 7 C 4.042558 1.046194 3.621349 0
M  V30 8 C 3.692414 1.576927 2.374585 0
M  V30 9 C 2.470278 1.352208 1.798566 0
M  V30 10 N 2.127711 1.845813 0.617748 0
M  V30 11 C 2.847874 2.612275 -0.205329 0
M  V30 12 S 4.341832 3.243247 -0.172102 0
M  V30 13 N 2.112706 2.877059 -1.294169 0
M  V30 14 N 0.945840 2.279245 -1.147803 0
M  V30 15 C 0.947035 1.626860 0.053194 0
M  V30 16 N 0.003307 0.861588 0.678046 0
M  V30 17 C -1.234296 0.720344 -0.103587 0
M  V30 18 C -1.107682 -0.424027 -1.072176 0
M  V30 19 N -0.909884 -1.662608 -0.317346 0
M  V30 20 C -0.523406 -2.713150 -1.275170 0
M  V30 21 C -0.578514 -4.071688 -0.702595 0
M  V30 22 C -0.874692 -4.122426 0.764937 0
M  V30 23 F -1.327640 -5.431497 1.007454 0
M  V30 24 F 0.292741 -3.961464 1.475833 0
M  V30 25 C -1.974842 -3.202670 1.182473 0
M  V30 26 C -2.213085 -2.098219 0.203160 0
M  V30 27 H 1.099323 -0.563173 4.172643 0
M  V30 28 H 4.990062 1.184972 4.131862 0
M  V30 29 H 4.483284 2.158939 1.956654 0
M  V30 30 H 2.197847 3.408604 -2.204280 0
M  V30 31 H -2.052678 0.621270 0.628854 0
M  V30 32 H -1.447511 1.688561 -0.631821 0
M  V30 33 H -2.072054 -0.498046 -1.623331 0
M  V30 34 H -0.283195 -0.212329 -1.775746 0
M  V30 35 H -1.211723 -2.638194 -2.138299 0
M  V30 36 H 0.515024 -2.402953 -1.584740 0
M  V30 37 H -1.271193 -4.761015 -1.252429 0
M  V30 38 H 0.438990 -4.546673 -0.830662 0
M  V30 39 H -1.676846 -2.767099 2.154138 0
M  V30 40 H -2.921982 -3.760777 1.418880 0
M  V30 41 H -2.751815 -1.249076 0.654788 0
M  V30 42 H -2.823885 -2.433966 -0.672253 0
M  V30 END ATOM
M  V30 BEGIN BOND
M  V30 1 2 1 2
M  V30 2 1 2 3
M  V30 3 2 3 4
M  V30 4 1 4 5
M  V30 5 1 5 6
M  V30 6 2 5 7
M  V30 7 1 7 8
M  V30 8 2 8 9
M  V30 9 1 9 10
M  V30 10 1 10 11
M  V30 11 2 11 12
M  V30 12 1 11 13
M  V30 13 1 13 14
M  V30 14 2 14 15
M  V30 15 1 15 16
M  V30 16 1 16 17
M  V30 17 1 17 18
M  V30 18 1 18 19
M  V30 19 1 19 20
M  V30 20 1 20 21
M  V30 21 1 21 22
M  V30 22 1 22 23
M  V30 23 1 22 24
M  V30 24 1 22 25
M  V30 25 1 25 26
M  V30 26 1 16 2
M  V30 27 1 26 19
M  V30 28 1 9 3
M  V30 29 1 15 10
M  V30 30 1 4 27
M  V30 31 1 7 28
M  V30 32 1 8 29
M  V30 33 1 13 30
M  V30 34 1 17 31
M  V30 35 1 17 32
M  V30 36 1 18 33
M  V30 37 1 18 34
M  V30 38 1 20 35
M  V30 39 1 20 36
M  V30 40 1 21 37
M  V30 41 1 21 38
M  V30 42 1 25 39
M  V30 43 1 25 40
M  V30 44 1 26 41
M  V30 45 1 26 42
M  V30 END BOND
M  V30 END CTAB
M  END
>  <Dataset>  (437) 
ChEMBL_Kinases

>  <Ligand_Instance>  (437) 
nan

>  <PDB_ID>  (437) 
nan

>  <Standardized_SMILES>  (437) 
O=c1c2cc(F)ccc2n2c(=S)[nH]nc2n1CCN1CCC(F)(F)CC1

>  <Name>  (437) 
nan

>  <Pocket>  (437) 
nan

>  <ATP_Site>  (437) 
nan

>  <Peripheral>  (437) 
nan

>  <Num_H_Atoms_ProtBoundConf>  (437) 
nan

>  <Num_Resolved_Atoms>  (437) 
nan

>  <Num_Not_Resolved_Atoms>  (437) 
nan

$$$$
CHEMBL4758996
     RDKit          3D

  0  0  0  0  0  0  0  0  0  0999 V3000
M  V30 BEGIN CTAB
M  V30 COUNTS 63 67 0 0 0
M  V30 BEGIN ATOM
M  V30 1 C -0.683960 0.370767 2.809617 0
M  V30 2 C 0.059905 -0.909594 3.034837 0
M  V30 3 C 1.530159 -0.759951 3.294126 0
M  V30 4 N -0.299988 -2.005027 2.179854 0
M  V30 5 C 0.609429 -2.437747 1.144584 0
M  V30 6 C 1.480237 -1.533489 0.523747 0
M  V30 7 C 2.364099 -1.916972 -0.467496 0
M  V30 8 N 3.227518 -0.980847 -1.096408 0
M  V30 9 C 3.066991 0.426698 -1.264860 0
M  V30 10 N 3.956585 1.347715 -1.605367 0
M  V30 11 C 3.540996 2.648186 -1.746875 0
M  V30 12 C 2.203220 2.898718 -1.520376 0
M  V30 13 C 1.250802 1.972733 -1.167623 0
M  V30 14 C -0.127011 2.403047 -1.017823 0
M  V30 15 C -0.440019 3.740923 -0.940820 0
M  V30 16 C -1.723627 4.225682 -0.820184 0
M  V30 17 C -2.774931 3.323246 -0.771532 0
M  V30 18 C -2.467652 1.967975 -0.849242 0
M  V30 19 C -1.166970 1.524268 -0.970678 0
M  V30 20 C -1.050594 0.070352 -1.067428 0
M  V30 21 C -2.200541 -0.455474 -1.939768 0
M  V30 22 C -3.544225 -0.221836 -1.325676 0
M  V30 23 N -3.635102 1.129851 -0.785068 0
M  V30 24 N 1.792844 0.777476 -1.068790 0
M  V30 25 C 2.403598 -3.233592 -0.873895 0
M  V30 26 C 1.545675 -4.125517 -0.265833 0
M  V30 27 C 0.653355 -3.766506 0.726409 0
M  V30 28 N -0.245196 -4.698146 1.356656 0
M  V30 29 C -0.118003 -6.074436 0.849735 0
M  V30 30 C -1.143675 -4.254006 2.369911 0
M  V30 31 O -1.426241 -5.181053 3.209627 0
M  V30 32 C -1.520341 -2.820451 2.184749 0 CFG=1
M  V30 33 C -2.345924 -2.455496 3.396576 0
M  V30 34 H 0.019950 1.215132 2.527416 0
M  V30 35 H -1.165440 0.786905 3.746797 0
M  V30 36 H -1.526786 0.311273 2.097831 0
M  V30 37 H -0.342595 -1.255340 4.071114 0
M  V30 38 H 1.951530 0.229869 3.012446 0
M  V30 39 H 2.158541 -1.566048 2.858670 0
M  V30 40 H 1.791094 -0.823621 4.403390 0
M  V30 41 H 1.404834 -0.520870 0.868428 0
M  V30 42 H 4.123750 -1.262422 -1.523577 0
M  V30 43 H 4.320115 3.328106 -2.022088 0
M  V30 44 H 2.046787 3.968720 -1.676181 0
M  V30 45 H 0.282246 4.545390 -0.963502 0
M  V30 46 H -1.975682 5.279935 -0.759262 0
M  V30 47 H -3.795573 3.723257 -0.673145 0
M  V30 48 H -0.143147 -0.305471 -1.548904 0
M  V30 49 H -1.116820 -0.471786 -0.090802 0
M  V30 50 H -2.137671 0.095492 -2.891576 0
M  V30 51 H -2.080885 -1.551519 -2.073491 0
M  V30 52 H -3.811573 -0.942180 -0.517661 0
M  V30 53 H -4.292619 -0.289305 -2.164292 0
M  V30 54 H -4.529292 1.465972 -0.364854 0
M  V30 55 H 3.064547 -3.629020 -1.643004 0
M  V30 56 H 1.563006 -5.165412 -0.576024 0
M  V30 57 H -0.288929 -5.998638 -0.265023 0
M  V30 58 H 0.875090 -6.489821 1.090450 0
M  V30 59 H -0.951911 -6.669529 1.266652 0
M  V30 60 H -2.125144 -2.720723 1.289970 0
M  V30 61 H -2.428803 -1.369757 3.513527 0
M  V30 62 H -3.375459 -2.878390 3.208431 0
M  V30 63 H -1.940040 -2.970263 4.303870 0
M  V30 END ATOM
M  V30 BEGIN BOND
M  V30 1 1 1 2
M  V30 2 1 2 3
M  V30 3 1 2 4
M  V30 4 1 4 5
M  V30 5 2 5 6
M  V30 6 1 6 7
M  V30 7 1 7 8
M  V30 8 1 8 9
M  V30 9 2 9 10
M  V30 10 1 10 11
M  V30 11 2 11 12
M  V30 12 1 12 13
M  V30 13 1 13 14
M  V30 14 2 14 15
M  V30 15 1 15 16
M  V30 16 2 16 17
M  V30 17 1 17 18
M  V30 18 2 18 19
M  V30 19 1 19 20
M  V30 20 1 20 21
M  V30 21 1 21 22
M  V30 22 1 22 23
M  V30 23 2 13 24
M  V30 24 2 7 25
M  V30 25 1 25 26
M  V30 26 2 26 27
M  V30 27 1 27 28
M  V30 28 1 28 29
M  V30 29 1 28 30
M  V30 30 2 30 31
M  V30 31 1 30 32
M  V30 32 1 32 33
M  V30 33 1 32 4
M  V30 34 1 27 5
M  V30 35 1 24 9
M  V30 36 1 19 14
M  V30 37 1 23 18
M  V30 38 1 1 34
M  V30 39 1 1 35
M  V30 40 1 1 36
M  V30 41 1 2 37
M  V30 42 1 3 38
M  V30 43 1 3 39
M  V30 44 1 3 40
M  V30 45 1 6 41
M  V30 46 1 8 42
M  V30 47 1 11 43
M  V30 48 1 12 44
M  V30 49 1 15 45
M  V30 50 1 16 46
M  V30 51 1 17 47
M  V30 52 1 20 48
M  V30 53 1 20 49
M  V30 54 1 21 50
M  V30 55 1 21 51
M  V30 56 1 22 52
M  V30 57 1 22 53
M  V30 58 1 23 54
M  V30 59 1 25 55
M  V30 60 1 26 56
M  V30 61 1 29 57
M  V30 62 1 29 58
M  V30 63 1 29 59
M  V30 64 1 32 60 CFG=3
M  V30 65 1 33 61
M  V30 66 1 33 62
M  V30 67 1 33 63
M  V30 END BOND
M  V30 END CTAB
M  END
>  <Dataset>  (438) 
ChEMBL_Kinases

>  <Ligand_Instance>  (438) 
nan

>  <PDB_ID>  (438) 
nan

>  <Standardized_SMILES>  (438) 
CC(C)N1c2cc(Nc3nccc(-c4cccc5c4CCCN5)n3)ccc2N(C)C(=O)[C@H]1C

>  <Name>  (438) 
nan

>  <Pocket>  (438) 
nan

>  <ATP_Site>  (438) 
nan

>  <Peripheral>  (438) 
nan

>  <Num_H_Atoms_ProtBoundConf>  (438) 
nan

>  <Num_Resolved_Atoms>  (438) 
nan

>  <Num_Not_Resolved_Atoms>  (438) 
nan

$$$$
CHEMBL4283768
     RDKit          3D

  0  0  0  0  0  0  0  0  0  0999 V3000
M  V30 BEGIN CTAB
M  V30 COUNTS 61 65 0 0 0
M  V30 BEGIN ATOM
M  V30 1 N -0.979340 0.957203 5.083628 0
M  V30 2 C -0.451268 1.171266 4.075562 0
M  V30 3 C 0.217393 1.416623 2.830759 0
M  V30 4 C 1.150199 2.420339 2.781347 0
M  V30 5 N 1.793574 2.675197 1.633982 0
M  V30 6 C 1.523553 1.938787 0.514752 0
M  V30 7 N 2.216456 2.244952 -0.685858 0
M  V30 8 C 2.186964 1.494193 -1.937554 0
M  V30 9 C 2.821481 0.173836 -1.752452 0
M  V30 10 C 2.219483 -1.042266 -1.631817 0
M  V30 11 C 2.876904 -2.237113 -1.435983 0
M  V30 12 C 4.261415 -2.164764 -1.359725 0
M  V30 13 C 4.898880 -0.942982 -1.479487 0
M  V30 14 C 4.212898 0.252489 -1.677637 0
M  V30 15 O 5.127112 1.261509 -1.756788 0
M  V30 16 C 5.786801 1.666042 -2.922065 0
M  V30 17 F 6.516852 0.567975 -3.399714 0
M  V30 18 F 4.954253 2.082330 -3.919564 0
M  V30 19 F 6.666447 2.718529 -2.640427 0
M  V30 20 N 0.612141 0.979636 0.616228 0
M  V30 21 C -0.087570 0.640714 1.705569 0
M  V30 22 N -1.045956 -0.402253 1.788050 0
M  V30 23 C -1.580606 -1.328182 0.854744 0
M  V30 24 C -2.522534 -0.782464 -0.168755 0 CFG=2
M  V30 25 C -1.937967 0.265191 -1.048947 0
M  V30 26 C -2.914797 0.561662 -2.204296 0 CFG=2
M  V30 27 C -4.100968 1.245614 -1.563324 0
M  V30 28 C -4.712851 0.260721 -0.589776 0 CFG=2
M  V30 29 C -3.759720 -0.160010 0.479837 0
M  V30 30 C -5.216738 -0.909302 -1.412605 0 CFG=1
M  V30 31 N -6.070036 -0.355927 -2.450700 0
M  V30 32 C -4.013909 -1.591882 -2.022700 0 CFG=1
M  V30 33 C -3.258562 -0.687181 -2.950921 0
M  V30 34 C -3.066343 -1.992072 -0.927484 0
M  V30 35 H 1.351568 2.990038 3.671399 0
M  V30 36 H 2.829611 3.116846 -0.686106 0
M  V30 37 H 1.134237 1.318289 -2.263850 0
M  V30 38 H 2.652669 2.062314 -2.730315 0
M  V30 39 H 1.149766 -1.052358 -1.698252 0
M  V30 40 H 2.297037 -3.140284 -1.354665 0
M  V30 41 H 4.734517 -3.133282 -1.204074 0
M  V30 42 H 5.968968 -1.105420 -1.392188 0
M  V30 43 H -1.463982 -0.522757 2.757818 0
M  V30 44 H -2.018421 -2.202656 1.361367 0
M  V30 45 H -0.704824 -1.753687 0.284012 0
M  V30 46 H -1.932652 1.225503 -0.491225 0
M  V30 47 H -0.943355 0.013910 -1.453080 0
M  V30 48 H -2.378456 1.263005 -2.907753 0
M  V30 49 H -3.727575 2.139626 -1.048956 0
M  V30 50 H -4.857940 1.463883 -2.338881 0
M  V30 51 H -5.586265 0.760287 -0.080924 0
M  V30 52 H -4.274545 -0.900214 1.111065 0
M  V30 53 H -3.486437 0.759060 1.042058 0
M  V30 54 H -5.744677 -1.642935 -0.773707 0
M  V30 55 H -6.877556 0.125735 -2.045052 0
M  V30 56 H -6.309293 -1.047154 -3.192982 0
M  V30 57 H -4.383607 -2.524977 -2.482339 0
M  V30 58 H -3.769531 -0.415662 -3.873334 0
M  V30 59 H -2.287341 -1.188598 -3.182651 0
M  V30 60 H -3.644912 -2.567966 -0.160622 0
M  V30 61 H -2.234111 -2.588734 -1.303523 0
M  V30 END ATOM
M  V30 BEGIN BOND
M  V30 1 3 1 2
M  V30 2 1 2 3
M  V30 3 2 3 4
M  V30 4 1 4 5
M  V30 5 2 5 6
M  V30 6 1 6 7
M  V30 7 1 7 8
M  V30 8 1 8 9
M  V30 9 2 9 10
M  V30 10 1 10 11
M  V30 11 2 11 12
M  V30 12 1 12 13
M  V30 13 2 13 14
M  V30 14 1 14 15
M  V30 15 1 15 16
M  V30 16 1 16 17
M  V30 17 1 16 18
M  V30 18 1 16 19
M  V30 19 1 6 20
M  V30 20 2 20 21
M  V30 21 1 21 22
M  V30 22 1 22 23
M  V30 23 1 24 23 CFG=1
M  V30 24 1 24 25
M  V30 25 1 25 26
M  V30 26 1 26 27
M  V30 27 1 27 28
M  V30 28 1 28 29
M  V30 29 1 28 30
M  V30 30 1 30 31
M  V30 31 1 30 32
M  V30 32 1 32 33
M  V30 33 1 32 34
M  V30 34 1 21 3
M  V30 35 1 29 24
M  V30 36 1 14 9
M  V30 37 1 34 24
M  V30 38 1 33 26
M  V30 39 1 4 35
M  V30 40 1 7 36
M  V30 41 1 8 37
M  V30 42 1 8 38
M  V30 43 1 10 39
M  V30 44 1 11 40
M  V30 45 1 12 41
M  V30 46 1 13 42
M  V30 47 1 22 43
M  V30 48 1 23 44
M  V30 49 1 23 45
M  V30 50 1 25 46
M  V30 51 1 25 47
M  V30 52 1 26 48 CFG=3
M  V30 53 1 27 49
M  V30 54 1 27 50
M  V30 55 1 28 51 CFG=1
M  V30 56 1 29 52
M  V30 57 1 29 53
M  V30 58 1 30 54 CFG=1
M  V30 59 1 31 55
M  V30 60 1 31 56
M  V30 61 1 32 57 CFG=3
M  V30 62 1 33 58
M  V30 63 1 33 59
M  V30 64 1 34 60
M  V30 65 1 34 61
M  V30 END BOND
M  V30 END CTAB
M  END
>  <Dataset>  (439) 
ChEMBL_Kinases

>  <Ligand_Instance>  (439) 
nan

>  <PDB_ID>  (439) 
nan

>  <Standardized_SMILES>  (439) 
N#Cc1cnc(NCc2ccccc2OC(F)(F)F)nc1NC[C@]12C[C@@H]3C[C@H](C1)[C@@H](N)[C@@H](C3)C2

>  <Name>  (439) 
nan

>  <Pocket>  (439) 
nan

>  <ATP_Site>  (439) 
nan

>  <Peripheral>  (439) 
nan

>  <Num_H_Atoms_ProtBoundConf>  (439) 
nan

>  <Num_Resolved_Atoms>  (439) 
nan

>  <Num_Not_Resolved_Atoms>  (439) 
nan

$$$$
CHEMBL4283765
     RDKit          3D

  0  0  0  0  0  0  0  0  0  0999 V3000
M  V30 BEGIN CTAB
M  V30 COUNTS 36 39 0 0 0
M  V30 BEGIN ATOM
M  V30 1 O -2.415093 -0.826549 1.116182 0
M  V30 2 C -1.229086 -1.175254 1.281965 0
M  V30 3 N -0.697817 -2.326298 1.919762 0
M  V30 4 C 0.724378 -2.246054 1.839971 0
M  V30 5 N 1.661843 -3.174569 2.344042 0
M  V30 6 C 3.015511 -3.314715 2.018738 0
M  V30 7 C 3.805703 -4.272306 2.648193 0
M  V30 8 C 5.125609 -4.482366 2.399314 0
M  V30 9 C 5.764262 -3.712271 1.462725 0
M  V30 10 C 5.069885 -2.738220 0.785426 0
M  V30 11 C 3.723651 -2.582722 1.094366 0
M  V30 12 N 1.084817 -1.173169 1.224514 0
M  V30 13 C -0.063185 -0.430692 0.831511 0
M  V30 14 C -0.072163 0.697039 0.169519 0
M  V30 15 C -1.218959 1.463663 -0.274019 0
M  V30 16 C -1.185389 2.813631 0.103678 0
M  V30 17 C -2.201454 3.692819 -0.269342 0
M  V30 18 C -3.271120 3.261068 -1.022334 0
M  V30 19 C -3.320675 1.931263 -1.404758 0
M  V30 20 C -2.306862 1.084890 -1.024868 0
M  V30 21 O -4.476437 1.773260 -2.136226 0
M  V30 22 C -4.953385 3.058344 -2.552538 0
M  V30 23 O -4.418397 3.893537 -1.538694 0
M  V30 24 H -1.302576 -3.058825 2.348564 0
M  V30 25 H 1.261356 -3.843500 3.062255 0
M  V30 26 H 3.332246 -4.912420 3.406909 0
M  V30 27 H 5.665317 -5.249082 2.935995 0
M  V30 28 H 6.802542 -3.891914 1.280473 0
M  V30 29 H 5.538691 -2.110520 0.039584 0
M  V30 30 H 3.214012 -1.810959 0.541101 0
M  V30 31 H 0.905796 1.136069 -0.096394 0
M  V30 32 H -0.366633 3.240235 0.705664 0
M  V30 33 H -2.128005 4.730054 0.048525 0
M  V30 34 H -2.330308 0.053287 -1.345187 0
M  V30 35 H -4.473076 3.299148 -3.537217 0
M  V30 36 H -6.051332 3.077225 -2.612416 0
M  V30 END ATOM
M  V30 BEGIN BOND
M  V30 1 2 1 2
M  V30 2 1 2 3
M  V30 3 1 3 4
M  V30 4 1 4 5
M  V30 5 1 5 6
M  V30 6 2 6 7
M  V30 7 1 7 8
M  V30 8 2 8 9
M  V30 9 1 9 10
M  V30 10 2 10 11
M  V30 11 2 4 12
M  V30 12 1 12 13
M  V30 13 2 13 14
M  V30 14 1 14 15
M  V30 15 2 15 16
M  V30 16 1 16 17
M  V30 17 2 17 18
M  V30 18 1 18 19
M  V30 19 2 19 20
M  V30 20 1 19 21
M  V30 21 1 21 22
M  V30 22 1 22 23
M  V30 23 1 13 2
M  V30 24 1 20 15
M  V30 25 1 11 6
M  V30 26 1 23 18
M  V30 27 1 3 24
M  V30 28 1 5 25
M  V30 29 1 7 26
M  V30 30 1 8 27
M  V30 31 1 9 28
M  V30 32 1 10 29
M  V30 33 1 11 30
M  V30 34 1 14 31
M  V30 35 1 16 32
M  V30 36 1 17 33
M  V30 37 1 20 34
M  V30 38 1 22 35
M  V30 39 1 22 36
M  V30 END BOND
M  V30 END CTAB
M  END
>  <Dataset>  (440) 
ChEMBL_Kinases

>  <Ligand_Instance>  (440) 
nan

>  <PDB_ID>  (440) 
nan

>  <Standardized_SMILES>  (440) 
O=C1NC(Nc2ccccc2)=N/C1=C/c1ccc2c(c1)OCO2

>  <Name>  (440) 
nan

>  <Pocket>  (440) 
nan

>  <ATP_Site>  (440) 
nan

>  <Peripheral>  (440) 
nan

>  <Num_H_Atoms_ProtBoundConf>  (440) 
nan

>  <Num_Resolved_Atoms>  (440) 
nan

>  <Num_Not_Resolved_Atoms>  (440) 
nan

$$$$
CHEMBL4283739
     RDKit          3D

  0  0  0  0  0  0  0  0  0  0999 V3000
M  V30 BEGIN CTAB
M  V30 COUNTS 52 54 0 0 0
M  V30 BEGIN ATOM
M  V30 1 C 1.071947 2.905769 -2.912025 0
M  V30 2 O 0.833551 2.050253 -1.815941 0
M  V30 3 C 1.719562 1.912580 -0.775638 0
M  V30 4 C 2.884333 2.646476 -0.818436 0
M  V30 5 C 3.796945 2.533397 0.208788 0
M  V30 6 C 5.030908 3.338012 0.121667 0
M  V30 7 C 3.478937 1.673091 1.237820 0
M  V30 8 S 4.629205 1.530339 2.532687 0
M  V30 9 N 4.829983 3.089921 3.246540 0
M  V30 10 O 5.949813 0.997100 2.069903 0
M  V30 11 O 4.061776 0.638171 3.588054 0
M  V30 12 C 2.305674 0.954239 1.249501 0
M  V30 13 C 1.376479 1.049013 0.234999 0
M  V30 14 C 0.179973 0.241900 0.361047 0
M  V30 15 O 0.017855 -0.504176 1.359808 0
M  V30 16 N -0.929616 0.133572 -0.509012 0
M  V30 17 C -2.030798 -0.716555 -0.227443 0
M  V30 18 C -3.085289 -0.781184 -1.113856 0
M  V30 19 C -4.205006 -1.556267 -0.965159 0
M  V30 20 C -4.239027 -2.328600 0.194597 0
M  V30 21 C -3.181911 -2.271957 1.095784 0
M  V30 22 C -3.316078 -3.115706 2.272150 0
M  V30 23 N -3.817444 -2.624792 3.439844 0
M  V30 24 N -3.841560 -3.570463 4.354655 0
M  V30 25 C -3.357436 -4.683209 3.792918 0
M  V30 26 N -3.037479 -4.400437 2.519711 0
M  V30 27 C -2.482094 -5.276853 1.520817 0
M  V30 28 C -1.112913 -4.841960 1.042176 0
M  V30 29 C -3.439099 -5.505713 0.377628 0
M  V30 30 N -2.101472 -1.472203 0.872292 0
M  V30 31 H 1.927809 2.498211 -3.504989 0
M  V30 32 H 1.352902 3.930880 -2.561645 0
M  V30 33 H 0.175846 2.993520 -3.541778 0
M  V30 34 H 3.076579 3.303878 -1.652198 0
M  V30 35 H 5.932459 2.810674 0.538279 0
M  V30 36 H 4.921149 4.360155 0.550902 0
M  V30 37 H 5.291138 3.494380 -0.953301 0
M  V30 38 H 5.529369 3.668782 2.768722 0
M  V30 39 H 3.930873 3.608439 3.226313 0
M  V30 40 H 2.153518 0.308720 2.102410 0
M  V30 41 H -0.913206 0.705720 -1.375885 0
M  V30 42 H -3.026323 -0.168727 -2.003647 0
M  V30 43 H -4.985883 -1.545729 -1.711639 0
M  V30 44 H -5.099265 -2.956391 0.358694 0
M  V30 45 H -3.244835 -5.643807 4.283885 0
M  V30 46 H -2.335508 -6.290333 1.992763 0
M  V30 47 H -0.636068 -4.162998 1.790128 0
M  V30 48 H -0.441696 -5.726121 0.887630 0
M  V30 49 H -1.241785 -4.376095 0.056364 0
M  V30 50 H -3.396495 -6.576709 0.023198 0
M  V30 51 H -3.105060 -4.909044 -0.494119 0
M  V30 52 H -4.490896 -5.267705 0.647723 0
M  V30 END ATOM
M  V30 BEGIN BOND
M  V30 1 1 1 2
M  V30 2 1 2 3
M  V30 3 2 3 4
M  V30 4 1 4 5
M  V30 5 1 5 6
M  V30 6 2 5 7
M  V30 7 1 7 8
M  V30 8 1 8 9
M  V30 9 2 8 10
M  V30 10 2 8 11
M  V30 11 1 7 12
M  V30 12 2 12 13
M  V30 13 1 13 14
M  V30 14 2 14 15
M  V30 15 1 14 16
M  V30 16 1 16 17
M  V30 17 2 17 18
M  V30 18 1 18 19
M  V30 19 2 19 20
M  V30 20 1 20 21
M  V30 21 1 21 22
M  V30 22 2 22 23
M  V30 23 1 23 24
M  V30 24 2 24 25
M  V30 25 1 25 26
M  V30 26 1 26 27
M  V30 27 1 27 28
M  V30 28 1 27 29
M  V30 29 2 21 30
M  V30 30 1 13 3
M  V30 31 1 30 17
M  V30 32 1 26 22
M  V30 33 1 1 31
M  V30 34 1 1 32
M  V30 35 1 1 33
M  V30 36 1 4 34
M  V30 37 1 6 35
M  V30 38 1 6 36
M  V30 39 1 6 37
M  V30 40 1 9 38
M  V30 41 1 9 39
M  V30 42 1 12 40
M  V30 43 1 16 41
M  V30 44 1 18 42
M  V30 45 1 19 43
M  V30 46 1 20 44
M  V30 47 1 25 45
M  V30 48 1 27 46
M  V30 49 1 28 47
M  V30 50 1 28 48
M  V30 51 1 28 49
M  V30 52 1 29 50
M  V30 53 1 29 51
M  V30 54 1 29 52
M  V30 END BOND
M  V30 END CTAB
M  END
>  <Dataset>  (441) 
ChEMBL_Kinases

>  <Ligand_Instance>  (441) 
nan

>  <PDB_ID>  (441) 
nan

>  <Standardized_SMILES>  (441) 
COc1cc(C)c(S(N)(=O)=O)cc1C(=O)Nc1cccc(-c2nncn2C(C)C)n1

>  <Name>  (441) 
nan

>  <Pocket>  (441) 
nan

>  <ATP_Site>  (441) 
nan

>  <Peripheral>  (441) 
nan

>  <Num_H_Atoms_ProtBoundConf>  (441) 
nan

>  <Num_Resolved_Atoms>  (441) 
nan

>  <Num_Not_Resolved_Atoms>  (441) 
nan

$$$$
CHEMBL4759051
     RDKit          3D

  0  0  0  0  0  0  0  0  0  0999 V3000
M  V30 BEGIN CTAB
M  V30 COUNTS 60 63 0 0 0
M  V30 BEGIN ATOM
M  V30 1 C 0.732780 -5.785589 -0.628380 0
M  V30 2 C 2.245159 -5.576623 -0.551765 0
M  V30 3 O 2.729332 -5.633764 0.756632 0
M  V30 4 C 2.375023 -4.819165 1.799748 0
M  V30 5 N 1.457769 -3.849457 1.536369 0
M  V30 6 C 1.033565 -2.992041 2.481276 0
M  V30 7 N 0.081899 -2.024362 2.036252 0
M  V30 8 C 0.068544 -0.670064 1.627024 0
M  V30 9 C 1.226934 0.066474 1.685513 0
M  V30 10 C 1.275140 1.383420 1.336767 0
M  V30 11 C 0.110958 1.989881 0.910233 0
M  V30 12 C -0.195160 3.369458 0.474283 0
M  V30 13 O -0.464167 4.316585 1.248611 0
M  V30 14 N -0.112349 3.333613 -0.967038 0
M  V30 15 C 0.208472 2.300598 -1.955297 0
M  V30 16 C -1.014281 2.056078 -2.853454 0
M  V30 17 N -2.031542 2.970348 -2.462040 0
M  V30 18 C -3.363922 2.626109 -2.813210 0
M  V30 19 C -1.656822 4.335967 -2.580147 0
M  V30 20 C -0.429424 4.576544 -1.686293 0
M  V30 21 C -1.074253 1.237489 0.849215 0
M  V30 22 C -1.115909 -0.115463 1.208257 0
M  V30 23 N -2.355066 -0.845704 1.095637 0
M  V30 24 C -2.426352 -1.931715 0.112769 0
M  V30 25 C -3.577665 -0.628932 1.855126 0
M  V30 26 N 1.511897 -3.068318 3.735192 0
M  V30 27 C 2.424798 -3.997708 4.087718 0
M  V30 28 N 3.097349 -4.356546 5.188183 0
M  V30 29 C 3.922149 -5.402317 4.968395 0
M  V30 30 C 3.768152 -5.739330 3.629942 0
M  V30 31 C 2.842142 -4.862010 3.106825 0
M  V30 32 H 0.331305 -5.593751 0.394547 0
M  V30 33 H 0.310193 -5.002433 -1.294131 0
M  V30 34 H 0.481052 -6.814764 -0.963356 0
M  V30 35 H 2.719924 -6.378032 -1.147800 0
M  V30 36 H 2.517279 -4.587366 -0.989525 0
M  V30 37 H -0.797128 -2.596234 2.074805 0
M  V30 38 H 2.181124 -0.327859 2.007683 0
M  V30 39 H 2.076687 2.106039 1.323823 0
M  V30 40 H 0.572034 1.370156 -1.511740 0
M  V30 41 H 1.026351 2.717995 -2.591565 0
M  V30 42 H -1.337183 1.007273 -2.644262 0
M  V30 43 H -0.711832 2.111207 -3.923298 0
M  V30 44 H -3.445774 1.628119 -3.319470 0
M  V30 45 H -3.918904 3.414028 -3.347671 0
M  V30 46 H -3.909993 2.467999 -1.834452 0
M  V30 47 H -1.343792 4.591172 -3.610509 0
M  V30 48 H -2.487747 5.023627 -2.322172 0
M  V30 49 H 0.469895 4.824853 -2.271285 0
M  V30 50 H -0.715476 5.364393 -0.969989 0
M  V30 51 H -2.051051 1.611583 0.527765 0
M  V30 52 H -3.036061 -2.758736 0.468831 0
M  V30 53 H -1.390704 -2.209123 -0.187870 0
M  V30 54 H -2.984264 -1.491217 -0.767898 0
M  V30 55 H -4.363585 -0.319402 1.111643 0
M  V30 56 H -3.458712 0.124381 2.665185 0
M  V30 57 H -3.908128 -1.615838 2.215404 0
M  V30 58 H 2.978553 -3.866499 6.110837 0
M  V30 59 H 4.570999 -5.875101 5.702058 0
M  V30 60 H 4.286466 -6.534889 3.126939 0
M  V30 END ATOM
M  V30 BEGIN BOND
M  V30 1 1 1 2
M  V30 2 1 2 3
M  V30 3 1 3 4
M  V30 4 2 4 5
M  V30 5 1 5 6
M  V30 6 1 6 7
M  V30 7 1 7 8
M  V30 8 2 8 9
M  V30 9 1 9 10
M  V30 10 2 10 11
M  V30 11 1 11 12
M  V30 12 2 12 13
M  V30 13 1 12 14
M  V30 14 1 14 15
M  V30 15 1 15 16
M  V30 16 1 16 17
M  V30 17 1 17 18
M  V30 18 1 17 19
M  V30 19 1 19 20
M  V30 20 1 11 21
M  V30 21 2 21 22
M  V30 22 1 22 23
M  V30 23 1 23 24
M  V30 24 1 23 25
M  V30 25 2 6 26
M  V30 26 1 26 27
M  V30 27 1 27 28
M  V30 28 1 28 29
M  V30 29 2 29 30
M  V30 30 1 30 31
M  V30 31 1 31 4
M  V30 32 1 22 8
M  V30 33 2 31 27
M  V30 34 1 20 14
M  V30 35 1 1 32
M  V30 36 1 1 33
M  V30 37 1 1 34
M  V30 38 1 2 35
M  V30 39 1 2 36
M  V30 40 1 7 37
M  V30 41 1 9 38
M  V30 42 1 10 39
M  V30 43 1 15 40
M  V30 44 1 15 41
M  V30 45 1 16 42
M  V30 46 1 16 43
M  V30 47 1 18 44
M  V30 48 1 18 45
M  V30 49 1 18 46
M  V30 50 1 19 47
M  V30 51 1 19 48
M  V30 52 1 20 49
M  V30 53 1 20 50
M  V30 54 1 21 51
M  V30 55 1 24 52
M  V30 56 1 24 53
M  V30 57 1 24 54
M  V30 58 1 25 55
M  V30 59 1 25 56
M  V30 60 1 25 57
M  V30 61 1 28 58
M  V30 62 1 29 59
M  V30 63 1 30 60
M  V30 END BOND
M  V30 END CTAB
M  END
>  <Dataset>  (442) 
ChEMBL_Kinases

>  <Ligand_Instance>  (442) 
nan

>  <PDB_ID>  (442) 
nan

>  <Standardized_SMILES>  (442) 
CCOc1nc(Nc2ccc(C(=O)N3CCN(C)CC3)cc2N(C)C)nc2[nH]ccc12

>  <Name>  (442) 
nan

>  <Pocket>  (442) 
nan

>  <ATP_Site>  (442) 
nan

>  <Peripheral>  (442) 
nan

>  <Num_H_Atoms_ProtBoundConf>  (442) 
nan

>  <Num_Resolved_Atoms>  (442) 
nan

>  <Num_Not_Resolved_Atoms>  (442) 
nan

$$$$
CHEMBL4759053
     RDKit          3D

  0  0  0  0  0  0  0  0  0  0999 V3000
M  V30 BEGIN CTAB
M  V30 COUNTS 51 54 0 0 0
M  V30 BEGIN ATOM
M  V30 1 C 3.593779 -5.221877 4.653465 0
M  V30 2 C 4.259504 -4.404029 3.607500 0
M  V30 3 O 5.295556 -4.688268 2.952961 0
M  V30 4 N 3.686876 -3.143312 3.279390 0
M  V30 5 C 3.975751 -2.070050 2.376463 0 CFG=2
M  V30 6 C 4.301881 -0.779799 3.068905 0
M  V30 7 C 3.054883 0.028057 3.367463 0
M  V30 8 C 2.268904 0.376952 2.129824 0
M  V30 9 C 2.848886 -0.379516 0.966963 0 CFG=2
M  V30 10 C 1.994162 -0.230896 -0.258668 0
M  V30 11 O 2.181171 0.222802 -1.405911 0
M  V30 12 N 0.691225 -0.731314 -0.010822 0
M  V30 13 C -0.364227 -0.731868 -0.988598 0
M  V30 14 C -1.261321 0.304190 -1.157150 0
M  V30 15 C -2.235855 0.207035 -2.121801 0
M  V30 16 C -3.130190 1.369557 -2.206886 0
M  V30 17 C -3.126107 2.559535 -2.912090 0
M  V30 18 N -4.243091 3.253600 -2.570934 0
M  V30 19 N -4.905233 2.516971 -1.690985 0
M  V30 20 C -6.086749 2.874215 -1.107636 0
M  V30 21 C -6.667719 2.013421 -0.208981 0
M  V30 22 C -6.069912 0.807800 0.100833 0
M  V30 23 C -4.875581 0.476582 -0.506485 0
M  V30 24 C -4.285347 1.354223 -1.421309 0
M  V30 25 C -2.311822 -0.921524 -2.913567 0
M  V30 26 Cl -3.577312 -0.968573 -4.115711 0
M  V30 27 C -1.408305 -1.950475 -2.734531 0
M  V30 28 N -0.480667 -1.811164 -1.786355 0
M  V30 29 C 2.906225 -1.845179 1.368247 0
M  V30 30 H 4.038580 -4.983722 5.620786 0
M  V30 31 H 2.524788 -4.961620 4.681825 0
M  V30 32 H 3.652166 -6.299758 4.395806 0
M  V30 33 H 2.813907 -2.759660 3.740733 0
M  V30 34 H 4.907604 -2.377336 1.820537 0
M  V30 35 H 4.993703 -0.129941 2.477237 0
M  V30 36 H 4.811862 -0.936272 4.041428 0
M  V30 37 H 3.376004 0.940290 3.926303 0
M  V30 38 H 2.451819 -0.559608 4.116388 0
M  V30 39 H 1.235314 -0.026476 2.293042 0
M  V30 40 H 2.216740 1.462914 1.992003 0
M  V30 41 H 3.882669 -0.029456 0.769639 0
M  V30 42 H 0.249490 -1.167882 0.850296 0
M  V30 43 H -1.137463 1.160727 -0.494893 0
M  V30 44 H -2.293733 2.756379 -3.587814 0
M  V30 45 H -6.588233 3.802380 -1.318377 0
M  V30 46 H -7.614027 2.188892 0.323547 0
M  V30 47 H -6.462997 0.074352 0.797983 0
M  V30 48 H -4.370284 -0.440505 -0.304766 0
M  V30 49 H -1.474095 -2.836111 -3.361568 0
M  V30 50 H 1.910948 -2.100207 1.787812 0
M  V30 51 H 3.093577 -2.391184 0.403116 0
M  V30 END ATOM
M  V30 BEGIN BOND
M  V30 1 1 1 2
M  V30 2 2 2 3
M  V30 3 1 2 4
M  V30 4 1 4 5
M  V30 5 1 5 6
M  V30 6 1 6 7
M  V30 7 1 7 8
M  V30 8 1 8 9
M  V30 9 1 9 10
M  V30 10 2 10 11
M  V30 11 1 10 12
M  V30 12 1 12 13
M  V30 13 2 13 14
M  V30 14 1 14 15
M  V30 15 1 15 16
M  V30 16 1 16 17
M  V30 17 2 17 18
M  V30 18 1 18 19
M  V30 19 1 19 20
M  V30 20 2 20 21
M  V30 21 1 21 22
M  V30 22 2 22 23
M  V30 23 1 23 24
M  V30 24 2 15 25
M  V30 25 1 25 26
M  V30 26 1 25 27
M  V30 27 2 27 28
M  V30 28 1 9 29
M  V30 29 1 29 5
M  V30 30 1 28 13
M  V30 31 2 24 16
M  V30 32 1 24 19
M  V30 33 1 1 30
M  V30 34 1 1 31
M  V30 35 1 1 32
M  V30 36 1 4 33
M  V30 37 1 5 34 CFG=3
M  V30 38 1 6 35
M  V30 39 1 6 36
M  V30 40 1 7 37
M  V30 41 1 7 38
M  V30 42 1 8 39
M  V30 43 1 8 40
M  V30 44 1 9 41 CFG=3
M  V30 45 1 12 42
M  V30 46 1 14 43
M  V30 47 1 17 44
M  V30 48 1 20 45
M  V30 49 1 21 46
M  V30 50 1 22 47
M  V30 51 1 23 48
M  V30 52 1 27 49
M  V30 53 1 29 50
M  V30 54 1 29 51
M  V30 END BOND
M  V30 END CTAB
M  END
>  <Dataset>  (443) 
ChEMBL_Kinases

>  <Ligand_Instance>  (443) 
nan

>  <PDB_ID>  (443) 
nan

>  <Standardized_SMILES>  (443) 
CC(=O)N[C@@H]1CCC[C@H](C(=O)Nc2cc(-c3cnn4ccccc34)c(Cl)cn2)C1

>  <Name>  (443) 
nan

>  <Pocket>  (443) 
nan

>  <ATP_Site>  (443) 
nan

>  <Peripheral>  (443) 
nan

>  <Num_H_Atoms_ProtBoundConf>  (443) 
nan

>  <Num_Resolved_Atoms>  (443) 
nan

>  <Num_Not_Resolved_Atoms>  (443) 
nan

$$$$
CHEMBL4759074
     RDKit          3D

  0  0  0  0  0  0  0  0  0  0999 V3000
M  V30 BEGIN CTAB
M  V30 COUNTS 58 61 0 0 0
M  V30 BEGIN ATOM
M  V30 1 C 3.306598 -3.869951 5.420469 0
M  V30 2 C 2.982499 -2.601370 4.709794 0
M  V30 3 O 1.801403 -2.585361 4.295372 0
M  V30 4 N 3.888570 -1.505361 4.504388 0
M  V30 5 C 3.453471 -0.332323 3.800611 0
M  V30 6 C 3.520177 0.938237 4.576852 0
M  V30 7 C 3.595609 2.091429 3.570193 0
M  V30 8 C 2.811828 1.765033 2.305512 0
M  V30 9 C 3.552731 0.689927 1.585351 0
M  V30 10 C 2.715320 -0.124321 0.667955 0
M  V30 11 O 2.487942 -1.382311 0.689821 0
M  V30 12 N 2.047157 0.529618 -0.404629 0
M  V30 13 C 1.276318 -0.398384 -1.202531 0
M  V30 14 C -0.043637 -0.679078 -0.907271 0
M  V30 15 C -0.814892 -1.556866 -1.640289 0
M  V30 16 C -2.212089 -1.792716 -1.249391 0
M  V30 17 C -2.655428 -2.773044 -0.359251 0
M  V30 18 N -4.009523 -2.654524 -0.273428 0
M  V30 19 N -4.399989 -1.648018 -1.071166 0
M  V30 20 C -3.326695 -1.099995 -1.682243 0
M  V30 21 C -3.801289 0.005778 -2.553077 0
M  V30 22 C -5.227596 -0.418197 -2.829582 0
M  V30 23 C -6.110230 0.733512 -3.252550 0
M  V30 24 C -5.297037 -1.547270 -3.835048 0
M  V30 25 C -5.626177 -0.981715 -1.466667 0
M  V30 26 C -0.213336 -2.175878 -2.722617 0
M  V30 27 Cl -1.160080 -3.304248 -3.686449 0
M  V30 28 C 1.108382 -1.898479 -3.022994 0
M  V30 29 N 1.843137 -1.023904 -2.276029 0
M  V30 30 C 4.319768 -0.144760 2.563806 0
M  V30 31 H 2.916437 -4.772601 4.900759 0
M  V30 32 H 4.409742 -4.015930 5.530975 0
M  V30 33 H 2.795432 -3.846181 6.406206 0
M  V30 34 H 4.849898 -1.630731 4.895211 0
M  V30 35 H 2.383183 -0.502569 3.513270 0
M  V30 36 H 2.597493 1.137574 5.189168 0
M  V30 37 H 4.439560 1.019215 5.191747 0
M  V30 38 H 3.201576 3.032824 3.997348 0
M  V30 39 H 4.638052 2.288658 3.264027 0
M  V30 40 H 2.817705 2.679774 1.694407 0
M  V30 41 H 1.756682 1.512950 2.527129 0
M  V30 42 H 4.329773 1.188794 0.941849 0
M  V30 43 H 2.155988 1.557061 -0.526039 0
M  V30 44 H -0.462808 -0.166776 -0.050554 0
M  V30 45 H -2.017188 -3.478219 0.149082 0
M  V30 46 H -3.865851 0.948730 -1.990104 0
M  V30 47 H -3.210846 0.122680 -3.480882 0
M  V30 48 H -5.994514 0.827939 -4.356932 0
M  V30 49 H -5.775432 1.647110 -2.739170 0
M  V30 50 H -7.150167 0.470160 -2.991968 0
M  V30 51 H -6.344426 -1.618453 -4.193463 0
M  V30 52 H -4.644538 -1.328339 -4.705661 0
M  V30 53 H -5.024312 -2.514739 -3.375606 0
M  V30 54 H -6.490960 -1.650415 -1.509919 0
M  V30 55 H -5.825722 -0.074523 -0.827212 0
M  V30 56 H 1.595833 -2.372435 -3.864888 0
M  V30 57 H 5.236078 0.370115 2.918322 0
M  V30 58 H 4.615028 -1.124981 2.125256 0
M  V30 END ATOM
M  V30 BEGIN BOND
M  V30 1 1 1 2
M  V30 2 2 2 3
M  V30 3 1 2 4
M  V30 4 1 4 5
M  V30 5 1 5 6
M  V30 6 1 6 7
M  V30 7 1 7 8
M  V30 8 1 8 9
M  V30 9 1 9 10
M  V30 10 2 10 11
M  V30 11 1 10 12
M  V30 12 1 12 13
M  V30 13 2 13 14
M  V30 14 1 14 15
M  V30 15 1 15 16
M  V30 16 1 16 17
M  V30 17 2 17 18
M  V30 18 1 18 19
M  V30 19 1 19 20
M  V30 20 1 20 21
M  V30 21 1 21 22
M  V30 22 1 22 23
M  V30 23 1 22 24
M  V30 24 1 22 25
M  V30 25 2 15 26
M  V30 26 1 26 27
M  V30 27 1 26 28
M  V30 28 2 28 29
M  V30 29 1 9 30
M  V30 30 1 30 5
M  V30 31 1 29 13
M  V30 32 2 20 16
M  V30 33 1 25 19
M  V30 34 1 1 31
M  V30 35 1 1 32
M  V30 36 1 1 33
M  V30 37 1 4 34
M  V30 38 1 5 35
M  V30 39 1 6 36
M  V30 40 1 6 37
M  V30 41 1 7 38
M  V30 42 1 7 39
M  V30 43 1 8 40
M  V30 44 1 8 41
M  V30 45 1 9 42
M  V30 46 1 12 43
M  V30 47 1 14 44
M  V30 48 1 17 45
M  V30 49 1 21 46
M  V30 50 1 21 47
M  V30 51 1 23 48
M  V30 52 1 23 49
M  V30 53 1 23 50
M  V30 54 1 24 51
M  V30 55 1 24 52
M  V30 56 1 24 53
M  V30 57 1 25 54
M  V30 58 1 25 55
M  V30 59 1 28 56
M  V30 60 1 30 57
M  V30 61 1 30 58
M  V30 END BOND
M  V30 END CTAB
M  END
>  <Dataset>  (444) 
ChEMBL_Kinases

>  <Ligand_Instance>  (444) 
nan

>  <PDB_ID>  (444) 
nan

>  <Standardized_SMILES>  (444) 
CC(=O)NC1CCCC(C(=O)Nc2cc(-c3cnn4c3CC(C)(C)C4)c(Cl)cn2)C1

>  <Name>  (444) 
nan

>  <Pocket>  (444) 
nan

>  <ATP_Site>  (444) 
nan

>  <Peripheral>  (444) 
nan

>  <Num_H_Atoms_ProtBoundConf>  (444) 
nan

>  <Num_Resolved_Atoms>  (444) 
nan

>  <Num_Not_Resolved_Atoms>  (444) 
nan

$$$$
CHEMBL4759082
     RDKit          3D

  0  0  0  0  0  0  0  0  0  0999 V3000
M  V30 BEGIN CTAB
M  V30 COUNTS 25 26 0 0 0
M  V30 BEGIN ATOM
M  V30 1 C 0.166082 -1.683720 4.477671 0
M  V30 2 O 0.113833 -1.044908 3.230175 0
M  V30 3 C 1.170316 -1.025033 2.342121 0
M  V30 4 C 2.323111 -1.673345 2.725452 0
M  V30 5 C 3.482386 -1.768496 1.987059 0
M  V30 6 C 3.456235 -1.148477 0.756576 0
M  V30 7 C 2.278518 -0.489898 0.372520 0
M  V30 8 S 1.897899 0.419638 -1.157849 0
M  V30 9 C 0.126839 0.805195 -0.514592 0
M  V30 10 N -1.063292 1.540596 -1.043608 0
M  V30 11 C -2.011796 0.820741 -1.799462 0
M  V30 12 C -3.191658 1.600681 -2.310882 0
M  V30 13 O -1.903103 -0.410910 -2.049189 0
M  V30 14 N 0.178433 0.284723 0.494549 0
M  V30 15 C 1.139119 -0.393048 1.091536 0
M  V30 16 H -0.790267 -1.478577 5.009050 0
M  V30 17 H 0.172934 -2.783235 4.291901 0
M  V30 18 H 1.050014 -1.366494 5.036498 0
M  V30 19 H 2.367562 -2.177127 3.706630 0
M  V30 20 H 4.399652 -2.263724 2.250428 0
M  V30 21 H 4.235450 -1.090989 0.015118 0
M  V30 22 H -1.070763 2.534941 -0.793609 0
M  V30 23 H -2.881815 2.650512 -2.493244 0
M  V30 24 H -3.559503 1.104042 -3.237045 0
M  V30 25 H -4.000737 1.632278 -1.557838 0
M  V30 END ATOM
M  V30 BEGIN BOND
M  V30 1 1 1 2
M  V30 2 1 2 3
M  V30 3 2 3 4
M  V30 4 1 4 5
M  V30 5 2 5 6
M  V30 6 1 6 7
M  V30 7 1 7 8
M  V30 8 1 8 9
M  V30 9 1 9 10
M  V30 10 1 10 11
M  V30 11 1 11 12
M  V30 12 2 11 13
M  V30 13 2 9 14
M  V30 14 1 14 15
M  V30 15 1 15 3
M  V30 16 2 15 7
M  V30 17 1 1 16
M  V30 18 1 1 17
M  V30 19 1 1 18
M  V30 20 1 4 19
M  V30 21 1 5 20
M  V30 22 1 6 21
M  V30 23 1 10 22
M  V30 24 1 12 23
M  V30 25 1 12 24
M  V30 26 1 12 25
M  V30 END BOND
M  V30 END CTAB
M  END
>  <Dataset>  (445) 
ChEMBL_Kinases

>  <Ligand_Instance>  (445) 
nan

>  <PDB_ID>  (445) 
nan

>  <Standardized_SMILES>  (445) 
COc1cccc2sc(NC(C)=O)nc12

>  <Name>  (445) 
nan

>  <Pocket>  (445) 
nan

>  <ATP_Site>  (445) 
nan

>  <Peripheral>  (445) 
nan

>  <Num_H_Atoms_ProtBoundConf>  (445) 
nan

>  <Num_Resolved_Atoms>  (445) 
nan

>  <Num_Not_Resolved_Atoms>  (445) 
nan

$$$$
CHEMBL4758859
     RDKit          3D

  0  0  0  0  0  0  0  0  0  0999 V3000
M  V30 BEGIN CTAB
M  V30 COUNTS 82 87 0 0 0
M  V30 BEGIN ATOM
M  V30 1 C 3.671506 -1.489448 4.697191 0
M  V30 2 C 4.605018 -1.886880 3.593304 0
M  V30 3 C 4.089732 -1.835447 2.219302 0 CFG=2
M  V30 4 C 5.122313 -2.314662 1.217866 0
M  V30 5 N 6.239754 -3.020468 1.410978 0
M  V30 6 N 6.758607 -3.383435 0.234909 0
M  V30 7 C 5.907054 -2.864000 -0.689312 0
M  V30 8 N 4.889727 -2.194212 -0.080847 0
M  V30 9 C 3.901065 -1.387855 -0.643627 0
M  V30 10 C 3.716819 -1.367626 -2.004072 0
M  V30 11 N 2.715025 -0.554400 -2.430629 0
M  V30 12 C 1.979072 0.164686 -1.540942 0
M  V30 13 N 0.981600 0.945432 -2.166443 0
M  V30 14 C -0.393673 0.617189 -2.294288 0
M  V30 15 C -0.801872 -0.545974 -1.682479 0
M  V30 16 C -2.088168 -1.037824 -1.669267 0
M  V30 17 C -3.074157 -0.298489 -2.332953 0
M  V30 18 C -4.496375 -0.649052 -2.413820 0
M  V30 19 O -5.305758 -0.009827 -3.131518 0
M  V30 20 N -4.886117 -1.749679 -1.630518 0
M  V30 21 C -6.255178 -2.184536 -1.631871 0
M  V30 22 C -6.436147 -3.657028 -1.903808 0
M  V30 23 C -7.911125 -3.935193 -2.064334 0
M  V30 24 N -8.747409 -3.382633 -1.055668 0
M  V30 25 C -9.164663 -4.286154 -0.021437 0
M  V30 26 C -8.437223 -2.058011 -0.623624 0
M  V30 27 C -6.942119 -1.913754 -0.303572 0
M  V30 28 C -2.682071 0.859827 -2.945904 0
M  V30 29 C -1.389924 1.338558 -2.949745 0
M  V30 30 O -0.959228 2.507962 -3.560756 0
M  V30 31 C -1.944500 3.280232 -4.244932 0
M  V30 32 N 2.183223 0.124311 -0.214546 0
M  V30 33 C 3.168782 -0.664921 0.310485 0
M  V30 34 N 3.396247 -0.708163 1.745165 0
M  V30 35 C 2.913208 0.472550 2.386917 0
M  V30 36 C 4.107881 1.373152 2.745458 0
M  V30 37 C 3.648856 2.618887 3.429123 0
M  V30 38 C 4.743351 3.577374 3.710116 0
M  V30 39 C 6.065268 2.972516 3.311853 0
M  V30 40 C 6.029758 2.602281 1.850363 0
M  V30 41 C 4.815030 1.805618 1.475944 0
M  V30 42 H 3.820385 -0.445981 4.961498 0
M  V30 43 H 3.899809 -2.063730 5.647602 0
M  V30 44 H 2.628705 -1.732620 4.370310 0
M  V30 45 H 5.563654 -1.353540 3.761482 0
M  V30 46 H 4.883193 -2.975561 3.793146 0
M  V30 47 H 3.331708 -2.715311 2.168863 0
M  V30 48 H 6.098452 -3.017852 -1.762855 0
M  V30 49 H 4.346921 -1.967321 -2.614017 0
M  V30 50 H 1.192663 1.859488 -2.598843 0
M  V30 51 H -0.080539 -1.178361 -1.142416 0
M  V30 52 H -2.399185 -1.950072 -1.187895 0
M  V30 53 H -4.353682 -2.374194 -0.990661 0
M  V30 54 H -6.838981 -1.620042 -2.379992 0
M  V30 55 H -5.956309 -3.994581 -2.847214 0
M  V30 56 H -6.058257 -4.290120 -1.064717 0
M  V30 57 H -8.112958 -5.031002 -2.109533 0
M  V30 58 H -8.188280 -3.468197 -3.052964 0
M  V30 59 H -9.852688 -5.034473 -0.481210 0
M  V30 60 H -9.786510 -3.743053 0.736488 0
M  V30 61 H -8.354318 -4.875072 0.443459 0
M  V30 62 H -9.031097 -1.788493 0.247239 0
M  V30 63 H -8.604255 -1.392428 -1.521293 0
M  V30 64 H -6.781920 -0.860161 -0.014092 0
M  V30 65 H -6.678279 -2.652782 0.481566 0
M  V30 66 H -3.406364 1.477268 -3.478816 0
M  V30 67 H -2.757112 3.602852 -3.566391 0
M  V30 68 H -1.482304 4.096270 -4.818412 0
M  V30 69 H -2.405118 2.572917 -4.967908 0
M  V30 70 H 2.295826 0.307598 3.294925 0
M  V30 71 H 2.276451 1.097528 1.733781 0
M  V30 72 H 4.855906 0.864707 3.355270 0
M  V30 73 H 3.189591 2.300157 4.410109 0
M  V30 74 H 2.793280 3.063756 2.871313 0
M  V30 75 H 4.567584 4.557729 3.215008 0
M  V30 76 H 4.814215 3.760303 4.811474 0
M  V30 77 H 6.294356 2.123997 3.985545 0
M  V30 78 H 6.907943 3.705299 3.492501 0
M  V30 79 H 6.948693 1.974836 1.684787 0
M  V30 80 H 6.103169 3.556091 1.266654 0
M  V30 81 H 4.152081 2.493177 0.896660 0
M  V30 82 H 5.124002 0.970909 0.835210 0
M  V30 END ATOM
M  V30 BEGIN BOND
M  V30 1 1 1 2
M  V30 2 1 2 3
M  V30 3 1 3 4
M  V30 4 2 4 5
M  V30 5 1 5 6
M  V30 6 2 6 7
M  V30 7 1 7 8
M  V30 8 1 8 9
M  V30 9 2 9 10
M  V30 10 1 10 11
M  V30 11 2 11 12
M  V30 12 1 12 13
M  V30 13 1 13 14
M  V30 14 2 14 15
M  V30 15 1 15 16
M  V30 16 2 16 17
M  V30 17 1 17 18
M  V30 18 2 18 19
M  V30 19 1 18 20
M  V30 20 1 20 21
M  V30 21 1 21 22
M  V30 22 1 22 23
M  V30 23 1 23 24
M  V30 24 1 24 25
M  V30 25 1 24 26
M  V30 26 1 26 27
M  V30 27 1 17 28
M  V30 28 2 28 29
M  V30 29 1 29 30
M  V30 30 1 30 31
M  V30 31 1 12 32
M  V30 32 2 32 33
M  V30 33 1 33 34
M  V30 34 1 34 35
M  V30 35 1 35 36
M  V30 36 1 36 37
M  V30 37 1 37 38
M  V30 38 1 38 39
M  V30 39 1 39 40
M  V30 40 1 40 41
M  V30 41 1 34 3
M  V30 42 1 41 36
M  V30 43 1 8 4
M  V30 44 1 33 9
M  V30 45 1 29 14
M  V30 46 1 27 21
M  V30 47 1 1 42
M  V30 48 1 1 43
M  V30 49 1 1 44
M  V30 50 1 2 45
M  V30 51 1 2 46
M  V30 52 1 3 47 CFG=1
M  V30 53 1 7 48
M  V30 54 1 10 49
M  V30 55 1 13 50
M  V30 56 1 15 51
M  V30 57 1 16 52
M  V30 58 1 20 53
M  V30 59 1 21 54
M  V30 60 1 22 55
M  V30 61 1 22 56
M  V30 62 1 23 57
M  V30 63 1 23 58
M  V30 64 1 25 59
M  V30 65 1 25 60
M  V30 66 1 25 61
M  V30 67 1 26 62
M  V30 68 1 26 63
M  V30 69 1 27 64
M  V30 70 1 27 65
M  V30 71 1 28 66
M  V30 72 1 31 67
M  V30 73 1 31 68
M  V30 74 1 31 69
M  V30 75 1 35 70
M  V30 76 1 35 71
M  V30 77 1 36 72
M  V30 78 1 37 73
M  V30 79 1 37 74
M  V30 80 1 38 75
M  V30 81 1 38 76
M  V30 82 1 39 77
M  V30 83 1 39 78
M  V30 84 1 40 79
M  V30 85 1 40 80
M  V30 86 1 41 81
M  V30 87 1 41 82
M  V30 END BOND
M  V30 END CTAB
M  END
>  <Dataset>  (446) 
ChEMBL_Kinases

>  <Ligand_Instance>  (446) 
nan

>  <PDB_ID>  (446) 
nan

>  <Standardized_SMILES>  (446) 
CC[C@@H]1c2nncn2-c2cnc(Nc3ccc(C(=O)NC4CCN(C)CC4)cc3OC)nc2N1CC1CCCCC1

>  <Name>  (446) 
nan

>  <Pocket>  (446) 
nan

>  <ATP_Site>  (446) 
nan

>  <Peripheral>  (446) 
nan

>  <Num_H_Atoms_ProtBoundConf>  (446) 
nan

>  <Num_Resolved_Atoms>  (446) 
nan

>  <Num_Not_Resolved_Atoms>  (446) 
nan

$$$$
CHEMBL4285292
     RDKit          3D

  0  0  0  0  0  0  0  0  0  0999 V3000
M  V30 BEGIN CTAB
M  V30 COUNTS 43 46 0 0 0
M  V30 BEGIN ATOM
M  V30 1 C 2.490715 -5.534148 2.871240 0
M  V30 2 C 1.475500 -4.665977 2.215249 0
M  V30 3 O 0.480366 -4.164356 2.782282 0
M  V30 4 N 1.615335 -4.360435 0.833158 0
M  V30 5 C 0.762637 -3.555124 0.020552 0
M  V30 6 C 1.003281 -2.182464 -0.094417 0
M  V30 7 C 0.196777 -1.352074 -0.877435 0
M  V30 8 C 0.401682 0.054252 -1.027445 0
M  V30 9 N 0.687958 0.666009 -2.195638 0
M  V30 10 C 0.816046 1.990184 -1.974756 0
M  V30 11 C 1.099372 3.055551 -2.804883 0
M  V30 12 C 1.172923 4.341096 -2.305957 0
M  V30 13 C 0.958388 4.543269 -0.962836 0
M  V30 14 N 0.681483 3.496947 -0.155069 0
M  V30 15 C 0.607139 2.230448 -0.636238 0
M  V30 16 C 0.344413 0.989597 -0.045124 0
M  V30 17 C 0.073951 0.856930 1.371049 0
M  V30 18 C -1.186275 0.376878 1.641930 0
M  V30 19 C -1.599036 0.192301 2.966014 0
M  V30 20 C -0.698938 0.508714 3.970659 0
M  V30 21 C -1.117796 0.319346 5.399691 0
M  V30 22 C 0.568432 0.991895 3.678409 0
M  V30 23 N 0.931925 1.157229 2.386030 0
M  V30 24 C -0.865071 -1.972596 -1.539375 0
M  V30 25 C -1.101985 -3.329237 -1.424844 0
M  V30 26 N -0.279442 -4.081109 -0.646936 0
M  V30 27 H 3.443482 -4.978938 3.016894 0
M  V30 28 H 2.677911 -6.478088 2.336365 0
M  V30 29 H 2.116987 -5.781280 3.884733 0
M  V30 30 H 2.415972 -4.726300 0.245242 0
M  V30 31 H 1.846417 -1.734681 0.440742 0
M  V30 32 H 0.809491 0.266734 -3.158675 0
M  V30 33 H 1.272965 2.936654 -3.861163 0
M  V30 34 H 1.387051 5.246555 -2.862667 0
M  V30 35 H 0.972124 5.466661 -0.385791 0
M  V30 36 H -1.943669 0.107898 0.920204 0
M  V30 37 H -2.570448 -0.179677 3.253117 0
M  V30 38 H -1.764237 -0.559862 5.470838 0
M  V30 39 H -0.254038 0.211589 6.054662 0
M  V30 40 H -1.749802 1.191048 5.740424 0
M  V30 41 H 1.268054 1.237283 4.467263 0
M  V30 42 H -1.540029 -1.400024 -2.168060 0
M  V30 43 H -1.933044 -3.778080 -1.950648 0
M  V30 END ATOM
M  V30 BEGIN BOND
M  V30 1 1 1 2
M  V30 2 2 2 3
M  V30 3 1 2 4
M  V30 4 1 4 5
M  V30 5 2 5 6
M  V30 6 1 6 7
M  V30 7 1 7 8
M  V30 8 1 8 9
M  V30 9 1 9 10
M  V30 10 2 10 11
M  V30 11 1 11 12
M  V30 12 2 12 13
M  V30 13 1 13 14
M  V30 14 2 14 15
M  V30 15 1 15 16
M  V30 16 1 16 17
M  V30 17 2 17 18
M  V30 18 1 18 19
M  V30 19 2 19 20
M  V30 20 1 20 21
M  V30 21 1 20 22
M  V30 22 2 22 23
M  V30 23 2 7 24
M  V30 24 1 24 25
M  V30 25 2 25 26
M  V30 26 1 26 5
M  V30 27 2 16 8
M  V30 28 1 23 17
M  V30 29 1 15 10
M  V30 30 1 1 27
M  V30 31 1 1 28
M  V30 32 1 1 29
M  V30 33 1 4 30
M  V30 34 1 6 31
M  V30 35 1 9 32
M  V30 36 1 11 33
M  V30 37 1 12 34
M  V30 38 1 13 35
M  V30 39 1 18 36
M  V30 40 1 19 37
M  V30 41 1 21 38
M  V30 42 1 21 39
M  V30 43 1 21 40
M  V30 44 1 22 41
M  V30 45 1 24 42
M  V30 46 1 25 43
M  V30 END BOND
M  V30 END CTAB
M  END
>  <Dataset>  (447) 
ChEMBL_Kinases

>  <Ligand_Instance>  (447) 
nan

>  <PDB_ID>  (447) 
nan

>  <Standardized_SMILES>  (447) 
CC(=O)Nc1cc(-c2[nH]c3cccnc3c2-c2ccc(C)cn2)ccn1

>  <Name>  (447) 
nan

>  <Pocket>  (447) 
nan

>  <ATP_Site>  (447) 
nan

>  <Peripheral>  (447) 
nan

>  <Num_H_Atoms_ProtBoundConf>  (447) 
nan

>  <Num_Resolved_Atoms>  (447) 
nan

>  <Num_Not_Resolved_Atoms>  (447) 
nan

$$$$
CHEMBL4285259
     RDKit          3D

  0  0  0  0  0  0  0  0  0  0999 V3000
M  V30 BEGIN CTAB
M  V30 COUNTS 52 56 0 0 0
M  V30 BEGIN ATOM
M  V30 1 C 2.294981 -3.430322 3.422737 0
M  V30 2 N 2.995187 -4.112088 2.380315 0
M  V30 3 C 2.231826 -5.186198 1.777134 0
M  V30 4 C 1.111977 -4.680490 0.899530 0
M  V30 5 N 1.552702 -3.384087 0.360020 0
M  V30 6 C 0.702367 -2.268381 0.125965 0
M  V30 7 C 1.120341 -1.047904 -0.361985 0
M  V30 8 C 0.219054 -0.022177 -0.556971 0
M  V30 9 C -1.128450 -0.141298 -0.285029 0
M  V30 10 C -2.043386 0.957690 -0.503621 0
M  V30 11 C -1.935963 2.165657 0.154580 0
M  V30 12 C -0.868760 2.373649 1.110509 0
M  V30 13 C -0.034541 3.422311 0.705897 0
M  V30 14 C 1.063446 3.812040 1.461276 0
M  V30 15 C 1.343881 3.152679 2.641215 0
M  V30 16 F 2.401470 3.478014 3.433580 0
M  V30 17 C 0.511071 2.107157 3.043347 0
M  V30 18 C -0.574912 1.728956 2.286643 0
M  V30 19 C -2.826402 3.216349 -0.064846 0
M  V30 20 N -3.844311 3.052569 -0.961959 0
M  V30 21 C -3.962917 1.871211 -1.616510 0
M  V30 22 N -4.882713 1.508791 -2.528423 0
M  V30 23 C -4.638026 0.243077 -2.930309 0
M  V30 24 C -3.527018 -0.215053 -2.252751 0
M  V30 25 C -3.077320 0.807401 -1.406951 0
M  V30 26 C -1.554132 -1.379786 0.210285 0
M  V30 27 C -0.642176 -2.396850 0.400529 0
M  V30 28 C 2.976963 -3.360766 0.084378 0
M  V30 29 C 3.661292 -3.262765 1.433487 0
M  V30 30 H 2.633562 -2.360602 3.411459 0
M  V30 31 H 1.194034 -3.381175 3.269746 0
M  V30 32 H 2.583429 -3.834172 4.414582 0
M  V30 33 H 2.909684 -5.897342 1.254430 0
M  V30 34 H 1.776649 -5.762986 2.606563 0
M  V30 35 H 0.205149 -4.620523 1.494764 0
M  V30 36 H 1.005520 -5.423695 0.082066 0
M  V30 37 H 2.148744 -0.914454 -0.583502 0
M  V30 38 H 0.599468 0.917599 -0.942702 0
M  V30 39 H -0.142548 4.029161 -0.207107 0
M  V30 40 H 1.732365 4.606838 1.196889 0
M  V30 41 H 0.679474 1.547662 3.964177 0
M  V30 42 H -1.276759 0.940465 2.504819 0
M  V30 43 H -2.736470 4.159576 0.454590 0
M  V30 44 H -5.700350 2.032598 -2.938690 0
M  V30 45 H -5.151443 -0.396814 -3.646577 0
M  V30 46 H -2.964401 -1.149944 -2.242515 0
M  V30 47 H -2.616085 -1.426755 0.408779 0
M  V30 48 H -1.127119 -3.269791 0.780718 0
M  V30 49 H 3.294059 -4.355527 -0.347013 0
M  V30 50 H 3.302237 -2.581109 -0.601904 0
M  V30 51 H 3.648756 -2.198267 1.791229 0
M  V30 52 H 4.720859 -3.566671 1.396817 0
M  V30 END ATOM
M  V30 BEGIN BOND
M  V30 1 1 1 2
M  V30 2 1 2 3
M  V30 3 1 3 4
M  V30 4 1 4 5
M  V30 5 1 5 6
M  V30 6 2 6 7
M  V30 7 1 7 8
M  V30 8 2 8 9
M  V30 9 1 9 10
M  V30 10 1 10 11
M  V30 11 1 11 12
M  V30 12 2 12 13
M  V30 13 1 13 14
M  V30 14 2 14 15
M  V30 15 1 15 16
M  V30 16 1 15 17
M  V30 17 2 17 18
M  V30 18 2 11 19
M  V30 19 1 19 20
M  V30 20 2 20 21
M  V30 21 1 21 22
M  V30 22 1 22 23
M  V30 23 2 23 24
M  V30 24 1 24 25
M  V30 25 1 9 26
M  V30 26 2 26 27
M  V30 27 1 5 28
M  V30 28 1 28 29
M  V30 29 1 29 2
M  V30 30 1 27 6
M  V30 31 2 25 10
M  V30 32 1 18 12
M  V30 33 1 25 21
M  V30 34 1 1 30
M  V30 35 1 1 31
M  V30 36 1 1 32
M  V30 37 1 3 33
M  V30 38 1 3 34
M  V30 39 1 4 35
M  V30 40 1 4 36
M  V30 41 1 7 37
M  V30 42 1 8 38
M  V30 43 1 13 39
M  V30 44 1 14 40
M  V30 45 1 17 41
M  V30 46 1 18 42
M  V30 47 1 19 43
M  V30 48 1 22 44
M  V30 49 1 23 45
M  V30 50 1 24 46
M  V30 51 1 26 47
M  V30 52 1 27 48
M  V30 53 1 28 49
M  V30 54 1 28 50
M  V30 55 1 29 51
M  V30 56 1 29 52
M  V30 END BOND
M  V30 END CTAB
M  END
>  <Dataset>  (448) 
ChEMBL_Kinases

>  <Ligand_Instance>  (448) 
nan

>  <PDB_ID>  (448) 
nan

>  <Standardized_SMILES>  (448) 
CN1CCN(c2ccc(-c3c(-c4ccc(F)cc4)cnc4[nH]ccc34)cc2)CC1

>  <Name>  (448) 
nan

>  <Pocket>  (448) 
nan

>  <ATP_Site>  (448) 
nan

>  <Peripheral>  (448) 
nan

>  <Num_H_Atoms_ProtBoundConf>  (448) 
nan

>  <Num_Resolved_Atoms>  (448) 
nan

>  <Num_Not_Resolved_Atoms>  (448) 
nan

$$$$
CHEMBL4285200
     RDKit          3D

  0  0  0  0  0  0  0  0  0  0999 V3000
M  V30 BEGIN CTAB
M  V30 COUNTS 41 44 0 0 0
M  V30 BEGIN ATOM
M  V30 1 O 3.579650 -5.287921 6.896740 0
M  V30 2 C 3.224981 -4.520604 5.956927 0
M  V30 3 N 3.335550 -4.909975 4.679518 0
M  V30 4 C 2.885740 -3.894935 3.923506 0
M  V30 5 C 2.772831 -3.754597 2.541820 0
M  V30 6 C 2.259542 -2.555276 2.106243 0
M  V30 7 C 1.845716 -1.483145 2.852769 0
M  V30 8 C 1.308256 -0.237090 2.313556 0
M  V30 9 N 1.271578 -0.276533 1.040015 0
M  V30 10 N 0.805891 0.766186 0.213381 0
M  V30 11 C 0.368613 1.875667 0.734193 0
M  V30 12 N -0.067210 2.833695 -0.217237 0
M  V30 13 C -0.557375 2.375986 -1.524272 0
M  V30 14 C -1.881394 1.632081 -1.324704 0
M  V30 15 C -2.340699 1.187021 -2.653820 0
M  V30 16 C -1.930476 -0.068111 -3.104917 0
M  V30 17 C -2.278830 -0.617012 -4.322628 0
M  V30 18 C -3.098305 0.153336 -5.143853 0
M  V30 19 N -3.508633 1.381586 -4.719610 0
M  V30 20 C -3.149099 1.886306 -3.523735 0
M  V30 21 S 0.281161 2.261132 2.487167 0
M  V30 22 C 0.929979 0.784293 3.342173 0
M  V30 23 C 1.993168 -1.707825 4.228440 0
M  V30 24 C 2.496395 -2.873684 4.757901 0
M  V30 25 N 2.713678 -3.277639 6.031422 0
M  V30 26 H 3.702792 -5.831740 4.313509 0
M  V30 27 H 3.071243 -4.539691 1.874865 0
M  V30 28 H 2.185266 -2.478647 1.028269 0
M  V30 29 H -0.039419 3.870952 0.014039 0
M  V30 30 H -0.713173 3.261882 -2.163373 0
M  V30 31 H 0.213995 1.734406 -1.977617 0
M  V30 32 H -2.580496 2.333880 -0.835727 0
M  V30 33 H -1.688925 0.749341 -0.704754 0
M  V30 34 H -1.283919 -0.669012 -2.450201 0
M  V30 35 H -1.917839 -1.601616 -4.599970 0
M  V30 36 H -3.399608 -0.240073 -6.116909 0
M  V30 37 H -3.475973 2.862398 -3.187952 0
M  V30 38 H 0.161536 0.407708 4.025823 0
M  V30 39 H 1.831120 1.041519 3.932868 0
M  V30 40 H 1.694835 -0.919300 4.925307 0
M  V30 41 H 2.530694 -2.751000 6.905910 0
M  V30 END ATOM
M  V30 BEGIN BOND
M  V30 1 2 1 2
M  V30 2 1 2 3
M  V30 3 1 3 4
M  V30 4 2 4 5
M  V30 5 1 5 6
M  V30 6 2 6 7
M  V30 7 1 7 8
M  V30 8 2 8 9
M  V30 9 1 9 10
M  V30 10 2 10 11
M  V30 11 1 11 12
M  V30 12 1 12 13
M  V30 13 1 13 14
M  V30 14 1 14 15
M  V30 15 2 15 16
M  V30 16 1 16 17
M  V30 17 2 17 18
M  V30 18 1 18 19
M  V30 19 2 19 20
M  V30 20 1 11 21
M  V30 21 1 21 22
M  V30 22 1 7 23
M  V30 23 2 23 24
M  V30 24 1 24 25
M  V30 25 1 25 2
M  V30 26 1 24 4
M  V30 27 1 22 8
M  V30 28 1 20 15
M  V30 29 1 3 26
M  V30 30 1 5 27
M  V30 31 1 6 28
M  V30 32 1 12 29
M  V30 33 1 13 30
M  V30 34 1 13 31
M  V30 35 1 14 32
M  V30 36 1 14 33
M  V30 37 1 16 34
M  V30 38 1 17 35
M  V30 39 1 18 36
M  V30 40 1 20 37
M  V30 41 1 22 38
M  V30 42 1 22 39
M  V30 43 1 23 40
M  V30 44 1 25 41
M  V30 END BOND
M  V30 END CTAB
M  END
>  <Dataset>  (449) 
ChEMBL_Kinases

>  <Ligand_Instance>  (449) 
nan

>  <PDB_ID>  (449) 
nan

>  <Standardized_SMILES>  (449) 
O=c1[nH]c2ccc(C3=NN=C(NCCc4cccnc4)SC3)cc2[nH]1

>  <Name>  (449) 
nan

>  <Pocket>  (449) 
nan

>  <ATP_Site>  (449) 
nan

>  <Peripheral>  (449) 
nan

>  <Num_H_Atoms_ProtBoundConf>  (449) 
nan

>  <Num_Resolved_Atoms>  (449) 
nan

>  <Num_Not_Resolved_Atoms>  (449) 
nan

$$$$
CHEMBL4285143
     RDKit          3D

  0  0  0  0  0  0  0  0  0  0999 V3000
M  V30 BEGIN CTAB
M  V30 COUNTS 54 58 0 0 0
M  V30 BEGIN ATOM
M  V30 1 O -1.293568 -1.619450 2.541958 0
M  V30 2 C -0.468349 -1.786230 1.578330 0
M  V30 3 N 0.914680 -1.554766 1.741116 0
M  V30 4 C 2.126135 -1.631465 0.919871 0
M  V30 5 C 3.099069 -0.520552 1.251587 0
M  V30 6 N 2.312691 0.672247 1.646305 0
M  V30 7 C 2.221375 1.709349 0.683523 0
M  V30 8 N 2.113198 1.247652 -0.601696 0
M  V30 9 C 1.958917 2.095849 -1.627750 0
M  V30 10 N 1.905252 3.422448 -1.437303 0
M  V30 11 C 2.003491 3.958664 -0.221724 0
M  V30 12 N 2.003803 5.190745 0.298875 0
M  V30 13 N 2.158221 5.081672 1.613753 0
M  V30 14 C 2.258346 3.790353 1.955812 0
M  V30 15 Cl 2.496055 3.297724 3.603854 0
M  V30 16 C 2.160324 3.056228 0.799156 0
M  V30 17 C 1.813221 0.352458 2.977038 0
M  V30 18 C 1.342323 -1.113841 3.069918 0
M  V30 19 C -1.150004 -2.234955 0.336205 0
M  V30 20 C -2.607279 -2.325230 0.547284 0
M  V30 21 C -3.317968 -1.307431 1.146993 0
M  V30 22 C -4.678575 -1.347540 1.372346 0
M  V30 23 C -5.405957 -2.454686 0.988544 0
M  V30 24 Cl -7.132867 -2.564585 1.247245 0
M  V30 25 C -4.752735 -3.507120 0.382513 0
M  V30 26 Cl -5.657951 -4.916386 -0.110037 0
M  V30 27 C -3.392002 -3.397322 0.189686 0
M  V30 28 C -0.518800 -3.503318 -0.111317 0
M  V30 29 C -0.321001 -3.646249 -1.583848 0
M  V30 30 N 0.198567 -2.446833 -2.208237 0
M  V30 31 C -0.900798 -1.507035 -2.082795 0
M  V30 32 C -0.962900 -1.093701 -0.652903 0
M  V30 33 H 2.651329 -2.559235 1.301925 0
M  V30 34 H 1.944131 -1.743019 -0.142186 0
M  V30 35 H 3.622006 -0.300037 0.274494 0
M  V30 36 H 3.828047 -0.776499 2.035720 0
M  V30 37 H 1.874106 1.709077 -2.644360 0
M  V30 38 H 1.896453 6.063826 -0.280149 0
M  V30 39 H 2.617363 0.389488 3.732387 0
M  V30 40 H 0.899954 0.930254 3.221830 0
M  V30 41 H 0.522525 -1.164863 3.818479 0
M  V30 42 H 2.164066 -1.766483 3.417763 0
M  V30 43 H -2.883989 -0.379289 1.489002 0
M  V30 44 H -5.255437 -0.574806 1.834698 0
M  V30 45 H -2.942739 -4.254165 -0.291733 0
M  V30 46 H -1.005589 -4.439080 0.226498 0
M  V30 47 H 0.515911 -3.595795 0.336549 0
M  V30 48 H -1.315259 -3.826029 -2.048268 0
M  V30 49 H 0.298147 -4.527957 -1.777648 0
M  V30 50 H 0.288916 -2.655969 -3.220653 0
M  V30 51 H -1.853779 -1.968689 -2.443174 0
M  V30 52 H -0.639494 -0.618089 -2.668348 0
M  V30 53 H -1.800220 -0.365209 -0.594764 0
M  V30 54 H -0.060404 -0.497577 -0.423667 0
M  V30 END ATOM
M  V30 BEGIN BOND
M  V30 1 2 1 2
M  V30 2 1 2 3
M  V30 3 1 3 4
M  V30 4 1 4 5
M  V30 5 1 5 6
M  V30 6 1 6 7
M  V30 7 2 7 8
M  V30 8 1 8 9
M  V30 9 2 9 10
M  V30 10 1 10 11
M  V30 11 1 11 12
M  V30 12 1 12 13
M  V30 13 2 13 14
M  V30 14 1 14 15
M  V30 15 1 14 16
M  V30 16 1 6 17
M  V30 17 1 17 18
M  V30 18 1 2 19
M  V30 19 1 19 20
M  V30 20 2 20 21
M  V30 21 1 21 22
M  V30 22 2 22 23
M  V30 23 1 23 24
M  V30 24 1 23 25
M  V30 25 1 25 26
M  V30 26 2 25 27
M  V30 27 1 19 28
M  V30 28 1 28 29
M  V30 29 1 29 30
M  V30 30 1 30 31
M  V30 31 1 31 32
M  V30 32 1 18 3
M  V30 33 1 32 19
M  V30 34 1 16 7
M  V30 35 1 27 20
M  V30 36 2 16 11
M  V30 37 1 4 33
M  V30 38 1 4 34
M  V30 39 1 5 35
M  V30 40 1 5 36
M  V30 41 1 9 37
M  V30 42 1 12 38
M  V30 43 1 17 39
M  V30 44 1 17 40
M  V30 45 1 18 41
M  V30 46 1 18 42
M  V30 47 1 21 43
M  V30 48 1 22 44
M  V30 49 1 27 45
M  V30 50 1 28 46
M  V30 51 1 28 47
M  V30 52 1 29 48
M  V30 53 1 29 49
M  V30 54 1 30 50
M  V30 55 1 31 51
M  V30 56 1 31 52
M  V30 57 1 32 53
M  V30 58 1 32 54
M  V30 END BOND
M  V30 END CTAB
M  END
>  <Dataset>  (450) 
ChEMBL_Kinases

>  <Ligand_Instance>  (450) 
nan

>  <PDB_ID>  (450) 
nan

>  <Standardized_SMILES>  (450) 
O=C(N1CCN(c2ncnc3[nH]nc(Cl)c23)CC1)C1(c2ccc(Cl)c(Cl)c2)CCNCC1

>  <Name>  (450) 
nan

>  <Pocket>  (450) 
nan

>  <ATP_Site>  (450) 
nan

>  <Peripheral>  (450) 
nan

>  <Num_H_Atoms_ProtBoundConf>  (450) 
nan

>  <Num_Resolved_Atoms>  (450) 
nan

>  <Num_Not_Resolved_Atoms>  (450) 
nan

$$$$
CHEMBL4285123
     RDKit          3D

  0  0  0  0  0  0  0  0  0  0999 V3000
M  V30 BEGIN CTAB
M  V30 COUNTS 24 25 0 0 0
M  V30 BEGIN ATOM
M  V30 1 C 1.062004 -0.019004 3.501364 0
M  V30 2 C 0.936841 -1.164694 2.556584 0
M  V30 3 N 1.062766 -2.455668 2.916428 0
M  V30 4 N 0.888418 -3.188324 1.809117 0
M  V30 5 C 0.655768 -2.371491 0.765224 0
M  V30 6 N 0.416569 -2.718040 -0.594721 0
M  V30 7 C 0.678774 -1.063091 1.204228 0
M  V30 8 C 0.472299 0.128179 0.390569 0
M  V30 9 C -0.830685 0.587705 0.266605 0
M  V30 10 C -1.133106 1.714611 -0.486457 0
M  V30 11 C -0.082623 2.374272 -1.117815 0
M  V30 12 C 1.227210 1.938367 -1.011680 0
M  V30 13 Br 2.666658 2.846190 -1.879547 0
M  V30 14 C 1.488134 0.810611 -0.251579 0
M  V30 15 H 0.226737 -0.075506 4.255721 0
M  V30 16 H 0.898073 0.939954 2.967700 0
M  V30 17 H 2.027464 -0.022453 4.043250 0
M  V30 18 H 1.260172 -2.871391 3.869266 0
M  V30 19 H 0.697710 -3.509703 -1.179238 0
M  V30 20 H -0.158848 -2.096657 -1.217069 0
M  V30 21 H -1.670393 0.080380 0.757122 0
M  V30 22 H -2.146823 2.059727 -0.574112 0
M  V30 23 H -0.262719 3.264188 -1.721637 0
M  V30 24 H 2.471737 0.403585 -0.115311 0
M  V30 END ATOM
M  V30 BEGIN BOND
M  V30 1 1 1 2
M  V30 2 1 2 3
M  V30 3 1 3 4
M  V30 4 2 4 5
M  V30 5 1 5 6
M  V30 6 1 5 7
M  V30 7 1 7 8
M  V30 8 2 8 9
M  V30 9 1 9 10
M  V30 10 2 10 11
M  V30 11 1 11 12
M  V30 12 1 12 13
M  V30 13 2 12 14
M  V30 14 2 7 2
M  V30 15 1 14 8
M  V30 16 1 1 15
M  V30 17 1 1 16
M  V30 18 1 1 17
M  V30 19 1 3 18
M  V30 20 1 6 19
M  V30 21 1 6 20
M  V30 22 1 9 21
M  V30 23 1 10 22
M  V30 24 1 11 23
M  V30 25 1 14 24
M  V30 END BOND
M  V30 END CTAB
M  END
>  <Dataset>  (451) 
ChEMBL_Kinases

>  <Ligand_Instance>  (451) 
nan

>  <PDB_ID>  (451) 
nan

>  <Standardized_SMILES>  (451) 
Cc1[nH]nc(N)c1-c1cccc(Br)c1

>  <Name>  (451) 
nan

>  <Pocket>  (451) 
nan

>  <ATP_Site>  (451) 
nan

>  <Peripheral>  (451) 
nan

>  <Num_H_Atoms_ProtBoundConf>  (451) 
nan

>  <Num_Resolved_Atoms>  (451) 
nan

>  <Num_Not_Resolved_Atoms>  (451) 
nan

$$$$
CHEMBL4285011
     RDKit          3D

  0  0  0  0  0  0  0  0  0  0999 V3000
M  V30 BEGIN CTAB
M  V30 COUNTS 40 43 0 0 0
M  V30 BEGIN ATOM
M  V30 1 C -4.263867 2.413485 -1.368906 0
M  V30 2 C -3.073576 1.845803 -2.112731 0 CFG=2
M  V30 3 O -3.424605 1.558191 -3.438713 0
M  V30 4 C -2.703136 0.623250 -1.390668 0
M  V30 5 C -2.378190 -0.382100 -0.802964 0
M  V30 6 C -2.013215 -1.576399 -0.091598 0
M  V30 7 C -2.998227 -2.322808 0.497993 0
M  V30 8 C -2.705914 -3.483438 1.196758 0
M  V30 9 C -1.361915 -3.847305 1.266131 0
M  V30 10 N -0.796402 -4.906973 1.868415 0
M  V30 11 C 0.532349 -4.882539 1.694143 0
M  V30 12 C 0.808987 -3.743616 0.941093 0
M  V30 13 C 2.084528 -3.204048 0.447534 0
M  V30 14 N 2.160211 -2.770665 -0.829199 0
M  V30 15 C 3.284556 -2.258830 -1.376840 0
M  V30 16 N 3.263231 -1.826997 -2.738759 0
M  V30 17 N 4.380555 -2.182553 -0.597078 0
M  V30 18 C 4.371797 -2.597878 0.685619 0
M  V30 19 C 3.217709 -3.124535 1.251734 0
M  V30 20 Cl 3.126415 -3.687560 2.916915 0
M  V30 21 N -0.381880 -3.125537 0.692713 0
M  V30 22 C -0.709270 -2.011228 0.027424 0
M  V30 23 C -1.958783 2.830026 -2.183361 0
M  V30 24 N -1.023444 3.421708 -1.938661 0
M  V30 25 C -0.423149 4.406778 -2.567431 0
M  V30 26 C 0.304971 4.066145 -1.336818 0
M  V30 27 S -0.726678 2.744274 -0.737901 0
M  V30 28 H -5.076189 1.639562 -1.466762 0
M  V30 29 H -4.026750 2.481104 -0.296543 0
M  V30 30 H -4.650594 3.343339 -1.796867 0
M  V30 31 H -3.299216 0.588003 -3.565856 0
M  V30 32 H -4.047750 -2.080295 0.470134 0
M  V30 33 H -3.437868 -4.115928 1.684084 0
M  V30 34 H 1.311882 -5.554988 2.026060 0
M  V30 35 H 3.438205 -2.351227 -3.615658 0
M  V30 36 H 3.060938 -0.875326 -3.104515 0
M  V30 37 H 5.256657 -2.534894 1.310814 0
M  V30 38 H 0.076135 -1.422313 -0.438745 0
M  V30 39 H 0.049131 5.215479 -3.105863 0
M  V30 40 H 1.320298 4.512730 -0.817145 0
M  V30 END ATOM
M  V30 BEGIN BOND
M  V30 1 1 1 2
M  V30 2 1 2 3
M  V30 3 1 2 4 CFG=1
M  V30 4 3 4 5
M  V30 5 1 5 6
M  V30 6 1 6 7
M  V30 7 2 7 8
M  V30 8 1 8 9
M  V30 9 2 9 10
M  V30 10 1 10 11
M  V30 11 2 11 12
M  V30 12 1 12 13
M  V30 13 2 13 14
M  V30 14 1 14 15
M  V30 15 1 15 16
M  V30 16 2 15 17
M  V30 17 1 17 18
M  V30 18 2 18 19
M  V30 19 1 19 20
M  V30 20 1 12 21
M  V30 21 1 21 22
M  V30 22 1 2 23
M  V30 23 2 23 24
M  V30 24 1 24 25
M  V30 25 2 25 26
M  V30 26 1 26 27
M  V30 27 2 22 6
M  V30 28 1 27 23
M  V30 29 1 21 9
M  V30 30 1 19 13
M  V30 31 1 1 28
M  V30 32 1 1 29
M  V30 33 1 1 30
M  V30 34 1 3 31
M  V30 35 1 7 32
M  V30 36 1 8 33
M  V30 37 1 11 34
M  V30 38 1 16 35
M  V30 39 1 16 36
M  V30 40 1 18 37
M  V30 41 1 22 38
M  V30 42 1 25 39
M  V30 43 1 26 40
M  V30 END BOND
M  V30 END CTAB
M  END
>  <Dataset>  (452) 
ChEMBL_Kinases

>  <Ligand_Instance>  (452) 
nan

>  <PDB_ID>  (452) 
nan

>  <Standardized_SMILES>  (452) 
C[C@](O)(C#Cc1ccc2ncc(-c3nc(N)ncc3Cl)n2c1)c1nccs1

>  <Name>  (452) 
nan

>  <Pocket>  (452) 
nan

>  <ATP_Site>  (452) 
nan

>  <Peripheral>  (452) 
nan

>  <Num_H_Atoms_ProtBoundConf>  (452) 
nan

>  <Num_Resolved_Atoms>  (452) 
nan

>  <Num_Not_Resolved_Atoms>  (452) 
nan

$$$$
CHEMBL4284998
     RDKit          3D

  0  0  0  0  0  0  0  0  0  0999 V3000
M  V30 BEGIN CTAB
M  V30 COUNTS 53 59 0 0 0
M  V30 BEGIN ATOM
M  V30 1 C 0.244741 -4.513112 5.761922 0
M  V30 2 C 1.132773 -3.445646 5.623228 0
M  V30 3 C 1.008729 -2.659874 4.487710 0
M  V30 4 C 1.888627 -1.513157 4.238835 0
M  V30 5 N 2.881499 -1.085710 5.025849 0
M  V30 6 C 3.456549 -0.005998 4.456117 0
M  V30 7 C 2.767806 0.208635 3.280243 0
M  V30 8 C 3.026116 1.271012 2.312834 0
M  V30 9 C 4.048223 2.207553 2.507053 0
M  V30 10 C 4.278125 3.217796 1.566957 0
M  V30 11 C 3.471203 3.263576 0.447673 0
M  V30 12 C 3.674564 4.300191 -0.560141 0
M  V30 13 C 2.939438 4.454654 -1.717656 0
M  V30 14 N 3.446938 5.535503 -2.379572 0
M  V30 15 C 4.458205 6.002431 -1.623071 0
M  V30 16 O 4.581443 5.247782 -0.532400 0
M  V30 17 C 2.471079 2.326481 0.283133 0
M  V30 18 N 2.264219 1.357474 1.202777 0
M  V30 19 O 1.841898 -0.716603 3.195357 0
M  V30 20 N 0.052774 -2.967288 3.597308 0
M  V30 21 C -0.815761 -3.963376 3.673678 0
M  V30 22 C -1.804261 -4.172325 2.617093 0
M  V30 23 N -2.743865 -5.135896 2.556282 0
M  V30 24 C -3.476089 -4.997331 1.411526 0
M  V30 25 C -2.924577 -3.902650 0.794459 0
M  V30 26 C -3.309971 -3.290054 -0.474084 0
M  V30 27 C -2.619718 -2.182673 -0.920845 0
M  V30 28 C -2.935512 -1.554210 -2.117339 0
M  V30 29 C -3.974782 -2.046955 -2.894290 0
M  V30 30 C -4.375623 -1.447293 -4.168446 0
M  V30 31 C -3.736253 -0.330860 -4.692444 0
M  V30 32 N -4.297322 0.013916 -5.865942 0
M  V30 33 C -5.283060 -0.907016 -6.044949 0
M  V30 34 O -5.311106 -1.756747 -5.034491 0
M  V30 35 C -4.638120 -3.154112 -2.411909 0
M  V30 36 N -4.312498 -3.758821 -1.231634 0
M  V30 37 O -1.939364 -3.438489 1.532116 0
M  V30 38 C -0.726566 -4.770395 4.789131 0
M  V30 39 H 0.316986 -5.144641 6.638209 0
M  V30 40 H 1.894514 -3.226053 6.364025 0
M  V30 41 H 4.287155 0.582827 4.829304 0
M  V30 42 H 4.636299 2.111170 3.400338 0
M  V30 43 H 5.064059 3.937487 1.716621 0
M  V30 44 H 2.111664 3.850250 -2.063546 0
M  V30 45 H 5.011548 6.874108 -1.967309 0
M  V30 46 H 1.816394 2.344210 -0.600990 0
M  V30 47 H -4.297415 -5.590863 1.051480 0
M  V30 48 H -1.785506 -1.726905 -0.371484 0
M  V30 49 H -2.387687 -0.683331 -2.462016 0
M  V30 50 H -2.892882 0.205217 -4.228765 0
M  V30 51 H -6.022260 -1.079073 -6.818655 0
M  V30 52 H -5.465307 -3.559337 -3.014138 0
M  V30 53 H -1.411999 -5.599462 4.902464 0
M  V30 END ATOM
M  V30 BEGIN BOND
M  V30 1 2 1 2
M  V30 2 1 2 3
M  V30 3 1 3 4
M  V30 4 2 4 5
M  V30 5 1 5 6
M  V30 6 2 6 7
M  V30 7 1 7 8
M  V30 8 2 8 9
M  V30 9 1 9 10
M  V30 10 2 10 11
M  V30 11 1 11 12
M  V30 12 2 12 13
M  V30 13 1 13 14
M  V30 14 2 14 15
M  V30 15 1 15 16
M  V30 16 1 11 17
M  V30 17 2 17 18
M  V30 18 1 7 19
M  V30 19 2 3 20
M  V30 20 1 20 21
M  V30 21 1 21 22
M  V30 22 2 22 23
M  V30 23 1 23 24
M  V30 24 2 24 25
M  V30 25 1 25 26
M  V30 26 2 26 27
M  V30 27 1 27 28
M  V30 28 2 28 29
M  V30 29 1 29 30
M  V30 30 2 30 31
M  V30 31 1 31 32
M  V30 32 2 32 33
M  V30 33 1 33 34
M  V30 34 1 29 35
M  V30 35 2 35 36
M  V30 36 1 25 37
M  V30 37 2 21 38
M  V30 38 1 38 1
M  V30 39 1 19 4
M  V30 40 1 37 22
M  V30 41 1 18 8
M  V30 42 1 36 26
M  V30 43 1 16 12
M  V30 44 1 34 30
M  V30 45 1 1 39
M  V30 46 1 2 40
M  V30 47 1 6 41
M  V30 48 1 9 42
M  V30 49 1 10 43
M  V30 50 1 13 44
M  V30 51 1 15 45
M  V30 52 1 17 46
M  V30 53 1 24 47
M  V30 54 1 27 48
M  V30 55 1 28 49
M  V30 56 1 31 50
M  V30 57 1 33 51
M  V30 58 1 35 52
M  V30 59 1 38 53
M  V30 END BOND
M  V30 END CTAB
M  END
>  <Dataset>  (453) 
ChEMBL_Kinases

>  <Ligand_Instance>  (453) 
nan

>  <PDB_ID>  (453) 
nan

>  <Standardized_SMILES>  (453) 
c1cc(-c2ncc(-c3ccc(-c4cnco4)cn3)o2)nc(-c2ncc(-c3ccc(-c4cnco4)cn3)o2)c1

>  <Name>  (453) 
nan

>  <Pocket>  (453) 
nan

>  <ATP_Site>  (453) 
nan

>  <Peripheral>  (453) 
nan

>  <Num_H_Atoms_ProtBoundConf>  (453) 
nan

>  <Num_Resolved_Atoms>  (453) 
nan

>  <Num_Not_Resolved_Atoms>  (453) 
nan

$$$$
CHEMBL4284890
     RDKit          3D

  0  0  0  0  0  0  0  0  0  0999 V3000
M  V30 BEGIN CTAB
M  V30 COUNTS 62 69 0 0 0
M  V30 BEGIN ATOM
M  V30 1 C 1.148028 -0.936474 3.885124 0
M  V30 2 C 1.509080 -0.320124 5.073228 0
M  V30 3 C 1.166700 0.975025 5.402889 0
M  V30 4 C 1.594356 1.528985 6.678265 0
M  V30 5 C 1.384289 2.757940 7.228158 0
M  V30 6 N 2.002304 2.746276 8.434732 0
M  V30 7 C 2.563487 1.542056 8.595390 0
M  V30 8 O 2.308969 0.836568 7.541848 0
M  V30 9 N 0.440536 1.650614 4.497568 0
M  V30 10 C 0.048699 1.131450 3.324148 0
M  V30 11 C -0.756147 1.916446 2.387889 0
M  V30 12 C -1.188597 3.210937 2.566250 0
M  V30 13 N -1.891037 3.523870 1.468873 0
M  V30 14 C -1.899456 2.475938 0.639821 0
M  V30 15 C -2.587542 2.477230 -0.664026 0
M  V30 16 C -3.330825 3.598230 -1.056103 0
M  V30 17 C -4.014527 3.615079 -2.263715 0
M  V30 18 C -3.912155 2.471825 -3.036378 0
M  V30 19 C -3.190307 1.358019 -2.679075 0
M  V30 20 C -3.161593 0.160879 -3.512269 0
M  V30 21 C -3.919745 0.039122 -4.632303 0
M  V30 22 C -3.984882 -1.096630 -5.439500 0
M  V30 23 C -3.210747 -2.169831 -5.053476 0
M  V30 24 C -2.439557 -2.068941 -3.934164 0
M  V30 25 C -1.631685 -3.215356 -3.538744 0
M  V30 26 N -1.682158 -4.453471 -4.055174 0
M  V30 27 C -0.752078 -5.179591 -3.372032 0
M  V30 28 C -0.152418 -4.345912 -2.445448 0
M  V30 29 C 0.919391 -4.741800 -1.504194 0
M  V30 30 C 1.347971 -6.045633 -1.377221 0
M  V30 31 C 2.384458 -6.229053 -0.489863 0
M  V30 32 C 2.990303 -5.231991 0.243839 0
M  V30 33 C 2.509755 -3.932353 0.068348 0
M  V30 34 C 3.117390 -2.825535 0.796726 0
M  V30 35 C 4.136806 -2.852423 1.697351 0
M  V30 36 N 4.369763 -1.611271 2.115212 0
M  V30 37 C 3.504609 -0.810332 1.482948 0
M  V30 38 O 2.759532 -1.547238 0.696374 0
M  V30 39 N 1.497427 -3.733962 -0.792751 0
M  V30 40 O -0.717656 -3.173082 -2.583954 0
M  V30 41 N -2.437849 -0.929848 -3.210335 0
M  V30 42 N -2.552402 1.406178 -1.499921 0
M  V30 43 O -1.200332 1.512688 1.224591 0
M  V30 44 C 0.395894 -0.164745 3.002275 0
M  V30 45 H 1.424668 -1.955946 3.638432 0
M  V30 46 H 2.101673 -0.980198 5.724688 0
M  V30 47 H 0.816492 3.562126 6.746440 0
M  V30 48 H 3.136129 1.207875 9.459360 0
M  V30 49 H -1.000620 3.841119 3.413676 0
M  V30 50 H -3.391742 4.482966 -0.426531 0
M  V30 51 H -4.576443 4.484011 -2.544990 0
M  V30 52 H -4.460246 2.536443 -3.964606 0
M  V30 53 H -4.550879 0.825349 -5.006709 0
M  V30 54 H -4.596225 -1.179860 -6.331640 0
M  V30 55 H -3.194761 -3.103444 -5.621215 0
M  V30 56 H -0.460308 -6.231393 -3.464326 0
M  V30 57 H 0.875633 -6.820458 -1.949481 0
M  V30 58 H 2.763672 -7.254720 -0.352075 0
M  V30 59 H 3.816913 -5.464751 0.935412 0
M  V30 60 H 4.654454 -3.771444 1.998984 0
M  V30 61 H 3.289241 0.245948 1.471308 0
M  V30 62 H 0.065114 -0.565619 2.045780 0
M  V30 END ATOM
M  V30 BEGIN BOND
M  V30 1 2 1 2
M  V30 2 1 2 3
M  V30 3 1 3 4
M  V30 4 2 4 5
M  V30 5 1 5 6
M  V30 6 2 6 7
M  V30 7 1 7 8
M  V30 8 2 3 9
M  V30 9 1 9 10
M  V30 10 1 10 11
M  V30 11 2 11 12
M  V30 12 1 12 13
M  V30 13 2 13 14
M  V30 14 1 14 15
M  V30 15 2 15 16
M  V30 16 1 16 17
M  V30 17 2 17 18
M  V30 18 1 18 19
M  V30 19 1 19 20
M  V30 20 2 20 21
M  V30 21 1 21 22
M  V30 22 2 22 23
M  V30 23 1 23 24
M  V30 24 1 24 25
M  V30 25 2 25 26
M  V30 26 1 26 27
M  V30 27 2 27 28
M  V30 28 1 28 29
M  V30 29 2 29 30
M  V30 30 1 30 31
M  V30 31 2 31 32
M  V30 32 1 32 33
M  V30 33 1 33 34
M  V30 34 2 34 35
M  V30 35 1 35 36
M  V30 36 2 36 37
M  V30 37 1 37 38
M  V30 38 2 33 39
M  V30 39 1 28 40
M  V30 40 2 24 41
M  V30 41 2 19 42
M  V30 42 1 14 43
M  V30 43 2 10 44
M  V30 44 1 44 1
M  V30 45 1 8 4
M  V30 46 1 43 11
M  V30 47 1 42 15
M  V30 48 1 41 20
M  V30 49 1 40 25
M  V30 50 1 39 29
M  V30 51 1 38 34
M  V30 52 1 1 45
M  V30 53 1 2 46
M  V30 54 1 5 47
M  V30 55 1 7 48
M  V30 56 1 12 49
M  V30 57 1 16 50
M  V30 58 1 17 51
M  V30 59 1 18 52
M  V30 60 1 21 53
M  V30 61 1 22 54
M  V30 62 1 23 55
M  V30 63 1 27 56
M  V30 64 1 30 57
M  V30 65 1 31 58
M  V30 66 1 32 59
M  V30 67 1 35 60
M  V30 68 1 37 61
M  V30 69 1 44 62
M  V30 END BOND
M  V30 END CTAB
M  END
>  <Dataset>  (454) 
ChEMBL_Kinases

>  <Ligand_Instance>  (454) 
nan

>  <PDB_ID>  (454) 
nan

>  <Standardized_SMILES>  (454) 
c1cc(-c2cnco2)nc(-c2cnc(-c3cccc(-c4cccc(-c5ncc(-c6cccc(-c7cnco7)n6)o5)n4)n3)o2)c1

>  <Name>  (454) 
nan

>  <Pocket>  (454) 
nan

>  <ATP_Site>  (454) 
nan

>  <Peripheral>  (454) 
nan

>  <Num_H_Atoms_ProtBoundConf>  (454) 
nan

>  <Num_Resolved_Atoms>  (454) 
nan

>  <Num_Not_Resolved_Atoms>  (454) 
nan

$$$$
CHEMBL4284888
     RDKit          3D

  0  0  0  0  0  0  0  0  0  0999 V3000
M  V30 BEGIN CTAB
M  V30 COUNTS 32 33 0 0 0
M  V30 BEGIN ATOM
M  V30 1 C 0.021753 -4.197089 3.434304 0
M  V30 2 C 0.924731 -4.380671 2.245402 0
M  V30 3 C 1.627628 -3.135239 1.863893 0
M  V30 4 O 2.858098 -3.011030 2.088317 0
M  V30 5 N 0.726515 -2.211460 1.260497 0
M  V30 6 N -0.588376 -2.222280 0.981489 0
M  V30 7 C -0.922492 -1.052763 0.403885 0
M  V30 8 C -2.327480 -0.795376 -0.002598 0
M  V30 9 C 0.211328 -0.273850 0.312162 0
M  V30 10 C 0.065356 1.047997 -0.292757 0
M  V30 11 C -0.248486 2.038349 0.609101 0
M  V30 12 C -0.421835 3.355705 0.181609 0
M  V30 13 C -0.265926 3.615892 -1.167903 0
M  V30 14 Cl -0.467603 5.240375 -1.784282 0
M  V30 15 C 0.055304 2.613568 -2.093440 0
M  V30 16 Cl 0.258032 2.913126 -3.802526 0
M  V30 17 C 0.221383 1.311799 -1.641679 0
M  V30 18 C 1.235622 -1.017770 0.854706 0
M  V30 19 N 2.560659 -0.462815 0.896079 0
M  V30 20 H -0.914599 -3.662632 3.179211 0
M  V30 21 H 0.487436 -3.627361 4.260869 0
M  V30 22 H -0.287821 -5.160305 3.883992 0
M  V30 23 H 0.319537 -4.726103 1.393227 0
M  V30 24 H 1.647374 -5.186365 2.517297 0
M  V30 25 H -2.543959 -1.177574 -1.016348 0
M  V30 26 H -2.600183 0.271701 0.112962 0
M  V30 27 H -3.053364 -1.347473 0.659250 0
M  V30 28 H -0.384496 1.899697 1.684364 0
M  V30 29 H -0.669683 4.191779 0.825698 0
M  V30 30 H 0.467242 0.478124 -2.263971 0
M  V30 31 H 3.022232 -0.685065 -0.003259 0
M  V30 32 H 2.683958 0.010812 1.827825 0
M  V30 END ATOM
M  V30 BEGIN BOND
M  V30 1 1 1 2
M  V30 2 1 2 3
M  V30 3 2 3 4
M  V30 4 1 3 5
M  V30 5 1 5 6
M  V30 6 2 6 7
M  V30 7 1 7 8
M  V30 8 1 7 9
M  V30 9 1 9 10
M  V30 10 2 10 11
M  V30 11 1 11 12
M  V30 12 2 12 13
M  V30 13 1 13 14
M  V30 14 1 13 15
M  V30 15 1 15 16
M  V30 16 2 15 17
M  V30 17 2 9 18
M  V30 18 1 18 19
M  V30 19 1 18 5
M  V30 20 1 17 10
M  V30 21 1 1 20
M  V30 22 1 1 21
M  V30 23 1 1 22
M  V30 24 1 2 23
M  V30 25 1 2 24
M  V30 26 1 8 25
M  V30 27 1 8 26
M  V30 28 1 8 27
M  V30 29 1 11 28
M  V30 30 1 12 29
M  V30 31 1 17 30
M  V30 32 1 19 31
M  V30 33 1 19 32
M  V30 END BOND
M  V30 END CTAB
M  END
>  <Dataset>  (455) 
ChEMBL_Kinases

>  <Ligand_Instance>  (455) 
nan

>  <PDB_ID>  (455) 
nan

>  <Standardized_SMILES>  (455) 
CCC(=O)n1nc(C)c(-c2ccc(Cl)c(Cl)c2)c1N

>  <Name>  (455) 
nan

>  <Pocket>  (455) 
nan

>  <ATP_Site>  (455) 
nan

>  <Peripheral>  (455) 
nan

>  <Num_H_Atoms_ProtBoundConf>  (455) 
nan

>  <Num_Resolved_Atoms>  (455) 
nan

>  <Num_Not_Resolved_Atoms>  (455) 
nan

$$$$
CHEMBL4284849
     RDKit          3D

  0  0  0  0  0  0  0  0  0  0999 V3000
M  V30 BEGIN CTAB
M  V30 COUNTS 54 58 0 0 0
M  V30 BEGIN ATOM
M  V30 1 O -1.690292 -1.379387 2.050838 0
M  V30 2 C -0.673195 -1.638365 1.353957 0
M  V30 3 N 0.637600 -1.468750 1.875044 0
M  V30 4 C 1.984676 -1.675585 1.346601 0
M  V30 5 C 2.903685 -0.491054 1.685053 0
M  V30 6 N 2.027339 0.652568 1.933541 0
M  V30 7 C 1.698319 1.835950 1.220659 0
M  V30 8 N 0.393150 1.820281 0.828709 0
M  V30 9 C -0.102111 2.866909 0.114647 0
M  V30 10 N 0.645906 3.947310 -0.235960 0
M  V30 11 C 1.930135 3.970558 0.146061 0
M  V30 12 N 2.984204 4.817457 0.020056 0
M  V30 13 N 4.071572 4.315987 0.626894 0
M  V30 14 C 3.769500 3.120719 1.173359 0
M  V30 15 Br 4.957886 2.003685 2.153616 0
M  V30 16 C 2.447017 2.922886 0.867373 0
M  V30 17 C 1.419351 0.382846 3.248188 0
M  V30 18 C 0.747841 -0.979408 3.242758 0
M  V30 19 C -1.126989 -2.106826 0.018797 0
M  V30 20 C -2.605615 -2.225024 0.067642 0
M  V30 21 C -3.533871 -1.723253 -0.818691 0
M  V30 22 C -4.891817 -1.913237 -0.689826 0
M  V30 23 C -5.395845 -2.639378 0.369631 0
M  V30 24 Cl -7.124664 -2.848801 0.484329 0
M  V30 25 C -4.498052 -3.158201 1.278317 0
M  V30 26 Cl -5.243939 -4.062434 2.583024 0
M  V30 27 C -3.120405 -2.961380 1.140861 0
M  V30 28 C -0.544197 -3.455309 -0.281134 0
M  V30 29 C 0.198316 -3.619988 -1.542744 0
M  V30 30 N 0.752853 -2.456708 -2.147806 0
M  V30 31 C -0.401673 -1.563399 -2.342408 0
M  V30 32 C -0.728939 -1.050350 -0.971244 0
M  V30 33 H 2.469214 -2.553475 1.870367 0
M  V30 34 H 2.006125 -1.915133 0.277004 0
M  V30 35 H 3.514259 -0.318514 0.749877 0
M  V30 36 H 3.581170 -0.718816 2.505356 0
M  V30 37 H -1.130348 2.943420 -0.242139 0
M  V30 38 H 2.876766 5.732455 -0.503700 0
M  V30 39 H 2.202005 0.345069 4.033731 0
M  V30 40 H 0.697655 1.195808 3.444382 0
M  V30 41 H -0.264489 -0.877725 3.719154 0
M  V30 42 H 1.370958 -1.716488 3.796116 0
M  V30 43 H -3.133197 -1.154095 -1.643591 0
M  V30 44 H -5.518246 -1.459171 -1.466541 0
M  V30 45 H -2.603815 -3.456088 1.947889 0
M  V30 46 H 0.116840 -3.756983 0.556790 0
M  V30 47 H -1.349190 -4.249516 -0.271827 0
M  V30 48 H -0.443252 -4.112327 -2.331227 0
M  V30 49 H 1.050316 -4.350082 -1.421764 0
M  V30 50 H 1.173599 -2.719008 -3.043901 0
M  V30 51 H -1.260030 -2.139639 -2.719305 0
M  V30 52 H -0.153804 -0.690322 -2.973265 0
M  V30 53 H 0.228159 -0.574786 -0.600664 0
M  V30 54 H -1.427485 -0.218353 -1.074179 0
M  V30 END ATOM
M  V30 BEGIN BOND
M  V30 1 2 1 2
M  V30 2 1 2 3
M  V30 3 1 3 4
M  V30 4 1 4 5
M  V30 5 1 5 6
M  V30 6 1 6 7
M  V30 7 2 7 8
M  V30 8 1 8 9
M  V30 9 2 9 10
M  V30 10 1 10 11
M  V30 11 1 11 12
M  V30 12 1 12 13
M  V30 13 2 13 14
M  V30 14 1 14 15
M  V30 15 1 14 16
M  V30 16 1 6 17
M  V30 17 1 17 18
M  V30 18 1 2 19
M  V30 19 1 19 20
M  V30 20 2 20 21
M  V30 21 1 21 22
M  V30 22 2 22 23
M  V30 23 1 23 24
M  V30 24 1 23 25
M  V30 25 1 25 26
M  V30 26 2 25 27
M  V30 27 1 19 28
M  V30 28 1 28 29
M  V30 29 1 29 30
M  V30 30 1 30 31
M  V30 31 1 31 32
M  V30 32 1 18 3
M  V30 33 1 32 19
M  V30 34 1 16 7
M  V30 35 1 27 20
M  V30 36 2 16 11
M  V30 37 1 4 33
M  V30 38 1 4 34
M  V30 39 1 5 35
M  V30 40 1 5 36
M  V30 41 1 9 37
M  V30 42 1 12 38
M  V30 43 1 17 39
M  V30 44 1 17 40
M  V30 45 1 18 41
M  V30 46 1 18 42
M  V30 47 1 21 43
M  V30 48 1 22 44
M  V30 49 1 27 45
M  V30 50 1 28 46
M  V30 51 1 28 47
M  V30 52 1 29 48
M  V30 53 1 29 49
M  V30 54 1 30 50
M  V30 55 1 31 51
M  V30 56 1 31 52
M  V30 57 1 32 53
M  V30 58 1 32 54
M  V30 END BOND
M  V30 END CTAB
M  END
>  <Dataset>  (456) 
ChEMBL_Kinases

>  <Ligand_Instance>  (456) 
nan

>  <PDB_ID>  (456) 
nan

>  <Standardized_SMILES>  (456) 
O=C(N1CCN(c2ncnc3[nH]nc(Br)c23)CC1)C1(c2ccc(Cl)c(Cl)c2)CCNCC1

>  <Name>  (456) 
nan

>  <Pocket>  (456) 
nan

>  <ATP_Site>  (456) 
nan

>  <Peripheral>  (456) 
nan

>  <Num_H_Atoms_ProtBoundConf>  (456) 
nan

>  <Num_Resolved_Atoms>  (456) 
nan

>  <Num_Not_Resolved_Atoms>  (456) 
nan

$$$$
CHEMBL4758636
     RDKit          3D

  0  0  0  0  0  0  0  0  0  0999 V3000
M  V30 BEGIN CTAB
M  V30 COUNTS 55 62 0 0 0
M  V30 BEGIN ATOM
M  V30 1 C 6.003019 -0.609059 0.855808 0
M  V30 2 O 4.613277 -0.643637 0.576954 0
M  V30 3 C 3.690566 0.050768 1.384658 0
M  V30 4 O 4.422500 0.589628 2.252071 0
M  V30 5 C 2.300387 -0.169129 0.849334 0 CFG=1
M  V30 6 C 2.085609 -1.673842 0.903987 0
M  V30 7 C 1.059487 -1.803173 1.977594 0 CFG=1
M  V30 8 O 0.802309 -0.595557 2.545352 0
M  V30 9 C 1.228429 0.443009 1.694985 0 CFG=1
M  V30 10 C 1.762615 1.586657 2.516616 0
M  V30 11 N 0.106054 0.763827 0.855809 0
M  V30 12 C -0.318008 1.916563 0.328691 0
M  V30 13 C 0.208741 3.183532 0.386124 0
M  V30 14 C -0.368178 4.259650 -0.233210 0
M  V30 15 C -1.528416 4.137843 -0.963307 0
M  V30 16 C -2.080025 2.878005 -1.039746 0
M  V30 17 C -1.475280 1.820113 -0.406229 0
M  V30 18 C -1.831415 0.495143 -0.355576 0
M  V30 19 C -2.853848 -0.269981 -0.869525 0
M  V30 20 C -2.925941 -1.622291 -0.639102 0
M  V30 21 C -1.968504 -2.228800 0.113085 0
M  V30 22 C -1.813472 -3.514968 0.463018 0
M  V30 23 C -2.407816 -4.731163 0.314153 0
M  V30 24 C -1.966482 -5.927647 0.831569 0
M  V30 25 C -0.790366 -5.906612 1.588453 0
M  V30 26 C -0.131955 -4.701594 1.780942 0
M  V30 27 C -0.663640 -3.568624 1.217387 0
M  V30 28 N -0.152851 -2.339001 1.309738 0
M  V30 29 C -0.959340 -1.472322 0.620991 0
M  V30 30 C -0.858681 -0.097268 0.406895 0
M  V30 31 C -4.106309 -2.083729 -1.317620 0
M  V30 32 O -4.666103 -3.177659 -1.459699 0
M  V30 33 N -4.749334 -0.999263 -1.961540 0
M  V30 34 C -3.992720 0.229230 -1.719531 0
M  V30 35 H 6.290994 0.456424 0.862745 0
M  V30 36 H 6.514020 -1.209351 0.104181 0
M  V30 37 H 6.247791 -1.015917 1.843024 0
M  V30 38 H 2.244062 0.128160 -0.213137 0
M  V30 39 H 1.767983 -2.077686 -0.068824 0
M  V30 40 H 2.986482 -2.233461 1.225875 0
M  V30 41 H 1.325475 -2.513996 2.765081 0
M  V30 42 H 2.647777 2.089703 2.091188 0
M  V30 43 H 0.980519 2.243181 2.937164 0
M  V30 44 H 2.220674 1.168688 3.489111 0
M  V30 45 H 1.119617 3.337836 0.927535 0
M  V30 46 H 0.098287 5.234416 -0.148427 0
M  V30 47 H -1.943805 5.004817 -1.429752 0
M  V30 48 H -2.998546 2.722913 -1.604885 0
M  V30 49 H -3.303895 -4.816605 -0.249015 0
M  V30 50 H -2.476424 -6.868016 0.683864 0
M  V30 51 H -0.415655 -6.827922 2.009434 0
M  V30 52 H 0.775192 -4.671112 2.361902 0
M  V30 53 H -5.602769 -0.892362 -2.541847 0
M  V30 54 H -3.644213 0.659086 -2.669556 0
M  V30 55 H -4.562794 0.921616 -1.077542 0
M  V30 END ATOM
M  V30 BEGIN BOND
M  V30 1 1 1 2
M  V30 2 1 2 3
M  V30 3 2 3 4
M  V30 4 1 3 5
M  V30 5 1 5 6
M  V30 6 1 6 7
M  V30 7 1 7 8
M  V30 8 1 8 9
M  V30 9 1 9 10 CFG=1
M  V30 10 1 9 11
M  V30 11 1 11 12
M  V30 12 2 12 13
M  V30 13 1 13 14
M  V30 14 2 14 15
M  V30 15 1 15 16
M  V30 16 2 16 17
M  V30 17 1 17 18
M  V30 18 2 18 19
M  V30 19 1 19 20
M  V30 20 2 20 21
M  V30 21 1 21 22
M  V30 22 2 22 23
M  V30 23 1 23 24
M  V30 24 2 24 25
M  V30 25 1 25 26
M  V30 26 2 26 27
M  V30 27 1 27 28
M  V30 28 1 28 29
M  V30 29 2 29 30
M  V30 30 1 20 31
M  V30 31 2 31 32
M  V30 32 1 31 33
M  V30 33 1 33 34
M  V30 34 1 9 5
M  V30 35 1 30 11
M  V30 36 1 28 7
M  V30 37 1 17 12
M  V30 38 1 30 18
M  V30 39 1 34 19
M  V30 40 1 29 21
M  V30 41 1 27 22
M  V30 42 1 1 35
M  V30 43 1 1 36
M  V30 44 1 1 37
M  V30 45 1 5 38 CFG=3
M  V30 46 1 6 39
M  V30 47 1 6 40
M  V30 48 1 7 41 CFG=1
M  V30 49 1 10 42
M  V30 50 1 10 43
M  V30 51 1 10 44
M  V30 52 1 13 45
M  V30 53 1 14 46
M  V30 54 1 15 47
M  V30 55 1 16 48
M  V30 56 1 23 49
M  V30 57 1 24 50
M  V30 58 1 25 51
M  V30 59 1 26 52
M  V30 60 1 33 53
M  V30 61 1 34 54
M  V30 62 1 34 55
M  V30 END BOND
M  V30 END CTAB
M  END
>  <Dataset>  (457) 
ChEMBL_Kinases

>  <Ligand_Instance>  (457) 
nan

>  <PDB_ID>  (457) 
nan

>  <Standardized_SMILES>  (457) 
COC(=O)[C@H]1C[C@H]2O[C@]1(C)n1c3ccccc3c3c4c(c5c6ccccc6n2c5c31)C(=O)NC4

>  <Name>  (457) 
nan

>  <Pocket>  (457) 
nan

>  <ATP_Site>  (457) 
nan

>  <Peripheral>  (457) 
nan

>  <Num_H_Atoms_ProtBoundConf>  (457) 
nan

>  <Num_Resolved_Atoms>  (457) 
nan

>  <Num_Not_Resolved_Atoms>  (457) 
nan

$$$$
CHEMBL4284142
     RDKit          3D

  0  0  0  0  0  0  0  0  0  0999 V3000
M  V30 BEGIN CTAB
M  V30 COUNTS 52 56 0 0 0
M  V30 BEGIN ATOM
M  V30 1 C 3.400854 -3.411972 -1.465880 0
M  V30 2 N 3.150215 -4.267238 -0.335293 0
M  V30 3 C 1.891778 -4.900842 -0.330605 0
M  V30 4 C 1.094529 -4.679775 0.926306 0
M  V30 5 N 1.391531 -3.337540 1.387847 0
M  V30 6 C 0.533897 -2.204733 1.359430 0
M  V30 7 C 0.856348 -0.952001 1.829679 0
M  V30 8 C -0.047017 0.085826 1.756040 0
M  V30 9 C -1.310091 -0.052358 1.218430 0
M  V30 10 C -2.245863 1.050232 1.150495 0
M  V30 11 C -1.933938 2.183146 0.394102 0
M  V30 12 C -0.703603 2.316961 -0.338212 0
M  V30 13 C 0.092631 3.389790 0.081531 0
M  V30 14 C 1.319715 3.657208 -0.528134 0
M  V30 15 F 2.099307 4.695311 -0.128358 0
M  V30 16 C 1.725961 2.825694 -1.564045 0
M  V30 17 C 0.949377 1.761235 -1.989747 0
M  V30 18 F 1.357233 0.945710 -3.012342 0
M  V30 19 C -0.270554 1.527135 -1.354899 0
M  V30 20 C -2.830025 3.255185 0.319783 0
M  V30 21 N -3.997690 3.194319 0.980127 0
M  V30 22 C -4.310694 2.103307 1.715348 0
M  V30 23 N -5.410362 1.831035 2.448549 0
M  V30 24 C -5.265784 0.607136 3.006247 0
M  V30 25 C -4.039400 0.058398 2.631123 0
M  V30 26 C -3.463308 1.019266 1.822149 0
M  V30 27 C -1.628656 -1.310243 0.748382 0
M  V30 28 C -0.722224 -2.368448 0.817563 0
M  V30 29 C 2.749429 -3.320159 1.902450 0
M  V30 30 C 3.724948 -3.871951 0.891119 0
M  V30 31 H 4.368948 -3.713967 -1.915801 0
M  V30 32 H 2.615138 -3.655151 -2.231626 0
M  V30 33 H 3.315205 -2.358848 -1.200559 0
M  V30 34 H 1.319864 -4.615926 -1.248768 0
M  V30 35 H 2.021130 -6.015635 -0.439003 0
M  V30 36 H 1.414834 -5.458582 1.659932 0
M  V30 37 H 0.023202 -4.875170 0.755230 0
M  V30 38 H 1.814279 -0.791282 2.252581 0
M  V30 39 H 0.283149 1.054589 2.151665 0
M  V30 40 H -0.167406 4.084918 0.892366 0
M  V30 41 H 2.668835 2.989856 -2.069999 0
M  V30 42 H -0.911931 0.710453 -1.650039 0
M  V30 43 H -2.591436 4.136361 -0.266355 0
M  V30 44 H -6.281261 2.413652 2.614518 0
M  V30 45 H -5.962221 0.089679 3.649844 0
M  V30 46 H -3.575829 -0.888930 2.873565 0
M  V30 47 H -2.635847 -1.392979 0.327342 0
M  V30 48 H -1.141184 -3.259933 0.407315 0
M  V30 49 H 3.065002 -2.377021 2.342411 0
M  V30 50 H 2.755523 -4.058132 2.759968 0
M  V30 51 H 4.463536 -3.044884 0.681591 0
M  V30 52 H 4.344270 -4.699246 1.298326 0
M  V30 END ATOM
M  V30 BEGIN BOND
M  V30 1 1 1 2
M  V30 2 1 2 3
M  V30 3 1 3 4
M  V30 4 1 4 5
M  V30 5 1 5 6
M  V30 6 2 6 7
M  V30 7 1 7 8
M  V30 8 2 8 9
M  V30 9 1 9 10
M  V30 10 1 10 11
M  V30 11 1 11 12
M  V30 12 2 12 13
M  V30 13 1 13 14
M  V30 14 1 14 15
M  V30 15 2 14 16
M  V30 16 1 16 17
M  V30 17 1 17 18
M  V30 18 2 17 19
M  V30 19 2 11 20
M  V30 20 1 20 21
M  V30 21 2 21 22
M  V30 22 1 22 23
M  V30 23 1 23 24
M  V30 24 2 24 25
M  V30 25 1 25 26
M  V30 26 1 9 27
M  V30 27 2 27 28
M  V30 28 1 5 29
M  V30 29 1 29 30
M  V30 30 1 30 2
M  V30 31 1 28 6
M  V30 32 2 26 10
M  V30 33 1 19 12
M  V30 34 1 26 22
M  V30 35 1 1 31
M  V30 36 1 1 32
M  V30 37 1 1 33
M  V30 38 1 3 34
M  V30 39 1 3 35
M  V30 40 1 4 36
M  V30 41 1 4 37
M  V30 42 1 7 38
M  V30 43 1 8 39
M  V30 44 1 13 40
M  V30 45 1 16 41
M  V30 46 1 19 42
M  V30 47 1 20 43
M  V30 48 1 23 44
M  V30 49 1 24 45
M  V30 50 1 25 46
M  V30 51 1 27 47
M  V30 52 1 28 48
M  V30 53 1 29 49
M  V30 54 1 29 50
M  V30 55 1 30 51
M  V30 56 1 30 52
M  V30 END BOND
M  V30 END CTAB
M  END
>  <Dataset>  (458) 
ChEMBL_Kinases

>  <Ligand_Instance>  (458) 
nan

>  <PDB_ID>  (458) 
nan

>  <Standardized_SMILES>  (458) 
CN1CCN(c2ccc(-c3c(-c4cc(F)cc(F)c4)cnc4[nH]ccc34)cc2)CC1

>  <Name>  (458) 
nan

>  <Pocket>  (458) 
nan

>  <ATP_Site>  (458) 
nan

>  <Peripheral>  (458) 
nan

>  <Num_H_Atoms_ProtBoundConf>  (458) 
nan

>  <Num_Resolved_Atoms>  (458) 
nan

>  <Num_Not_Resolved_Atoms>  (458) 
nan

$$$$
CHEMBL4284609
     RDKit          3D

  0  0  0  0  0  0  0  0  0  0999 V3000
M  V30 BEGIN CTAB
M  V30 COUNTS 43 46 0 0 0
M  V30 BEGIN ATOM
M  V30 1 C 5.228276 -3.261935 0.631195 0
M  V30 2 C 4.341923 -2.302476 1.340573 0
M  V30 3 C 4.892629 -1.467252 2.288845 0
M  V30 4 C 4.079784 -0.561149 2.964689 0
M  V30 5 C 2.730570 -0.506506 2.679965 0
M  V30 6 C 2.206062 -1.356365 1.724086 0
M  V30 7 C 0.820120 -1.460223 1.276455 0
M  V30 8 N -0.135938 -2.409272 1.291751 0
M  V30 9 N -1.239719 -1.929612 0.727400 0
M  V30 10 C -1.020041 -0.642943 0.329092 0
M  V30 11 C 0.287674 -0.319567 0.668317 0
M  V30 12 C 0.843717 0.994409 0.377927 0
M  V30 13 C 1.916030 1.076710 -0.486584 0
M  V30 14 C 2.500339 2.283419 -0.813281 0
M  V30 15 N 1.969752 3.402933 -0.241165 0
M  V30 16 C 0.924600 3.304279 0.599185 0
M  V30 17 Cl 0.330659 4.822957 1.272995 0
M  V30 18 C 0.296192 2.131916 0.966017 0
M  V30 19 C -2.281268 -0.136984 -0.300205 0
M  V30 20 C -3.308499 -1.006550 0.395189 0
M  V30 21 C -3.485440 -0.562078 1.811984 0
M  V30 22 C -4.606916 -1.063301 -0.369625 0
M  V30 23 C -2.593562 -2.341877 0.404503 0
M  V30 24 N 3.005720 -2.229119 1.077326 0
M  V30 25 H 5.456006 -4.125811 1.288604 0
M  V30 26 H 4.741364 -3.679576 -0.276086 0
M  V30 27 H 6.211545 -2.777427 0.392366 0
M  V30 28 H 5.948126 -1.456407 2.563767 0
M  V30 29 H 4.391468 0.144805 3.727642 0
M  V30 30 H 1.995720 0.149045 3.131469 0
M  V30 31 H 2.344032 0.188901 -0.945516 0
M  V30 32 H 3.335977 2.398089 -1.480936 0
M  V30 33 H -0.538981 2.092754 1.642079 0
M  V30 34 H -2.452379 0.931048 -0.112063 0
M  V30 35 H -2.220013 -0.397470 -1.368691 0
M  V30 36 H -3.247065 0.520187 1.926055 0
M  V30 37 H -4.500208 -0.711246 2.205642 0
M  V30 38 H -2.777312 -1.077297 2.510251 0
M  V30 39 H -4.941095 -0.014948 -0.548453 0
M  V30 40 H -4.543189 -1.684596 -1.261884 0
M  V30 41 H -5.383589 -1.499408 0.291000 0
M  V30 42 H -2.995575 -3.022857 1.180240 0
M  V30 43 H -2.552528 -2.816578 -0.593328 0
M  V30 END ATOM
M  V30 BEGIN BOND
M  V30 1 1 1 2
M  V30 2 2 2 3
M  V30 3 1 3 4
M  V30 4 2 4 5
M  V30 5 1 5 6
M  V30 6 1 6 7
M  V30 7 2 7 8
M  V30 8 1 8 9
M  V30 9 1 9 10
M  V30 10 2 10 11
M  V30 11 1 11 12
M  V30 12 2 12 13
M  V30 13 1 13 14
M  V30 14 2 14 15
M  V30 15 1 15 16
M  V30 16 1 16 17
M  V30 17 2 16 18
M  V30 18 1 10 19
M  V30 19 1 19 20
M  V30 20 1 20 21
M  V30 21 1 20 22
M  V30 22 1 20 23
M  V30 23 2 6 24
M  V30 24 1 24 2
M  V30 25 1 11 7
M  V30 26 1 18 12
M  V30 27 1 23 9
M  V30 28 1 1 25
M  V30 29 1 1 26
M  V30 30 1 1 27
M  V30 31 1 3 28
M  V30 32 1 4 29
M  V30 33 1 5 30
M  V30 34 1 13 31
M  V30 35 1 14 32
M  V30 36 1 18 33
M  V30 37 1 19 34
M  V30 38 1 19 35
M  V30 39 1 21 36
M  V30 40 1 21 37
M  V30 41 1 21 38
M  V30 42 1 22 39
M  V30 43 1 22 40
M  V30 44 1 22 41
M  V30 45 1 23 42
M  V30 46 1 23 43
M  V30 END BOND
M  V30 END CTAB
M  END
>  <Dataset>  (459) 
ChEMBL_Kinases

>  <Ligand_Instance>  (459) 
nan

>  <PDB_ID>  (459) 
nan

>  <Standardized_SMILES>  (459) 
Cc1cccc(-c2nn3c(c2-c2ccnc(Cl)c2)CC(C)(C)C3)n1

>  <Name>  (459) 
nan

>  <Pocket>  (459) 
nan

>  <ATP_Site>  (459) 
nan

>  <Peripheral>  (459) 
nan

>  <Num_H_Atoms_ProtBoundConf>  (459) 
nan

>  <Num_Resolved_Atoms>  (459) 
nan

>  <Num_Not_Resolved_Atoms>  (459) 
nan

$$$$
CHEMBL4758654
     RDKit          3D

  0  0  0  0  0  0  0  0  0  0999 V3000
M  V30 BEGIN CTAB
M  V30 COUNTS 79 84 0 0 0
M  V30 BEGIN ATOM
M  V30 1 C 2.338757 0.382763 5.079031 0
M  V30 2 C 2.042961 0.141067 3.621658 0
M  V30 3 C 2.778052 1.154972 2.741237 0 CFG=2
M  V30 4 C 2.340082 2.526942 3.093950 0
M  V30 5 N 2.609898 3.105578 4.276087 0
M  V30 6 N 2.041593 4.298725 4.231704 0
M  V30 7 C 1.413554 4.498865 3.048936 0
M  V30 8 C 0.689249 5.752218 2.736535 0
M  V30 9 N 1.614980 3.380670 2.357100 0
M  V30 10 C 1.241644 2.968816 1.072847 0
M  V30 11 C 0.489062 3.828735 0.331844 0
M  V30 12 N 0.130037 3.386779 -0.910770 0
M  V30 13 C 0.496175 2.193159 -1.359380 0
M  V30 14 N 0.130418 1.661761 -2.622972 0
M  V30 15 C -0.794287 0.557739 -2.554411 0
M  V30 16 C -1.247293 0.039810 -1.349343 0
M  V30 17 C -2.106249 -1.022097 -1.183449 0
M  V30 18 C -2.561850 -1.630366 -2.333281 0
M  V30 19 C -3.448619 -2.786649 -2.282379 0
M  V30 20 O -4.028777 -3.296032 -3.274959 0
M  V30 21 N -3.703476 -3.421724 -1.035677 0
M  V30 22 C -4.534115 -4.561683 -0.766693 0
M  V30 23 C -3.592473 -5.767268 -0.561105 0
M  V30 24 C -2.645952 -5.384133 0.543027 0
M  V30 25 N -3.274514 -4.888698 1.707627 0
M  V30 26 C -2.538488 -4.006709 2.535968 0
M  V30 27 C -4.687791 -4.810366 1.739084 0
M  V30 28 C -5.372258 -4.465616 0.458559 0
M  V30 29 C -2.153766 -1.166150 -3.572077 0
M  V30 30 C -1.284818 -0.091356 -3.693254 0
M  V30 31 O -0.876629 0.372734 -4.917167 0
M  V30 32 C -1.234448 -0.115542 -6.172887 0
M  V30 33 N 1.238220 1.371900 -0.603223 0
M  V30 34 C 1.628972 1.725941 0.619051 0
M  V30 35 N 2.400608 0.792562 1.362919 0
M  V30 36 C 2.847615 -0.496143 0.900487 0
M  V30 37 C 3.732106 -0.463705 -0.283923 0
M  V30 38 C 5.094714 -0.274093 -0.030813 0
M  V30 39 C 6.074870 -0.240934 -1.022665 0
M  V30 40 C 5.702323 -0.403219 -2.343536 0
M  V30 41 C 4.348016 -0.592108 -2.605211 0
M  V30 42 C 3.402755 -0.620839 -1.609810 0
M  V30 43 H 2.249568 -0.554623 5.681786 0
M  V30 44 H 1.619619 1.106629 5.503757 0
M  V30 45 H 3.387659 0.743308 5.225281 0
M  V30 46 H 2.308213 -0.877471 3.361088 0
M  V30 47 H 0.953519 0.321733 3.390486 0
M  V30 48 H 3.851311 0.978310 2.829186 0
M  V30 49 H -0.408722 5.616705 2.600782 0
M  V30 50 H 1.144518 6.321478 1.905886 0
M  V30 51 H 0.730148 6.447560 3.638126 0
M  V30 52 H 0.122817 4.788363 0.533564 0
M  V30 53 H 0.417943 1.935188 -3.583002 0
M  V30 54 H -0.918564 0.493507 -0.411421 0
M  V30 55 H -2.398807 -1.347860 -0.196131 0
M  V30 56 H -3.308651 -3.128793 -0.116184 0
M  V30 57 H -5.142958 -4.774487 -1.681775 0
M  V30 58 H -4.156886 -6.677499 -0.372966 0
M  V30 59 H -2.969916 -5.807798 -1.491489 0
M  V30 60 H -1.956472 -4.586571 0.128494 0
M  V30 61 H -1.936712 -6.221685 0.779313 0
M  V30 62 H -3.032432 -3.053661 2.804588 0
M  V30 63 H -2.332645 -4.517535 3.522805 0
M  V30 64 H -1.562884 -3.737299 2.085373 0
M  V30 65 H -5.056921 -5.815825 2.108620 0
M  V30 66 H -4.975217 -4.076596 2.524320 0
M  V30 67 H -6.224146 -5.194358 0.313807 0
M  V30 68 H -5.879109 -3.484060 0.573981 0
M  V30 69 H -2.524491 -1.658454 -4.445378 0
M  V30 70 H -0.913316 0.673719 -6.913481 0
M  V30 71 H -2.325538 -0.203682 -6.339196 0
M  V30 72 H -0.698060 -1.062927 -6.424727 0
M  V30 73 H 3.419758 -1.019598 1.709026 0
M  V30 74 H 1.976076 -1.137179 0.617498 0
M  V30 75 H 5.449748 -0.143878 0.979956 0
M  V30 76 H 7.114472 -0.090303 -0.747553 0
M  V30 77 H 6.488798 -0.372326 -3.082983 0
M  V30 78 H 4.106803 -0.712963 -3.634660 0
M  V30 79 H 2.361071 -0.781659 -1.841640 0
M  V30 END ATOM
M  V30 BEGIN BOND
M  V30 1 1 1 2
M  V30 2 1 2 3
M  V30 3 1 3 4
M  V30 4 2 4 5
M  V30 5 1 5 6
M  V30 6 2 6 7
M  V30 7 1 7 8
M  V30 8 1 7 9
M  V30 9 1 9 10
M  V30 10 2 10 11
M  V30 11 1 11 12
M  V30 12 2 12 13
M  V30 13 1 13 14
M  V30 14 1 14 15
M  V30 15 2 15 16
M  V30 16 1 16 17
M  V30 17 2 17 18
M  V30 18 1 18 19
M  V30 19 2 19 20
M  V30 20 1 19 21
M  V30 21 1 21 22
M  V30 22 1 22 23
M  V30 23 1 23 24
M  V30 24 1 24 25
M  V30 25 1 25 26
M  V30 26 1 25 27
M  V30 27 1 27 28
M  V30 28 1 18 29
M  V30 29 2 29 30
M  V30 30 1 30 31
M  V30 31 1 31 32
M  V30 32 1 13 33
M  V30 33 2 33 34
M  V30 34 1 34 35
M  V30 35 1 35 36
M  V30 36 1 36 37
M  V30 37 2 37 38
M  V30 38 1 38 39
M  V30 39 2 39 40
M  V30 40 1 40 41
M  V30 41 2 41 42
M  V30 42 1 35 3
M  V30 43 1 42 37
M  V30 44 1 9 4
M  V30 45 1 34 10
M  V30 46 1 30 15
M  V30 47 1 28 22
M  V30 48 1 1 43
M  V30 49 1 1 44
M  V30 50 1 1 45
M  V30 51 1 2 46
M  V30 52 1 2 47
M  V30 53 1 3 48 CFG=3
M  V30 54 1 8 49
M  V30 55 1 8 50
M  V30 56 1 8 51
M  V30 57 1 11 52
M  V30 58 1 14 53
M  V30 59 1 16 54
M  V30 60 1 17 55
M  V30 61 1 21 56
M  V30 62 1 22 57
M  V30 63 1 23 58
M  V30 64 1 23 59
M  V30 65 1 24 60
M  V30 66 1 24 61
M  V30 67 1 26 62
M  V30 68 1 26 63
M  V30 69 1 26 64
M  V30 70 1 27 65
M  V30 71 1 27 66
M  V30 72 1 28 67
M  V30 73 1 28 68
M  V30 74 1 29 69
M  V30 75 1 32 70
M  V30 76 1 32 71
M  V30 77 1 32 72
M  V30 78 1 36 73
M  V30 79 1 36 74
M  V30 80 1 38 75
M  V30 81 1 39 76
M  V30 82 1 40 77
M  V30 83 1 41 78
M  V30 84 1 42 79
M  V30 END BOND
M  V30 END CTAB
M  END
>  <Dataset>  (460) 
ChEMBL_Kinases

>  <Ligand_Instance>  (460) 
nan

>  <PDB_ID>  (460) 
nan

>  <Standardized_SMILES>  (460) 
CC[C@@H]1c2nnc(C)n2-c2cnc(Nc3ccc(C(=O)NC4CCN(C)CC4)cc3OC)nc2N1Cc1ccccc1

>  <Name>  (460) 
nan

>  <Pocket>  (460) 
nan

>  <ATP_Site>  (460) 
nan

>  <Peripheral>  (460) 
nan

>  <Num_H_Atoms_ProtBoundConf>  (460) 
nan

>  <Num_Resolved_Atoms>  (460) 
nan

>  <Num_Not_Resolved_Atoms>  (460) 
nan

$$$$
CHEMBL4284570
     RDKit          3D

  0  0  0  0  0  0  0  0  0  0999 V3000
M  V30 BEGIN CTAB
M  V30 COUNTS 39 42 0 0 0
M  V30 BEGIN ATOM
M  V30 1 O 4.009836 2.976557 4.412200 0
M  V30 2 C 3.210820 2.081742 4.020026 0
M  V30 3 N 2.959605 0.870120 4.569537 0
M  V30 4 C 2.028753 0.249304 3.807713 0
M  V30 5 C 1.414927 -0.982059 3.899834 0
M  V30 6 C 0.492171 -1.298993 2.928766 0
M  V30 7 C 0.124415 -0.479771 1.857914 0
M  V30 8 C -0.861472 -0.880996 0.865704 0
M  V30 9 N -1.043302 0.028483 -0.028615 0
M  V30 10 N -1.934660 -0.092972 -1.100213 0
M  V30 11 C -2.658076 -1.147890 -1.278204 0
M  V30 12 N -3.508853 -1.116683 -2.407429 0
M  V30 13 C -3.222342 -0.448782 -3.659748 0
M  V30 14 C -2.012256 -1.080399 -4.243255 0
M  V30 15 C -2.204162 -2.194362 -5.057067 0
M  V30 16 C -1.204553 -2.889345 -5.674802 0
M  V30 17 C 0.096566 -2.493611 -5.506874 0
M  V30 18 C 0.321961 -1.395113 -4.708041 0
M  V30 19 Cl 1.947376 -0.788144 -4.414114 0
M  V30 20 C -0.693049 -0.708607 -4.095243 0
M  V30 21 S -2.666615 -2.616306 -0.221986 0
M  V30 22 C -1.454474 -2.252296 1.086176 0
M  V30 23 C 0.804282 0.717449 1.876391 0
M  V30 24 C 1.741197 1.135938 2.792430 0
M  V30 25 N 2.457677 2.268803 2.905077 0
M  V30 26 H 3.417174 0.499246 5.432959 0
M  V30 27 H 1.654853 -1.648594 4.693981 0
M  V30 28 H 0.031584 -2.276703 3.036761 0
M  V30 29 H -4.434756 -1.638977 -2.303439 0
M  V30 30 H -4.074183 -0.621894 -4.361288 0
M  V30 31 H -3.074350 0.644393 -3.517900 0
M  V30 32 H -3.214501 -2.555226 -5.227505 0
M  V30 33 H -1.391970 -3.751895 -6.301124 0
M  V30 34 H 0.967173 -2.946228 -5.930676 0
M  V30 35 H -0.523444 0.152843 -3.473176 0
M  V30 36 H -1.902289 -2.332659 2.083335 0
M  V30 37 H -0.651153 -3.011866 0.985844 0
M  V30 38 H 0.577913 1.429748 1.066782 0
M  V30 39 H 2.420064 3.086081 2.265069 0
M  V30 END ATOM
M  V30 BEGIN BOND
M  V30 1 2 1 2
M  V30 2 1 2 3
M  V30 3 1 3 4
M  V30 4 2 4 5
M  V30 5 1 5 6
M  V30 6 2 6 7
M  V30 7 1 7 8
M  V30 8 2 8 9
M  V30 9 1 9 10
M  V30 10 2 10 11
M  V30 11 1 11 12
M  V30 12 1 12 13
M  V30 13 1 13 14
M  V30 14 2 14 15
M  V30 15 1 15 16
M  V30 16 2 16 17
M  V30 17 1 17 18
M  V30 18 1 18 19
M  V30 19 2 18 20
M  V30 20 1 11 21
M  V30 21 1 21 22
M  V30 22 1 7 23
M  V30 23 2 23 24
M  V30 24 1 24 25
M  V30 25 1 25 2
M  V30 26 1 24 4
M  V30 27 1 22 8
M  V30 28 1 20 14
M  V30 29 1 3 26
M  V30 30 1 5 27
M  V30 31 1 6 28
M  V30 32 1 12 29
M  V30 33 1 13 30
M  V30 34 1 13 31
M  V30 35 1 15 32
M  V30 36 1 16 33
M  V30 37 1 17 34
M  V30 38 1 20 35
M  V30 39 1 22 36
M  V30 40 1 22 37
M  V30 41 1 23 38
M  V30 42 1 25 39
M  V30 END BOND
M  V30 END CTAB
M  END
>  <Dataset>  (461) 
ChEMBL_Kinases

>  <Ligand_Instance>  (461) 
nan

>  <PDB_ID>  (461) 
nan

>  <Standardized_SMILES>  (461) 
O=c1[nH]c2ccc(C3=NN=C(NCc4cccc(Cl)c4)SC3)cc2[nH]1

>  <Name>  (461) 
nan

>  <Pocket>  (461) 
nan

>  <ATP_Site>  (461) 
nan

>  <Peripheral>  (461) 
nan

>  <Num_H_Atoms_ProtBoundConf>  (461) 
nan

>  <Num_Resolved_Atoms>  (461) 
nan

>  <Num_Not_Resolved_Atoms>  (461) 
nan

$$$$
CHEMBL4284547
     RDKit          3D

  0  0  0  0  0  0  0  0  0  0999 V3000
M  V30 BEGIN CTAB
M  V30 COUNTS 62 66 0 0 0
M  V30 BEGIN ATOM
M  V30 1 C 2.609917 1.561053 4.001643 0
M  V30 2 N 2.116383 0.671483 5.039201 0
M  V30 3 C 2.906946 -0.524663 4.996649 0
M  V30 4 C 2.438026 -1.483883 3.948033 0
M  V30 5 C 1.011392 -1.875423 4.115013 0
M  V30 6 C 0.324265 -1.690977 2.803627 0
M  V30 7 N 0.171345 -0.768747 2.084659 0
M  V30 8 C -0.487548 -0.798925 0.926461 0
M  V30 9 C -0.601173 0.440554 0.122669 0
M  V30 10 C 0.012776 0.363235 -1.132682 0
M  V30 11 C 0.020644 1.415550 -2.039495 0
M  V30 12 C -0.615731 2.602771 -1.674443 0
M  V30 13 C -1.210892 2.656503 -0.439617 0
M  V30 14 S -2.009783 4.128874 0.032666 0
M  V30 15 C -3.699030 4.020815 -0.485985 0
M  V30 16 O -1.285684 5.275141 -0.616632 0
M  V30 17 O -1.976570 4.331372 1.528650 0
M  V30 18 C -1.221260 1.628143 0.452287 0
M  V30 19 C -1.039626 -1.944090 0.498603 0
M  V30 20 C -1.778212 -2.231263 -0.677197 0
M  V30 21 C -2.992707 -1.556992 -0.825988 0
M  V30 22 C -3.794059 -1.753335 -1.924377 0
M  V30 23 N -3.353461 -2.624868 -2.848224 0
M  V30 24 C -2.185778 -3.299033 -2.745569 0
M  V30 25 N -1.761140 -4.212663 -3.751799 0
M  V30 26 C -0.498656 -4.913545 -3.594895 0
M  V30 27 C 0.665966 -3.965756 -3.497816 0
M  V30 28 C 2.019659 -4.643176 -3.331971 0
M  V30 29 C 1.439531 -3.797041 -2.238174 0
M  V30 30 N -1.425906 -3.084014 -1.658993 0
M  V30 31 S -0.568186 -3.071411 1.883993 0
M  V30 32 C 0.366580 -1.007274 5.152620 0
M  V30 33 C 0.700828 0.429835 4.915004 0
M  V30 34 H 2.308240 2.589456 4.284098 0
M  V30 35 H 3.714594 1.535416 3.994489 0
M  V30 36 H 2.209394 1.228624 3.024540 0
M  V30 37 H 2.955265 -1.040979 5.981050 0
M  V30 38 H 3.958174 -0.221447 4.745104 0
M  V30 39 H 3.049640 -2.421621 4.093839 0
M  V30 40 H 2.694348 -1.152163 2.923519 0
M  V30 41 H 0.874263 -2.954317 4.361181 0
M  V30 42 H 0.524293 -0.545341 -1.464782 0
M  V30 43 H 0.512776 1.300049 -3.000741 0
M  V30 44 H -0.633752 3.446417 -2.349224 0
M  V30 45 H -4.161510 3.198974 0.060156 0
M  V30 46 H -3.710469 3.792056 -1.570177 0
M  V30 47 H -4.198929 4.971243 -0.277091 0
M  V30 48 H -1.669792 1.607860 1.434637 0
M  V30 49 H -3.342074 -0.859692 -0.083441 0
M  V30 50 H -4.750082 -1.243932 -2.074572 0
M  V30 51 H -2.375864 -4.357224 -4.587463 0
M  V30 52 H -0.357030 -5.652492 -4.392083 0
M  V30 53 H -0.544107 -5.479894 -2.632373 0
M  V30 54 H 0.601516 -3.127606 -4.228106 0
M  V30 55 H 2.887452 -4.186205 -3.860780 0
M  V30 56 H 2.041350 -5.741090 -3.150345 0
M  V30 57 H 1.128222 -4.292280 -1.309987 0
M  V30 58 H 1.846974 -2.776821 -2.083471 0
M  V30 59 H 0.578743 -1.346687 6.180850 0
M  V30 60 H -0.744937 -1.100532 4.990172 0
M  V30 61 H 0.197872 1.004407 5.736081 0
M  V30 62 H 0.305394 0.725333 3.920706 0
M  V30 END ATOM
M  V30 BEGIN BOND
M  V30 1 1 1 2
M  V30 2 1 2 3
M  V30 3 1 3 4
M  V30 4 1 4 5
M  V30 5 1 5 6
M  V30 6 2 6 7
M  V30 7 1 7 8
M  V30 8 1 8 9
M  V30 9 2 9 10
M  V30 10 1 10 11
M  V30 11 2 11 12
M  V30 12 1 12 13
M  V30 13 1 13 14
M  V30 14 1 14 15
M  V30 15 2 14 16
M  V30 16 2 14 17
M  V30 17 2 13 18
M  V30 18 2 8 19
M  V30 19 1 19 20
M  V30 20 2 20 21
M  V30 21 1 21 22
M  V30 22 2 22 23
M  V30 23 1 23 24
M  V30 24 1 24 25
M  V30 25 1 25 26
M  V30 26 1 26 27
M  V30 27 1 27 28
M  V30 28 1 28 29
M  V30 29 2 24 30
M  V30 30 1 19 31
M  V30 31 1 5 32
M  V30 32 1 32 33
M  V30 33 1 33 2
M  V30 34 1 31 6
M  V30 35 1 18 9
M  V30 36 1 30 20
M  V30 37 1 29 27
M  V30 38 1 1 34
M  V30 39 1 1 35
M  V30 40 1 1 36
M  V30 41 1 3 37
M  V30 42 1 3 38
M  V30 43 1 4 39
M  V30 44 1 4 40
M  V30 45 1 5 41
M  V30 46 1 10 42
M  V30 47 1 11 43
M  V30 48 1 12 44
M  V30 49 1 15 45
M  V30 50 1 15 46
M  V30 51 1 15 47
M  V30 52 1 18 48
M  V30 53 1 21 49
M  V30 54 1 22 50
M  V30 55 1 25 51
M  V30 56 1 26 52
M  V30 57 1 26 53
M  V30 58 1 27 54
M  V30 59 1 28 55
M  V30 60 1 28 56
M  V30 61 1 29 57
M  V30 62 1 29 58
M  V30 63 1 32 59
M  V30 64 1 32 60
M  V30 65 1 33 61
M  V30 66 1 33 62
M  V30 END BOND
M  V30 END CTAB
M  END
>  <Dataset>  (462) 
ChEMBL_Kinases

>  <Ligand_Instance>  (462) 
nan

>  <PDB_ID>  (462) 
nan

>  <Standardized_SMILES>  (462) 
CN1CCC(c2nc(-c3cccc(S(C)(=O)=O)c3)c(-c3ccnc(NCC4CC4)n3)s2)CC1

>  <Name>  (462) 
nan

>  <Pocket>  (462) 
nan

>  <ATP_Site>  (462) 
nan

>  <Peripheral>  (462) 
nan

>  <Num_H_Atoms_ProtBoundConf>  (462) 
nan

>  <Num_Resolved_Atoms>  (462) 
nan

>  <Num_Not_Resolved_Atoms>  (462) 
nan

$$$$
CHEMBL4758677
     RDKit          3D

  0  0  0  0  0  0  0  0  0  0999 V3000
M  V30 BEGIN CTAB
M  V30 COUNTS 52 55 0 0 0
M  V30 BEGIN ATOM
M  V30 1 C 0.093290 -2.324567 2.163037 0
M  V30 2 N 1.005127 -3.017152 1.265176 0
M  V30 3 C 2.166827 -3.494605 1.989850 0
M  V30 4 C 2.981238 -2.253633 2.295301 0
M  V30 5 C 3.715888 -1.937615 0.991363 0
M  V30 6 C 4.557474 -0.695812 1.154397 0
M  V30 7 N 3.784309 0.473045 1.497522 0
M  V30 8 C 2.939584 1.192789 0.607871 0
M  V30 9 N 3.474466 1.743043 -0.432221 0
M  V30 10 C 2.635537 2.434591 -1.282868 0
M  V30 11 O 3.059946 3.015873 -2.334659 0
M  V30 12 C 1.249455 2.466474 -0.920402 0
M  V30 13 C 0.197187 2.995035 -1.452711 0
M  V30 14 C -1.181826 2.940156 -0.969069 0
M  V30 15 C -2.125160 3.995908 -0.879571 0
M  V30 16 S -3.624834 3.083375 -0.273813 0
M  V30 17 C -2.695083 1.455699 -0.257457 0
M  V30 18 C -3.472525 0.238010 0.162250 0
M  V30 19 C -4.781315 0.286145 0.507076 0
M  V30 20 C -5.359224 -0.934968 0.849777 0
M  V30 21 C -4.615843 -2.124397 0.832537 0
M  V30 22 C -5.158388 -3.450140 1.177190 0
M  V30 23 F -5.476730 -4.208319 0.053677 0
M  V30 24 F -4.290924 -4.200251 1.974515 0
M  V30 25 F -6.337718 -3.287248 1.893751 0
M  V30 26 C -3.273803 -2.086071 0.465730 0
M  V30 27 C -2.688962 -0.887832 0.124775 0
M  V30 28 N -1.651269 1.753075 -0.617365 0
M  V30 29 S 1.182368 1.544360 0.637358 0
M  V30 30 C 2.756590 -1.895328 -0.112602 0
M  V30 31 C 1.344898 -2.242723 0.115854 0
M  V30 32 H 0.072489 -1.276951 1.871422 0
M  V30 33 H 0.495153 -2.441779 3.210508 0
M  V30 34 H -0.920413 -2.769338 2.187854 0
M  V30 35 H 2.758176 -4.148451 1.350615 0
M  V30 36 H 1.792804 -3.984439 2.913891 0
M  V30 37 H 3.705185 -2.400548 3.124097 0
M  V30 38 H 2.279513 -1.411467 2.480041 0
M  V30 39 H 4.445102 -2.791700 0.881391 0
M  V30 40 H 5.039386 -0.533873 0.142794 0
M  V30 41 H 5.378439 -0.837838 1.880699 0
M  V30 42 H 3.739219 0.913314 2.479700 0
M  V30 43 H 0.397807 3.546758 -2.386129 0
M  V30 44 H -1.857239 4.989264 -1.136101 0
M  V30 45 H -5.316397 1.206738 0.511308 0
M  V30 46 H -6.400231 -0.991686 1.136629 0
M  V30 47 H -2.682192 -2.995539 0.444372 0
M  V30 48 H -1.642894 -0.921690 -0.146372 0
M  V30 49 H 3.166363 -2.601724 -0.918351 0
M  V30 50 H 2.840358 -0.903874 -0.644629 0
M  V30 51 H 0.730762 -1.326934 0.159372 0
M  V30 52 H 0.932372 -2.791703 -0.785689 0
M  V30 END ATOM
M  V30 BEGIN BOND
M  V30 1 1 1 2
M  V30 2 1 2 3
M  V30 3 1 3 4
M  V30 4 1 4 5
M  V30 5 1 5 6
M  V30 6 1 6 7
M  V30 7 1 7 8
M  V30 8 2 8 9
M  V30 9 1 9 10
M  V30 10 2 10 11
M  V30 11 1 10 12
M  V30 12 2 12 13
M  V30 13 1 13 14
M  V30 14 2 14 15
M  V30 15 1 15 16
M  V30 16 1 16 17
M  V30 17 1 17 18
M  V30 18 2 18 19
M  V30 19 1 19 20
M  V30 20 2 20 21
M  V30 21 1 21 22
M  V30 22 1 22 23
M  V30 23 1 22 24
M  V30 24 1 22 25
M  V30 25 1 21 26
M  V30 26 2 26 27
M  V30 27 2 17 28
M  V30 28 1 12 29
M  V30 29 1 5 30
M  V30 30 1 30 31
M  V30 31 1 31 2
M  V30 32 1 29 8
M  V30 33 1 28 14
M  V30 34 1 27 18
M  V30 35 1 1 32
M  V30 36 1 1 33
M  V30 37 1 1 34
M  V30 38 1 3 35
M  V30 39 1 3 36
M  V30 40 1 4 37
M  V30 41 1 4 38
M  V30 42 1 5 39
M  V30 43 1 6 40
M  V30 44 1 6 41
M  V30 45 1 7 42
M  V30 46 1 13 43
M  V30 47 1 15 44
M  V30 48 1 19 45
M  V30 49 1 20 46
M  V30 50 1 26 47
M  V30 51 1 27 48
M  V30 52 1 30 49
M  V30 53 1 30 50
M  V30 54 1 31 51
M  V30 55 1 31 52
M  V30 END BOND
M  V30 END CTAB
M  END
>  <Dataset>  (463) 
ChEMBL_Kinases

>  <Ligand_Instance>  (463) 
nan

>  <PDB_ID>  (463) 
nan

>  <Standardized_SMILES>  (463) 
CN1CCC(CNC2=NC(=O)/C(=C/c3csc(-c4ccc(C(F)(F)F)cc4)n3)S2)CC1

>  <Name>  (463) 
nan

>  <Pocket>  (463) 
nan

>  <ATP_Site>  (463) 
nan

>  <Peripheral>  (463) 
nan

>  <Num_H_Atoms_ProtBoundConf>  (463) 
nan

>  <Num_Resolved_Atoms>  (463) 
nan

>  <Num_Not_Resolved_Atoms>  (463) 
nan

$$$$
CHEMBL4284434
     RDKit          3D

  0  0  0  0  0  0  0  0  0  0999 V3000
M  V30 BEGIN CTAB
M  V30 COUNTS 46 49 0 0 0
M  V30 BEGIN ATOM
M  V30 1 C 4.030914 -3.592500 2.935753 0
M  V30 2 C 3.711770 -3.037284 1.593163 0
M  V30 3 C 4.679720 -3.054215 0.585886 0
M  V30 4 C 4.246496 -2.508660 -0.603205 0
M  V30 5 C 3.024060 -1.980200 -0.876772 0
M  V30 6 C 2.107335 -1.997237 0.178262 0
M  V30 7 C 0.755508 -1.463840 0.030579 0
M  V30 8 N -0.228662 -1.872458 -0.816865 0
M  V30 9 N -1.303748 -1.135179 -0.643458 0
M  V30 10 C -1.050852 -0.227481 0.319715 0
M  V30 11 C 0.231431 -0.401204 0.768145 0
M  V30 12 C 0.997870 0.313563 1.796989 0
M  V30 13 C 2.163293 1.012566 1.471187 0
M  V30 14 C 2.812622 1.652905 2.508640 0
M  V30 15 N 2.333382 1.594112 3.753052 0
M  V30 16 C 1.215055 0.928094 4.088733 0
M  V30 17 Cl 0.614653 0.872751 5.737397 0
M  V30 18 C 0.520016 0.266466 3.094087 0
M  V30 19 C -2.227436 0.660552 0.585432 0
M  V30 20 C -3.162873 0.040044 1.605568 0
M  V30 21 C -2.909975 0.562185 -0.783363 0
M  V30 22 C -2.177192 1.432029 -1.763763 0
M  V30 23 C -4.350755 0.952898 -0.730913 0
M  V30 24 C -2.681482 -0.904858 -1.085362 0
M  V30 25 N 2.467641 -2.519609 1.376121 0
M  V30 26 H 3.080898 -4.077930 3.304220 0
M  V30 27 H 4.878083 -4.291082 2.896168 0
M  V30 28 H 4.201153 -2.746502 3.645715 0
M  V30 29 H 5.669218 -3.458261 0.735205 0
M  V30 30 H 4.958547 -2.495936 -1.420643 0
M  V30 31 H 2.748352 -1.567190 -1.833141 0
M  V30 32 H 2.498512 1.016527 0.422573 0
M  V30 33 H 3.718418 2.188601 2.219350 0
M  V30 34 H -0.392691 -0.280431 3.352298 0
M  V30 35 H -1.956305 1.686746 0.830325 0
M  V30 36 H -4.192956 -0.065363 1.212493 0
M  V30 37 H -3.198523 0.620392 2.545314 0
M  V30 38 H -2.820450 -0.988235 1.854729 0
M  V30 39 H -1.104924 1.577767 -1.473591 0
M  V30 40 H -2.246579 1.050447 -2.807350 0
M  V30 41 H -2.600756 2.458674 -1.787623 0
M  V30 42 H -4.465432 1.705713 0.101533 0
M  V30 43 H -5.068006 0.131237 -0.673946 0
M  V30 44 H -4.592299 1.548555 -1.650115 0
M  V30 45 H -2.688439 -1.094496 -2.178927 0
M  V30 46 H -3.356314 -1.559144 -0.531692 0
M  V30 END ATOM
M  V30 BEGIN BOND
M  V30 1 1 1 2
M  V30 2 2 2 3
M  V30 3 1 3 4
M  V30 4 2 4 5
M  V30 5 1 5 6
M  V30 6 1 6 7
M  V30 7 2 7 8
M  V30 8 1 8 9
M  V30 9 1 9 10
M  V30 10 2 10 11
M  V30 11 1 11 12
M  V30 12 2 12 13
M  V30 13 1 13 14
M  V30 14 2 14 15
M  V30 15 1 15 16
M  V30 16 1 16 17
M  V30 17 2 16 18
M  V30 18 1 10 19
M  V30 19 1 19 20
M  V30 20 1 19 21
M  V30 21 1 21 22
M  V30 22 1 21 23
M  V30 23 1 21 24
M  V30 24 2 6 25
M  V30 25 1 25 2
M  V30 26 1 11 7
M  V30 27 1 18 12
M  V30 28 1 24 9
M  V30 29 1 1 26
M  V30 30 1 1 27
M  V30 31 1 1 28
M  V30 32 1 3 29
M  V30 33 1 4 30
M  V30 34 1 5 31
M  V30 35 1 13 32
M  V30 36 1 14 33
M  V30 37 1 18 34
M  V30 38 1 19 35
M  V30 39 1 20 36
M  V30 40 1 20 37
M  V30 41 1 20 38
M  V30 42 1 22 39
M  V30 43 1 22 40
M  V30 44 1 22 41
M  V30 45 1 23 42
M  V30 46 1 23 43
M  V30 47 1 23 44
M  V30 48 1 24 45
M  V30 49 1 24 46
M  V30 END BOND
M  V30 END CTAB
M  END
>  <Dataset>  (464) 
ChEMBL_Kinases

>  <Ligand_Instance>  (464) 
nan

>  <PDB_ID>  (464) 
nan

>  <Standardized_SMILES>  (464) 
Cc1cccc(-c2nn3c(c2-c2ccnc(Cl)c2)C(C)C(C)(C)C3)n1

>  <Name>  (464) 
nan

>  <Pocket>  (464) 
nan

>  <ATP_Site>  (464) 
nan

>  <Peripheral>  (464) 
nan

>  <Num_H_Atoms_ProtBoundConf>  (464) 
nan

>  <Num_Resolved_Atoms>  (464) 
nan

>  <Num_Not_Resolved_Atoms>  (464) 
nan

$$$$
CHEMBL4284420
     RDKit          3D

  0  0  0  0  0  0  0  0  0  0999 V3000
M  V30 BEGIN CTAB
M  V30 COUNTS 54 58 0 0 0
M  V30 BEGIN ATOM
M  V30 1 O 0.413448 -3.190425 2.010440 0
M  V30 2 C -0.194283 -2.294706 1.319226 0
M  V30 3 N 0.213027 -0.967969 1.625969 0
M  V30 4 C -0.362245 0.160199 0.948951 0
M  V30 5 C 0.231820 1.497403 1.431591 0
M  V30 6 N 1.673120 1.277981 1.192541 0
M  V30 7 C 2.560935 1.851775 0.238706 0
M  V30 8 N 3.058708 0.915571 -0.620782 0
M  V30 9 C 3.914068 1.307842 -1.595164 0
M  V30 10 N 4.300254 2.599041 -1.755186 0
M  V30 11 C 3.825852 3.521436 -0.928132 0
M  V30 12 N 3.944270 4.859986 -0.736777 0
M  V30 13 N 3.214046 5.286794 0.289051 0
M  V30 14 C 2.555011 4.229012 0.848134 0
M  V30 15 Cl 1.471143 4.246892 2.221715 0
M  V30 16 C 2.953481 3.161491 0.075798 0
M  V30 17 C 2.268199 0.303818 2.103791 0
M  V30 18 C 1.218869 -0.654591 2.623028 0
M  V30 19 C -1.187189 -2.696106 0.341164 0
M  V30 20 C -2.509567 -2.105269 0.670442 0
M  V30 21 C -2.732114 -2.238374 2.044255 0
M  V30 22 C -3.914449 -1.767583 2.627506 0
M  V30 23 C -4.868228 -1.168201 1.846135 0
M  V30 24 Cl -6.387817 -0.544792 2.491259 0
M  V30 25 C -4.627185 -1.046781 0.487585 0
M  V30 26 C -3.469293 -1.504301 -0.104113 0
M  V30 27 C -1.398730 -4.213570 0.466631 0
M  V30 28 C -0.418693 -4.965607 -0.388996 0
M  V30 29 N -0.538578 -4.734265 -1.793994 0
M  V30 30 C -1.371625 -3.555150 -1.994240 0
M  V30 31 C -0.777749 -2.489335 -1.094590 0
M  V30 32 H -1.444108 0.185564 1.054846 0
M  V30 33 H -0.108705 0.184475 -0.145501 0
M  V30 34 H 0.010687 1.653254 2.498662 0
M  V30 35 H -0.189965 2.251427 0.748900 0
M  V30 36 H 4.316934 0.557043 -2.289225 0
M  V30 37 H 4.555620 5.476415 -1.348217 0
M  V30 38 H 2.767571 0.840660 2.939421 0
M  V30 39 H 3.011729 -0.266412 1.539928 0
M  V30 40 H 1.688620 -1.568884 3.040868 0
M  V30 41 H 0.758218 -0.122596 3.486023 0
M  V30 42 H -2.087986 -2.684323 2.806056 0
M  V30 43 H -4.158871 -1.831371 3.666678 0
M  V30 44 H -5.337914 -0.586413 -0.173062 0
M  V30 45 H -3.185688 -1.463841 -1.128017 0
M  V30 46 H -2.434295 -4.494228 0.264305 0
M  V30 47 H -1.174971 -4.483248 1.518367 0
M  V30 48 H -0.602544 -6.042346 -0.205261 0
M  V30 49 H 0.613544 -4.747620 -0.046953 0
M  V30 50 H 0.411548 -4.472391 -2.193152 0
M  V30 51 H -1.271385 -3.167977 -3.038946 0
M  V30 52 H -2.435439 -3.749054 -1.824873 0
M  V30 53 H -1.188273 -1.515897 -1.425998 0
M  V30 54 H 0.318128 -2.557907 -1.228093 0
M  V30 END ATOM
M  V30 BEGIN BOND
M  V30 1 2 1 2
M  V30 2 1 2 3
M  V30 3 1 3 4
M  V30 4 1 4 5
M  V30 5 1 5 6
M  V30 6 1 6 7
M  V30 7 2 7 8
M  V30 8 1 8 9
M  V30 9 2 9 10
M  V30 10 1 10 11
M  V30 11 1 11 12
M  V30 12 1 12 13
M  V30 13 2 13 14
M  V30 14 1 14 15
M  V30 15 1 14 16
M  V30 16 1 6 17
M  V30 17 1 17 18
M  V30 18 1 2 19
M  V30 19 1 19 20
M  V30 20 2 20 21
M  V30 21 1 21 22
M  V30 22 2 22 23
M  V30 23 1 23 24
M  V30 24 1 23 25
M  V30 25 2 25 26
M  V30 26 1 19 27
M  V30 27 1 27 28
M  V30 28 1 28 29
M  V30 29 1 29 30
M  V30 30 1 30 31
M  V30 31 1 18 3
M  V30 32 1 31 19
M  V30 33 1 16 7
M  V30 34 1 26 20
M  V30 35 2 16 11
M  V30 36 1 4 32
M  V30 37 1 4 33
M  V30 38 1 5 34
M  V30 39 1 5 35
M  V30 40 1 9 36
M  V30 41 1 12 37
M  V30 42 1 17 38
M  V30 43 1 17 39
M  V30 44 1 18 40
M  V30 45 1 18 41
M  V30 46 1 21 42
M  V30 47 1 22 43
M  V30 48 1 25 44
M  V30 49 1 26 45
M  V30 50 1 27 46
M  V30 51 1 27 47
M  V30 52 1 28 48
M  V30 53 1 28 49
M  V30 54 1 29 50
M  V30 55 1 30 51
M  V30 56 1 30 52
M  V30 57 1 31 53
M  V30 58 1 31 54
M  V30 END BOND
M  V30 END CTAB
M  END
>  <Dataset>  (465) 
ChEMBL_Kinases

>  <Ligand_Instance>  (465) 
nan

>  <PDB_ID>  (465) 
nan

>  <Standardized_SMILES>  (465) 
O=C(N1CCN(c2ncnc3[nH]nc(Cl)c23)CC1)C1(c2ccc(Cl)cc2)CCNCC1

>  <Name>  (465) 
nan

>  <Pocket>  (465) 
nan

>  <ATP_Site>  (465) 
nan

>  <Peripheral>  (465) 
nan

>  <Num_H_Atoms_ProtBoundConf>  (465) 
nan

>  <Num_Resolved_Atoms>  (465) 
nan

>  <Num_Not_Resolved_Atoms>  (465) 
nan

$$$$
CHEMBL4758698
     RDKit          3D

  0  0  0  0  0  0  0  0  0  0999 V3000
M  V30 BEGIN CTAB
M  V30 COUNTS 52 57 0 0 0
M  V30 BEGIN ATOM
M  V30 1 C -0.353980 -3.866580 0.117010 0
M  V30 2 C 0.311068 -4.408801 1.301928 0
M  V30 3 C 1.330567 -3.669841 1.867157 0
M  V30 4 C 1.807215 -2.372271 1.399885 0
M  V30 5 C 3.200468 -2.264165 1.291562 0
M  V30 6 C 3.754442 -1.061669 0.857100 0
M  V30 7 F 5.117934 -0.953228 0.750830 0
M  V30 8 C 2.986976 0.052346 0.520593 0
M  V30 9 C 1.626334 -0.127058 0.651362 0
M  V30 10 C 1.037721 -1.299114 1.077419 0
M  V30 11 C 0.973892 1.119289 0.264039 0
M  V30 12 C -0.287067 1.487704 0.180956 0
M  V30 13 C -0.861581 2.763297 -0.213760 0
M  V30 14 C -1.921065 2.689684 -1.132086 0
M  V30 15 C -2.399009 3.935091 -1.421820 0
M  V30 16 C -1.620154 4.792733 -0.667645 0
M  V30 17 C -1.728755 6.277799 -0.617734 0
M  V30 18 C -2.025740 6.964091 -1.974883 0
M  V30 19 C -3.044624 6.911713 -0.818456 0
M  V30 20 N -0.735339 4.055314 0.021968 0
M  V30 21 C 2.049732 2.030568 -0.100241 0
M  V30 22 O 2.004434 3.203062 -0.496191 0
M  V30 23 N 3.291426 1.362982 0.061485 0
M  V30 24 C 1.974431 -4.175682 2.987367 0
M  V30 25 N 1.633823 -5.358597 3.533658 0
M  V30 26 C 0.640597 -6.099828 3.000028 0
M  V30 27 C -0.006308 -5.606519 1.885765 0
M  V30 28 N -1.059966 -6.355997 1.292364 0
M  V30 29 C -1.456615 -7.657885 1.735171 0
M  V30 30 C -0.698765 -8.184170 2.918214 0
M  V30 31 O 0.222358 -7.314384 3.484754 0
M  V30 32 H -0.650342 -4.659539 -0.620356 0
M  V30 33 H -1.320931 -3.421685 0.430630 0
M  V30 34 H 0.300326 -3.146544 -0.422228 0
M  V30 35 H 3.887029 -3.064405 1.525854 0
M  V30 36 H -0.015297 -1.391813 1.164420 0
M  V30 37 H -0.940315 0.642091 0.474296 0
M  V30 38 H -2.414668 1.847264 -1.638266 0
M  V30 39 H -3.174478 4.287060 -2.055558 0
M  V30 40 H -1.023027 6.821352 0.041512 0
M  V30 41 H -2.210121 6.292730 -2.837554 0
M  V30 42 H -1.491648 7.919131 -2.149468 0
M  V30 43 H -3.963390 6.356109 -1.052858 0
M  V30 44 H -3.260784 7.904723 -0.364891 0
M  V30 45 H -0.031564 4.408277 0.681144 0
M  V30 46 H 4.253010 1.727924 -0.111116 0
M  V30 47 H 2.790708 -3.650028 3.491908 0
M  V30 48 H -1.650872 -6.041412 0.480900 0
M  V30 49 H -2.526605 -7.558597 2.058498 0
M  V30 50 H -1.447720 -8.352809 0.871780 0
M  V30 51 H -1.384700 -8.616782 3.702146 0
M  V30 52 H -0.124717 -9.069475 2.555096 0
M  V30 END ATOM
M  V30 BEGIN BOND
M  V30 1 1 1 2
M  V30 2 2 2 3
M  V30 3 1 3 4
M  V30 4 2 4 5
M  V30 5 1 5 6
M  V30 6 1 6 7
M  V30 7 2 6 8
M  V30 8 1 8 9
M  V30 9 2 9 10
M  V30 10 1 9 11
M  V30 11 2 11 12
M  V30 12 1 12 13
M  V30 13 2 13 14
M  V30 14 1 14 15
M  V30 15 2 15 16
M  V30 16 1 16 17
M  V30 17 1 17 18
M  V30 18 1 18 19
M  V30 19 1 16 20
M  V30 20 1 11 21
M  V30 21 2 21 22
M  V30 22 1 21 23
M  V30 23 1 3 24
M  V30 24 2 24 25
M  V30 25 1 25 26
M  V30 26 2 26 27
M  V30 27 1 27 28
M  V30 28 1 28 29
M  V30 29 1 29 30
M  V30 30 1 30 31
M  V30 31 1 27 2
M  V30 32 1 10 4
M  V30 33 1 20 13
M  V30 34 1 31 26
M  V30 35 1 23 8
M  V30 36 1 19 17
M  V30 37 1 1 32
M  V30 38 1 1 33
M  V30 39 1 1 34
M  V30 40 1 5 35
M  V30 41 1 10 36
M  V30 42 1 12 37
M  V30 43 1 14 38
M  V30 44 1 15 39
M  V30 45 1 17 40
M  V30 46 1 18 41
M  V30 47 1 18 42
M  V30 48 1 19 43
M  V30 49 1 19 44
M  V30 50 1 20 45
M  V30 51 1 23 46
M  V30 52 1 24 47
M  V30 53 1 28 48
M  V30 54 1 29 49
M  V30 55 1 29 50
M  V30 56 1 30 51
M  V30 57 1 30 52
M  V30 END BOND
M  V30 END CTAB
M  END
>  <Dataset>  (466) 
ChEMBL_Kinases

>  <Ligand_Instance>  (466) 
nan

>  <PDB_ID>  (466) 
nan

>  <Standardized_SMILES>  (466) 
Cc1c(-c2cc(F)c3c(c2)/C(=C/c2ccc(C4CC4)[nH]2)C(=O)N3)cnc2c1NCCO2

>  <Name>  (466) 
nan

>  <Pocket>  (466) 
nan

>  <ATP_Site>  (466) 
nan

>  <Peripheral>  (466) 
nan

>  <Num_H_Atoms_ProtBoundConf>  (466) 
nan

>  <Num_Resolved_Atoms>  (466) 
nan

>  <Num_Not_Resolved_Atoms>  (466) 
nan

$$$$
CHEMBL4284266
     RDKit          3D

  0  0  0  0  0  0  0  0  0  0999 V3000
M  V30 BEGIN CTAB
M  V30 COUNTS 54 57 0 0 0
M  V30 BEGIN ATOM
M  V30 1 C 2.898266 -4.577727 3.544819 0
M  V30 2 C 3.658808 -4.355160 2.258691 0
M  V30 3 C 3.379250 -3.017521 1.678827 0
M  V30 4 C 4.180228 -1.944599 2.045102 0
M  V30 5 C 3.955639 -0.669606 1.526189 0
M  V30 6 C 2.895291 -0.530721 0.629463 0
M  V30 7 C 2.096824 -1.616825 0.268781 0
M  V30 8 C 1.017356 -1.355061 -0.675696 0
M  V30 9 N 0.775786 -1.809187 -1.910445 0
M  V30 10 N -0.352841 -1.280034 -2.387692 0
M  V30 11 C -0.877343 -0.457447 -1.458508 0
M  V30 12 C -0.026306 -0.491373 -0.369812 0
M  V30 13 C -0.212700 0.255635 0.868744 0
M  V30 14 C -0.258554 1.620307 0.927715 0
M  V30 15 C -0.434894 2.287084 2.110720 0
M  V30 16 C -0.573893 1.601629 3.295450 0
M  V30 17 O -0.759638 2.028120 4.599669 0
M  V30 18 C -0.846024 3.376474 4.967368 0
M  V30 19 C -0.531403 0.201899 3.268989 0
M  V30 20 C -0.350782 -0.471211 2.055248 0
M  V30 21 C -2.137222 0.134631 -1.989692 0
M  V30 22 C -3.127766 0.466782 -0.929936 0
M  V30 23 C -2.561722 -0.990707 -2.919970 0
M  V30 24 C -2.944190 -2.223069 -2.135778 0
M  V30 25 C -3.601481 -0.556985 -3.904613 0
M  V30 26 C -1.214831 -1.278837 -3.555380 0
M  V30 27 N 2.367774 -2.816220 0.805304 0
M  V30 28 H 2.821691 -3.608670 4.084317 0
M  V30 29 H 1.860205 -4.916309 3.341437 0
M  V30 30 H 3.421148 -5.337969 4.151846 0
M  V30 31 H 3.269435 -5.100167 1.529103 0
M  V30 32 H 4.749428 -4.550578 2.360216 0
M  V30 33 H 5.014968 -2.054386 2.751321 0
M  V30 34 H 4.574230 0.172368 1.805505 0
M  V30 35 H 2.756330 0.491197 0.247015 0
M  V30 36 H -0.155920 2.199957 0.038306 0
M  V30 37 H -0.484202 3.347670 2.258610 0
M  V30 38 H -1.898742 3.623369 5.222236 0
M  V30 39 H -0.174680 3.539348 5.845430 0
M  V30 40 H -0.529191 4.047429 4.163517 0
M  V30 41 H -0.625015 -0.486140 4.114597 0
M  V30 42 H -0.312276 -1.556709 1.991980 0
M  V30 43 H -1.840356 0.998977 -2.615139 0
M  V30 44 H -3.326060 1.569872 -1.004854 0
M  V30 45 H -2.776452 0.297026 0.096820 0
M  V30 46 H -4.088922 -0.017236 -1.180879 0
M  V30 47 H -3.444068 -1.980611 -1.174545 0
M  V30 48 H -3.532969 -2.876749 -2.786433 0
M  V30 49 H -2.028658 -2.795250 -1.854029 0
M  V30 50 H -4.591853 -0.833965 -3.458195 0
M  V30 51 H -3.595210 0.532614 -4.023569 0
M  V30 52 H -3.489390 -1.111212 -4.847060 0
M  V30 53 H -0.890926 -0.416007 -4.157033 0
M  V30 54 H -1.205215 -2.231595 -4.105380 0
M  V30 END ATOM
M  V30 BEGIN BOND
M  V30 1 1 1 2
M  V30 2 1 2 3
M  V30 3 2 3 4
M  V30 4 1 4 5
M  V30 5 2 5 6
M  V30 6 1 6 7
M  V30 7 1 7 8
M  V30 8 2 8 9
M  V30 9 1 9 10
M  V30 10 1 10 11
M  V30 11 2 11 12
M  V30 12 1 12 13
M  V30 13 2 13 14
M  V30 14 1 14 15
M  V30 15 2 15 16
M  V30 16 1 16 17
M  V30 17 1 17 18
M  V30 18 1 16 19
M  V30 19 2 19 20
M  V30 20 1 11 21
M  V30 21 1 21 22
M  V30 22 1 21 23
M  V30 23 1 23 24
M  V30 24 1 23 25
M  V30 25 1 23 26
M  V30 26 2 7 27
M  V30 27 1 27 3
M  V30 28 1 12 8
M  V30 29 1 20 13
M  V30 30 1 26 10
M  V30 31 1 1 28
M  V30 32 1 1 29
M  V30 33 1 1 30
M  V30 34 1 2 31
M  V30 35 1 2 32
M  V30 36 1 4 33
M  V30 37 1 5 34
M  V30 38 1 6 35
M  V30 39 1 14 36
M  V30 40 1 15 37
M  V30 41 1 18 38
M  V30 42 1 18 39
M  V30 43 1 18 40
M  V30 44 1 19 41
M  V30 45 1 20 42
M  V30 46 1 21 43
M  V30 47 1 22 44
M  V30 48 1 22 45
M  V30 49 1 22 46
M  V30 50 1 24 47
M  V30 51 1 24 48
M  V30 52 1 24 49
M  V30 53 1 25 50
M  V30 54 1 25 51
M  V30 55 1 25 52
M  V30 56 1 26 53
M  V30 57 1 26 54
M  V30 END BOND
M  V30 END CTAB
M  END
>  <Dataset>  (467) 
ChEMBL_Kinases

>  <Ligand_Instance>  (467) 
nan

>  <PDB_ID>  (467) 
nan

>  <Standardized_SMILES>  (467) 
CCc1cccc(-c2nn3c(c2-c2ccc(OC)cc2)C(C)C(C)(C)C3)n1

>  <Name>  (467) 
nan

>  <Pocket>  (467) 
nan

>  <ATP_Site>  (467) 
nan

>  <Peripheral>  (467) 
nan

>  <Num_H_Atoms_ProtBoundConf>  (467) 
nan

>  <Num_Resolved_Atoms>  (467) 
nan

>  <Num_Not_Resolved_Atoms>  (467) 
nan

$$$$
CHEMBL4758751
     RDKit          3D

  0  0  0  0  0  0  0  0  0  0999 V3000
M  V30 BEGIN CTAB
M  V30 COUNTS 63 67 0 0 0
M  V30 BEGIN ATOM
M  V30 1 C 1.072416 -0.713442 8.486269 0
M  V30 2 O 2.133644 -0.184100 7.746869 0
M  V30 3 C 1.991576 0.446218 6.530109 0
M  V30 4 C 3.104523 0.928127 5.890618 0
M  V30 5 C 3.178684 1.578916 4.687175 0
M  V30 6 C 1.972850 1.762760 4.054319 0
M  V30 7 C 1.851982 2.437430 2.742969 0
M  V30 8 C 2.964664 2.937382 2.103594 0
M  V30 9 C 2.871879 3.583702 0.886602 0
M  V30 10 N 1.666909 3.717881 0.330727 0
M  V30 11 C 0.552022 3.235555 0.935853 0
M  V30 12 N -0.720493 3.388150 0.326935 0
M  V30 13 C -2.004506 2.927032 0.794608 0 CFG=1
M  V30 14 C -3.144783 3.302272 -0.149597 0
M  V30 15 O -3.014662 2.454037 -1.243964 0
M  V30 16 C -2.297646 1.342598 -0.883836 0 CFG=1
M  V30 17 C -2.101129 1.399434 0.616235 0 CFG=2
M  V30 18 O -3.262899 0.955790 1.189885 0
M  V30 19 C -3.909864 0.086551 0.318027 0
M  V30 20 C -3.154033 0.095583 -0.989146 0 CFG=2
M  V30 21 N -2.397880 -1.078308 -1.255751 0
M  V30 22 C -2.352951 -1.985586 -2.319143 0
M  V30 23 O -3.131272 -1.733433 -3.245957 0
M  V30 24 N -1.417876 -3.015720 -2.116783 0
M  V30 25 C -0.981277 -4.143873 -2.851713 0
M  V30 26 C 0.123175 -3.890065 -3.670073 0
M  V30 27 C 0.748774 -4.825860 -4.495932 0
M  V30 28 C 0.190663 -6.096359 -4.465729 0
M  V30 29 C 0.755027 -7.161742 -5.277414 0
M  V30 30 C 1.945871 -6.931966 -6.148727 0
M  V30 31 O 0.263462 -8.343093 -5.285261 0
M  V30 32 C -0.901067 -6.372402 -3.665584 0
M  V30 33 C -1.495752 -5.421654 -2.860081 0
M  V30 34 N 0.666433 2.599655 2.140469 0
M  V30 35 C 0.781358 1.305736 4.628692 0
M  V30 36 C 0.792520 0.650303 5.862244 0
M  V30 37 H 1.487759 -1.291867 9.338496 0
M  V30 38 H 0.401794 -1.365776 7.868545 0
M  V30 39 H 0.413698 0.067808 8.922569 0
M  V30 40 H 4.078168 0.787068 6.388355 0
M  V30 41 H 4.099092 1.925980 4.257894 0
M  V30 42 H 3.949602 2.861860 2.493486 0
M  V30 43 H 3.720183 3.982531 0.365652 0
M  V30 44 H -0.752184 3.907538 -0.595200 0
M  V30 45 H -2.208109 3.173135 1.840407 0
M  V30 46 H -4.085050 3.075326 0.395700 0
M  V30 47 H -3.096542 4.365624 -0.398197 0
M  V30 48 H -1.368440 1.302866 -1.464163 0
M  V30 49 H -1.170935 0.980389 0.982809 0
M  V30 50 H -3.899706 -0.918466 0.793634 0
M  V30 51 H -4.989960 0.363329 0.161324 0
M  V30 52 H -3.889929 0.254828 -1.802308 0
M  V30 53 H -1.806909 -1.116326 -0.369443 0
M  V30 54 H -0.804643 -3.150979 -1.289369 0
M  V30 55 H 0.589282 -2.904162 -3.722328 0
M  V30 56 H 1.586711 -4.581593 -5.098557 0
M  V30 57 H 1.905446 -7.636314 -7.006476 0
M  V30 58 H 2.842764 -7.117288 -5.485570 0
M  V30 59 H 1.999826 -5.922786 -6.567387 0
M  V30 60 H -1.351367 -7.361422 -3.630117 0
M  V30 61 H -2.341769 -5.561952 -2.215660 0
M  V30 62 H -0.198413 1.428453 4.166626 0
M  V30 63 H -0.106176 0.282120 6.342065 0
M  V30 END ATOM
M  V30 BEGIN BOND
M  V30 1 1 1 2
M  V30 2 1 2 3
M  V30 3 2 3 4
M  V30 4 1 4 5
M  V30 5 2 5 6
M  V30 6 1 6 7
M  V30 7 2 7 8
M  V30 8 1 8 9
M  V30 9 2 9 10
M  V30 10 1 10 11
M  V30 11 1 11 12
M  V30 12 1 12 13
M  V30 13 1 13 14
M  V30 14 1 14 15
M  V30 15 1 15 16
M  V30 16 1 16 17
M  V30 17 1 17 18
M  V30 18 1 18 19
M  V30 19 1 19 20
M  V30 20 1 20 21
M  V30 21 1 21 22
M  V30 22 2 22 23
M  V30 23 1 22 24
M  V30 24 1 24 25
M  V30 25 2 25 26
M  V30 26 1 26 27
M  V30 27 2 27 28
M  V30 28 1 28 29
M  V30 29 1 29 30
M  V30 30 2 29 31
M  V30 31 1 28 32
M  V30 32 2 32 33
M  V30 33 2 11 34
M  V30 34 1 6 35
M  V30 35 2 35 36
M  V30 36 1 36 3
M  V30 37 1 34 7
M  V30 38 1 17 13
M  V30 39 1 33 25
M  V30 40 1 20 16
M  V30 41 1 1 37
M  V30 42 1 1 38
M  V30 43 1 1 39
M  V30 44 1 4 40
M  V30 45 1 5 41
M  V30 46 1 8 42
M  V30 47 1 9 43
M  V30 48 1 12 44
M  V30 49 1 13 45 CFG=1
M  V30 50 1 14 46
M  V30 51 1 14 47
M  V30 52 1 16 48 CFG=3
M  V30 53 1 17 49 CFG=3
M  V30 54 1 19 50
M  V30 55 1 19 51
M  V30 56 1 20 52 CFG=3
M  V30 57 1 21 53
M  V30 58 1 24 54
M  V30 59 1 26 55
M  V30 60 1 27 56
M  V30 61 1 30 57
M  V30 62 1 30 58
M  V30 63 1 30 59
M  V30 64 1 32 60
M  V30 65 1 33 61
M  V30 66 1 35 62
M  V30 67 1 36 63
M  V30 END BOND
M  V30 END CTAB
M  END
>  <Dataset>  (468) 
ChEMBL_Kinases

>  <Ligand_Instance>  (468) 
nan

>  <PDB_ID>  (468) 
nan

>  <Standardized_SMILES>  (468) 
COc1ccc(-c2ccnc(N[C@H]3CO[C@H]4[C@@H]3OC[C@@H]4NC(=O)Nc3ccc(C(C)=O)cc3)n2)cc1

>  <Name>  (468) 
nan

>  <Pocket>  (468) 
nan

>  <ATP_Site>  (468) 
nan

>  <Peripheral>  (468) 
nan

>  <Num_H_Atoms_ProtBoundConf>  (468) 
nan

>  <Num_Resolved_Atoms>  (468) 
nan

>  <Num_Not_Resolved_Atoms>  (468) 
nan

$$$$
CHEMBL4284175
     RDKit          3D

  0  0  0  0  0  0  0  0  0  0999 V3000
M  V30 BEGIN CTAB
M  V30 COUNTS 42 45 0 0 0
M  V30 BEGIN ATOM
M  V30 1 O 1.943201 -8.519624 2.128913 0
M  V30 2 C 1.695697 -7.280513 1.969340 0
M  V30 3 N 1.569889 -6.329281 2.921650 0
M  V30 4 C 1.309266 -5.164581 2.303204 0
M  V30 5 C 1.097956 -3.904118 2.817894 0
M  V30 6 C 0.849744 -2.890870 1.920194 0
M  V30 7 C 0.791004 -3.015981 0.534523 0
M  V30 8 C 0.523093 -1.899098 -0.364097 0
M  V30 9 N 0.349868 -0.795909 0.279518 0
M  V30 10 N 0.077616 0.426540 -0.353005 0
M  V30 11 C -0.018728 0.529957 -1.635813 0
M  V30 12 N -0.297459 1.833324 -2.115348 0
M  V30 13 C -1.044431 2.858602 -1.442131 0
M  V30 14 C -0.500943 3.278890 -0.142744 0
M  V30 15 C 0.459347 4.289901 -0.261181 0
M  V30 16 C 1.080536 4.822584 0.849088 0
M  V30 17 C 0.788664 4.388712 2.123800 0
M  V30 18 C -0.159565 3.392010 2.227282 0
M  V30 19 C -0.537385 2.862707 3.563303 0
M  V30 20 F -0.581346 3.914567 4.459239 0
M  V30 21 F 0.317815 1.869935 4.006874 0
M  V30 22 F -1.803856 2.292419 3.512428 0
M  V30 23 C -0.787174 2.852086 1.124382 0
M  V30 24 S 0.166889 -0.803796 -2.838528 0
M  V30 25 C 0.506943 -2.270301 -1.825581 0
M  V30 26 C 1.015205 -4.314854 0.112413 0
M  V30 27 C 1.269464 -5.379976 0.944419 0
M  V30 28 N 1.510301 -6.686190 0.776538 0
M  V30 29 H 1.668624 -6.525277 3.944243 0
M  V30 30 H 1.126597 -3.725264 3.872551 0
M  V30 31 H 0.688156 -1.911857 2.362524 0
M  V30 32 H 0.085569 2.078663 -3.075646 0
M  V30 33 H -1.223489 3.731718 -2.087921 0
M  V30 34 H -2.060472 2.419264 -1.228330 0
M  V30 35 H 0.798435 4.738401 -1.198397 0
M  V30 36 H 1.834651 5.613870 0.782419 0
M  V30 37 H 1.235745 4.760510 3.034613 0
M  V30 38 H -1.536144 2.078114 1.166792 0
M  V30 39 H -0.361648 -2.957630 -1.944506 0
M  V30 40 H 1.472425 -2.732156 -2.100742 0
M  V30 41 H 0.991947 -4.524255 -0.949789 0
M  V30 42 H 1.552888 -7.193790 -0.142669 0
M  V30 END ATOM
M  V30 BEGIN BOND
M  V30 1 2 1 2
M  V30 2 1 2 3
M  V30 3 1 3 4
M  V30 4 2 4 5
M  V30 5 1 5 6
M  V30 6 2 6 7
M  V30 7 1 7 8
M  V30 8 2 8 9
M  V30 9 1 9 10
M  V30 10 2 10 11
M  V30 11 1 11 12
M  V30 12 1 12 13
M  V30 13 1 13 14
M  V30 14 2 14 15
M  V30 15 1 15 16
M  V30 16 2 16 17
M  V30 17 1 17 18
M  V30 18 1 18 19
M  V30 19 1 19 20
M  V30 20 1 19 21
M  V30 21 1 19 22
M  V30 22 2 18 23
M  V30 23 1 11 24
M  V30 24 1 24 25
M  V30 25 1 7 26
M  V30 26 2 26 27
M  V30 27 1 27 28
M  V30 28 1 28 2
M  V30 29 1 27 4
M  V30 30 1 25 8
M  V30 31 1 23 14
M  V30 32 1 3 29
M  V30 33 1 5 30
M  V30 34 1 6 31
M  V30 35 1 12 32
M  V30 36 1 13 33
M  V30 37 1 13 34
M  V30 38 1 15 35
M  V30 39 1 16 36
M  V30 40 1 17 37
M  V30 41 1 23 38
M  V30 42 1 25 39
M  V30 43 1 25 40
M  V30 44 1 26 41
M  V30 45 1 28 42
M  V30 END BOND
M  V30 END CTAB
M  END
>  <Dataset>  (469) 
ChEMBL_Kinases

>  <Ligand_Instance>  (469) 
nan

>  <PDB_ID>  (469) 
nan

>  <Standardized_SMILES>  (469) 
O=c1[nH]c2ccc(C3=NN=C(NCc4cccc(C(F)(F)F)c4)SC3)cc2[nH]1

>  <Name>  (469) 
nan

>  <Pocket>  (469) 
nan

>  <ATP_Site>  (469) 
nan

>  <Peripheral>  (469) 
nan

>  <Num_H_Atoms_ProtBoundConf>  (469) 
nan

>  <Num_Resolved_Atoms>  (469) 
nan

>  <Num_Not_Resolved_Atoms>  (469) 
nan

$$$$
CHEMBL4284170
     RDKit          3D

  0  0  0  0  0  0  0  0  0  0999 V3000
M  V30 BEGIN CTAB
M  V30 COUNTS 43 46 0 0 0
M  V30 BEGIN ATOM
M  V30 1 C 2.313858 -6.355719 0.907640 0
M  V30 2 C 2.669480 -5.004623 0.395049 0
M  V30 3 O 3.525719 -4.802268 -0.518289 0
M  V30 4 N 2.029826 -3.855130 0.940551 0
M  V30 5 C 2.379586 -2.569704 0.440848 0
M  V30 6 C 1.814985 -1.400031 0.907211 0
M  V30 7 C 2.132531 -0.140546 0.443422 0
M  V30 8 C 1.465111 0.996571 1.020723 0
M  V30 9 N 2.026222 2.012980 1.711035 0
M  V30 10 C 1.031550 2.855700 2.063751 0
M  V30 11 C 0.982701 4.049217 2.767974 0
M  V30 12 C -0.182213 4.748158 3.009455 0
M  V30 13 C -1.358986 4.200791 2.506110 0
M  V30 14 N -1.336798 3.038798 1.816679 0
M  V30 15 C -0.179404 2.383919 1.600333 0
M  V30 16 C 0.114226 1.201208 0.939474 0
M  V30 17 C -0.883655 0.350684 0.282428 0
M  V30 18 C -0.927863 0.064446 -1.074928 0
M  V30 19 C -1.931382 -0.755634 -1.546907 0
M  V30 20 C -2.874600 -1.278686 -0.666523 0
M  V30 21 C -2.789652 -0.965864 0.674103 0
M  V30 22 C -3.785176 -1.506434 1.664670 0
M  V30 23 F -4.473414 -0.445306 2.215540 0
M  V30 24 F -3.136808 -2.227888 2.651619 0
M  V30 25 N -1.805805 -0.160127 1.146062 0
M  V30 26 C 3.086592 -0.027360 -0.564269 0
M  V30 27 C 3.635538 -1.210956 -1.012818 0
M  V30 28 N 3.304723 -2.426619 -0.539772 0
M  V30 29 H 2.594150 -6.532526 1.945083 0
M  V30 30 H 2.878399 -7.090184 0.262354 0
M  V30 31 H 1.239863 -6.530572 0.689242 0
M  V30 32 H 1.309514 -3.893792 1.695078 0
M  V30 33 H 1.077274 -1.513545 1.689055 0
M  V30 34 H 3.047974 2.145228 1.943571 0
M  V30 35 H 1.911276 4.466424 3.156363 0
M  V30 36 H -0.144403 5.676738 3.568772 0
M  V30 37 H -2.251970 4.784018 2.719518 0
M  V30 38 H -0.146802 0.519677 -1.686064 0
M  V30 39 H -1.947398 -0.968807 -2.623831 0
M  V30 40 H -3.659210 -1.921918 -1.046263 0
M  V30 41 H -4.516026 -2.137634 1.143576 0
M  V30 42 H 3.355716 0.947498 -0.947628 0
M  V30 43 H 4.379718 -1.099566 -1.801207 0
M  V30 END ATOM
M  V30 BEGIN BOND
M  V30 1 1 1 2
M  V30 2 2 2 3
M  V30 3 1 2 4
M  V30 4 1 4 5
M  V30 5 2 5 6
M  V30 6 1 6 7
M  V30 7 1 7 8
M  V30 8 1 8 9
M  V30 9 1 9 10
M  V30 10 2 10 11
M  V30 11 1 11 12
M  V30 12 2 12 13
M  V30 13 1 13 14
M  V30 14 2 14 15
M  V30 15 1 15 16
M  V30 16 1 16 17
M  V30 17 2 17 18
M  V30 18 1 18 19
M  V30 19 2 19 20
M  V30 20 1 20 21
M  V30 21 1 21 22
M  V30 22 1 22 23
M  V30 23 1 22 24
M  V30 24 2 21 25
M  V30 25 2 7 26
M  V30 26 1 26 27
M  V30 27 2 27 28
M  V30 28 1 28 5
M  V30 29 2 16 8
M  V30 30 1 25 17
M  V30 31 1 15 10
M  V30 32 1 1 29
M  V30 33 1 1 30
M  V30 34 1 1 31
M  V30 35 1 4 32
M  V30 36 1 6 33
M  V30 37 1 9 34
M  V30 38 1 11 35
M  V30 39 1 12 36
M  V30 40 1 13 37
M  V30 41 1 18 38
M  V30 42 1 19 39
M  V30 43 1 20 40
M  V30 44 1 22 41
M  V30 45 1 26 42
M  V30 46 1 27 43
M  V30 END BOND
M  V30 END CTAB
M  END
>  <Dataset>  (470) 
ChEMBL_Kinases

>  <Ligand_Instance>  (470) 
nan

>  <PDB_ID>  (470) 
nan

>  <Standardized_SMILES>  (470) 
CC(=O)Nc1cc(-c2[nH]c3cccnc3c2-c2cccc(C(F)F)n2)ccn1

>  <Name>  (470) 
nan

>  <Pocket>  (470) 
nan

>  <ATP_Site>  (470) 
nan

>  <Peripheral>  (470) 
nan

>  <Num_H_Atoms_ProtBoundConf>  (470) 
nan

>  <Num_Resolved_Atoms>  (470) 
nan

>  <Num_Not_Resolved_Atoms>  (470) 
nan

$$$$
CHEMBL4284710
     RDKit          3D

  0  0  0  0  0  0  0  0  0  0999 V3000
M  V30 BEGIN CTAB
M  V30 COUNTS 28 29 0 0 0
M  V30 BEGIN ATOM
M  V30 1 O -1.345483 -1.355427 0.130658 0
M  V30 2 C -1.399805 -1.788239 1.306786 0
M  V30 3 N -0.264913 -1.370498 2.040165 0
M  V30 4 C 0.676490 -0.565047 1.301972 0
M  V30 5 C 1.687917 -1.207431 0.629719 0
M  V30 6 C 2.599660 -0.449508 -0.083437 0
M  V30 7 C 3.743960 -0.999023 -0.858213 0
M  V30 8 F 3.689437 -2.385736 -0.788597 0
M  V30 9 F 3.589900 -0.677606 -2.213301 0
M  V30 10 F 4.959501 -0.494857 -0.449349 0
M  V30 11 C 2.496327 0.933247 -0.120320 0
M  V30 12 C 1.454018 1.554849 0.575698 0
M  V30 13 C 1.235402 3.018461 0.614831 0
M  V30 14 F -0.047954 3.323869 0.142749 0
M  V30 15 F 2.108186 3.687881 -0.232695 0
M  V30 16 F 1.366857 3.469831 1.911765 0
M  V30 17 C 0.522463 0.807440 1.302187 0
M  V30 18 C -2.373775 -2.602880 2.015719 0
M  V30 19 N -2.313386 -3.006813 3.305090 0
M  V30 20 S -3.878974 -3.983635 3.468589 0
M  V30 21 N -4.454513 -3.797903 1.930174 0
M  V30 22 C -3.413975 -2.948515 1.234237 0
M  V30 23 O -3.844381 -2.759795 -0.062415 0
M  V30 24 H -0.097838 -1.619869 3.060249 0
M  V30 25 H 1.838448 -2.268757 0.607068 0
M  V30 26 H 3.176385 1.593055 -0.659827 0
M  V30 27 H -0.290698 1.270946 1.846908 0
M  V30 28 H -3.213653 -2.631025 -0.853801 0
M  V30 END ATOM
M  V30 BEGIN BOND
M  V30 1 2 1 2
M  V30 2 1 2 3
M  V30 3 1 3 4
M  V30 4 2 4 5
M  V30 5 1 5 6
M  V30 6 1 6 7
M  V30 7 1 7 8
M  V30 8 1 7 9
M  V30 9 1 7 10
M  V30 10 2 6 11
M  V30 11 1 11 12
M  V30 12 1 12 13
M  V30 13 1 13 14
M  V30 14 1 13 15
M  V30 15 1 13 16
M  V30 16 2 12 17
M  V30 17 1 2 18
M  V30 18 2 18 19
M  V30 19 1 19 20
M  V30 20 1 20 21
M  V30 21 2 21 22
M  V30 22 1 22 23
M  V30 23 1 17 4
M  V30 24 1 22 18
M  V30 25 1 3 24
M  V30 26 1 5 25
M  V30 27 1 11 26
M  V30 28 1 17 27
M  V30 29 1 23 28
M  V30 END BOND
M  V30 END CTAB
M  END
>  <Dataset>  (471) 
ChEMBL_Kinases

>  <Ligand_Instance>  (471) 
nan

>  <PDB_ID>  (471) 
nan

>  <Standardized_SMILES>  (471) 
O=C(Nc1cc(C(F)(F)F)cc(C(F)(F)F)c1)c1nsnc1O

>  <Name>  (471) 
nan

>  <Pocket>  (471) 
nan

>  <ATP_Site>  (471) 
nan

>  <Peripheral>  (471) 
nan

>  <Num_H_Atoms_ProtBoundConf>  (471) 
nan

>  <Num_Resolved_Atoms>  (471) 
nan

>  <Num_Not_Resolved_Atoms>  (471) 
nan

$$$$
CHEMBL4290096
     RDKit          3D

  0  0  0  0  0  0  0  0  0  0999 V3000
M  V30 BEGIN CTAB
M  V30 COUNTS 43 46 0 0 0
M  V30 BEGIN ATOM
M  V30 1 O 2.339756 -1.930537 3.362174 0
M  V30 2 C 1.359028 -2.743838 3.257694 0
M  V30 3 N 1.070780 -3.297870 1.979350 0
M  V30 4 C 1.809457 -3.004050 0.796887 0
M  V30 5 C 2.925453 -3.693342 0.322957 0
M  V30 6 N 3.521715 -3.298363 -0.812724 0
M  V30 7 C 3.085266 -2.241614 -1.537718 0
M  V30 8 C 1.990530 -1.564312 -1.074097 0
M  V30 9 C 1.501123 -0.383673 -1.880703 0
M  V30 10 C 0.460560 0.440741 -1.650206 0
M  V30 11 C 0.193843 1.441959 -2.502195 0
M  V30 12 C -0.926396 2.388051 -2.321909 0
M  V30 13 C -1.320231 2.719971 -1.031329 0
M  V30 14 C -2.369120 3.602978 -0.868977 0
M  V30 15 C -2.994453 4.128960 -1.986550 0
M  V30 16 N -2.572890 3.773787 -3.204974 0
M  V30 17 C -1.567871 2.927772 -3.399807 0
M  V30 18 C 1.082427 1.537574 -3.621628 0
M  V30 19 S 2.266994 0.092782 -3.300406 0
M  V30 20 C 1.337477 -1.922039 0.083316 0
M  V30 21 C 0.566835 -3.074292 4.465649 0
M  V30 22 C 1.143574 -2.309489 5.639741 0
M  V30 23 C 0.540592 -0.940665 5.454144 0
M  V30 24 N -0.536095 -1.060674 4.522386 0
M  V30 25 C -0.810741 -2.463787 4.347488 0
M  V30 26 H 0.242798 -3.962290 1.978844 0
M  V30 27 H 3.216439 -4.518499 0.945915 0
M  V30 28 H 3.634144 -1.991904 -2.452208 0
M  V30 29 H -0.123456 0.244422 -0.760499 0
M  V30 30 H -0.799780 2.282272 -0.195215 0
M  V30 31 H -2.618361 3.813105 0.161856 0
M  V30 32 H -3.822494 4.825530 -1.784208 0
M  V30 33 H -1.242583 2.653703 -4.407745 0
M  V30 34 H 0.876823 2.447797 -4.438273 0
M  V30 35 H 0.474750 -1.337732 0.390747 0
M  V30 36 H 0.530122 -4.162808 4.662377 0
M  V30 37 H 2.259189 -2.222017 5.589145 0
M  V30 38 H 0.808949 -2.752053 6.595735 0
M  V30 39 H 0.144708 -0.501466 6.395958 0
M  V30 40 H 1.332800 -0.229502 5.080548 0
M  V30 41 H -0.345970 -0.571610 3.625410 0
M  V30 42 H -1.487513 -2.853070 5.136017 0
M  V30 43 H -1.203209 -2.669288 3.325825 0
M  V30 END ATOM
M  V30 BEGIN BOND
M  V30 1 2 1 2
M  V30 2 1 2 3
M  V30 3 1 3 4
M  V30 4 2 4 5
M  V30 5 1 5 6
M  V30 6 2 6 7
M  V30 7 1 7 8
M  V30 8 1 8 9
M  V30 9 2 9 10
M  V30 10 1 10 11
M  V30 11 1 11 12
M  V30 12 2 12 13
M  V30 13 1 13 14
M  V30 14 2 14 15
M  V30 15 1 15 16
M  V30 16 2 16 17
M  V30 17 2 11 18
M  V30 18 1 18 19
M  V30 19 2 8 20
M  V30 20 1 2 21
M  V30 21 1 21 22
M  V30 22 1 22 23
M  V30 23 1 23 24
M  V30 24 1 24 25
M  V30 25 1 20 4
M  V30 26 1 25 21
M  V30 27 1 19 9
M  V30 28 1 17 12
M  V30 29 1 3 26
M  V30 30 1 5 27
M  V30 31 1 7 28
M  V30 32 1 10 29
M  V30 33 1 13 30
M  V30 34 1 14 31
M  V30 35 1 15 32
M  V30 36 1 17 33
M  V30 37 1 18 34
M  V30 38 1 20 35
M  V30 39 1 21 36
M  V30 40 1 22 37
M  V30 41 1 22 38
M  V30 42 1 23 39
M  V30 43 1 23 40
M  V30 44 1 24 41
M  V30 45 1 25 42
M  V30 46 1 25 43
M  V30 END BOND
M  V30 END CTAB
M  END
>  <Dataset>  (472) 
ChEMBL_Kinases

>  <Ligand_Instance>  (472) 
nan

>  <PDB_ID>  (472) 
nan

>  <Standardized_SMILES>  (472) 
O=C(Nc1cncc(-c2cc(-c3cccnc3)cs2)c1)C1CCNC1

>  <Name>  (472) 
nan

>  <Pocket>  (472) 
nan

>  <ATP_Site>  (472) 
nan

>  <Peripheral>  (472) 
nan

>  <Num_H_Atoms_ProtBoundConf>  (472) 
nan

>  <Num_Resolved_Atoms>  (472) 
nan

>  <Num_Not_Resolved_Atoms>  (472) 
nan

$$$$
CHEMBL4290039
     RDKit          3D

  0  0  0  0  0  0  0  0  0  0999 V3000
M  V30 BEGIN CTAB
M  V30 COUNTS 81 86 0 0 0
M  V30 BEGIN ATOM
M  V30 1 C -3.836372 -1.741447 3.169754 0
M  V30 2 O -2.443624 -1.741867 3.117224 0
M  V30 3 C -1.632909 -0.618458 3.219096 0
M  V30 4 N -1.900458 0.655488 3.379139 0
M  V30 5 C -1.192276 1.560429 3.459721 0
M  V30 6 C -1.381462 3.050264 3.648157 0
M  V30 7 C -2.651263 3.541895 3.717860 0
M  V30 8 C -2.816867 4.880929 3.896390 0
M  V30 9 N -1.715772 5.652522 3.995915 0
M  V30 10 C -0.456966 5.195478 3.931422 0
M  V30 11 N 0.646209 6.114999 4.056261 0
M  V30 12 C 0.304200 7.480278 4.260307 0
M  V30 13 O -0.890551 7.871180 4.328658 0
M  V30 14 C 1.374597 8.474768 4.397562 0
M  V30 15 C 2.499569 8.329176 3.382380 0
M  V30 16 C 2.726803 8.145405 4.832160 0
M  V30 17 C -0.256551 3.840014 3.750014 0
M  V30 18 S 0.456780 0.751680 3.303441 0
M  V30 19 C -0.338285 -0.948350 3.132208 0
M  V30 20 C 0.639912 -2.058312 2.957994 0
M  V30 21 O 1.852589 -1.870305 2.927537 0
M  V30 22 N 0.128955 -3.351090 2.826997 0
M  V30 23 C 0.892943 -4.564334 2.643051 0
M  V30 24 C 0.071413 -5.785184 2.557841 0
M  V30 25 C -0.985711 -5.933810 1.563615 0
M  V30 26 C -0.742901 -5.898942 0.115234 0
M  V30 27 C -0.189564 -4.636327 -0.466519 0
M  V30 28 C -0.091726 -4.830832 -1.981787 0
M  V30 29 N 0.457098 -3.647358 -2.601078 0
M  V30 30 C 0.775050 -3.050270 -3.834415 0
M  V30 31 C -0.166145 -2.249861 -4.477881 0
M  V30 32 C 0.114126 -1.649597 -5.693330 0
M  V30 33 N 1.324218 -1.871059 -6.223027 0
M  V30 34 C 2.272535 -2.624966 -5.664004 0
M  V30 35 C 3.477846 -2.766014 -6.323962 0
M  V30 36 C 4.413781 -3.562672 -5.683009 0
M  V30 37 C 4.198139 -4.196163 -4.458294 0
M  V30 38 C 2.976118 -4.013649 -3.855475 0
M  V30 39 C 1.990711 -3.220418 -4.454342 0
M  V30 40 C -1.008913 -0.821858 -6.219061 0
M  V30 41 C -1.360883 0.187234 -5.139557 0
M  V30 42 C -1.607688 -0.458486 -3.817081 0
M  V30 43 C -1.515667 -1.988953 -3.913109 0
M  V30 44 H -4.156092 -1.704685 4.221783 0
M  V30 45 H -4.287386 -0.965623 2.516841 0
M  V30 46 H -4.174250 -2.730701 2.751212 0
M  V30 47 H -3.459586 2.842966 3.626265 0
M  V30 48 H -3.824353 5.256728 3.946205 0
M  V30 49 H 1.616575 5.737897 3.991070 0
M  V30 50 H 0.995336 9.517150 4.558197 0
M  V30 51 H 2.547756 7.447518 2.727060 0
M  V30 52 H 2.845171 9.253795 2.882533 0
M  V30 53 H 3.339294 8.957911 5.301269 0
M  V30 54 H 2.922259 7.175389 5.293490 0
M  V30 55 H 0.744704 3.456105 3.696300 0
M  V30 56 H -0.921548 -3.489969 2.863092 0
M  V30 57 H 1.438339 -4.661029 3.665489 0
M  V30 58 H 1.709729 -4.538634 1.943639 0
M  V30 59 H 0.776887 -6.658641 2.469070 0
M  V30 60 H -0.421718 -5.916170 3.582302 0
M  V30 61 H -1.887428 -5.274731 1.793090 0
M  V30 62 H -1.453027 -6.969840 1.760616 0
M  V30 63 H -0.060685 -6.744719 -0.177442 0
M  V30 64 H -1.712970 -6.082291 -0.456150 0
M  V30 65 H 0.794437 -4.444509 -0.063229 0
M  V30 66 H -0.833782 -3.749307 -0.260685 0
M  V30 67 H -1.114693 -4.946730 -2.356906 0
M  V30 68 H 0.530287 -5.701866 -2.199557 0
M  V30 69 H 0.776159 -2.855203 -1.985003 0
M  V30 70 H 3.708868 -2.304107 -7.273465 0
M  V30 71 H 5.372577 -3.694038 -6.182742 0
M  V30 72 H 4.954868 -4.808634 -3.996711 0
M  V30 73 H 2.713426 -4.462622 -2.908360 0
M  V30 74 H -0.709068 -0.352185 -7.153769 0
M  V30 75 H -1.891351 -1.467042 -6.378014 0
M  V30 76 H -0.461339 0.846062 -5.064831 0
M  V30 77 H -2.177074 0.844433 -5.475509 0
M  V30 78 H -0.877951 -0.073210 -3.076421 0
M  V30 79 H -2.598327 -0.131175 -3.438078 0
M  V30 80 H -1.670714 -2.372203 -2.903360 0
M  V30 81 H -2.343887 -2.294179 -4.572124 0
M  V30 END ATOM
M  V30 BEGIN BOND
M  V30 1 1 1 2
M  V30 2 1 2 3
M  V30 3 1 3 4
M  V30 4 2 4 5
M  V30 5 1 5 6
M  V30 6 2 6 7
M  V30 7 1 7 8
M  V30 8 2 8 9
M  V30 9 1 9 10
M  V30 10 1 10 11
M  V30 11 1 11 12
M  V30 12 2 12 13
M  V30 13 1 12 14
M  V30 14 1 14 15
M  V30 15 1 15 16
M  V30 16 2 10 17
M  V30 17 1 5 18
M  V30 18 1 18 19
M  V30 19 1 19 20
M  V30 20 2 20 21
M  V30 21 1 20 22
M  V30 22 1 22 23
M  V30 23 1 23 24
M  V30 24 1 24 25
M  V30 25 1 25 26
M  V30 26 1 26 27
M  V30 27 1 27 28
M  V30 28 1 28 29
M  V30 29 1 29 30
M  V30 30 2 30 31
M  V30 31 1 31 32
M  V30 32 2 32 33
M  V30 33 1 33 34
M  V30 34 2 34 35
M  V30 35 1 35 36
M  V30 36 2 36 37
M  V30 37 1 37 38
M  V30 38 2 38 39
M  V30 39 1 32 40
M  V30 40 1 40 41
M  V30 41 1 41 42
M  V30 42 1 42 43
M  V30 43 2 19 3
M  V30 44 1 39 30
M  V30 45 1 17 6
M  V30 46 1 43 31
M  V30 47 1 16 14
M  V30 48 1 39 34
M  V30 49 1 1 44
M  V30 50 1 1 45
M  V30 51 1 1 46
M  V30 52 1 7 47
M  V30 53 1 8 48
M  V30 54 1 11 49
M  V30 55 1 14 50
M  V30 56 1 15 51
M  V30 57 1 15 52
M  V30 58 1 16 53
M  V30 59 1 16 54
M  V30 60 1 17 55
M  V30 61 1 22 56
M  V30 62 1 23 57
M  V30 63 1 23 58
M  V30 64 1 24 59
M  V30 65 1 24 60
M  V30 66 1 25 61
M  V30 67 1 25 62
M  V30 68 1 26 63
M  V30 69 1 26 64
M  V30 70 1 27 65
M  V30 71 1 27 66
M  V30 72 1 28 67
M  V30 73 1 28 68
M  V30 74 1 29 69
M  V30 75 1 35 70
M  V30 76 1 36 71
M  V30 77 1 37 72
M  V30 78 1 38 73
M  V30 79 1 40 74
M  V30 80 1 40 75
M  V30 81 1 41 76
M  V30 82 1 41 77
M  V30 83 1 42 78
M  V30 84 1 42 79
M  V30 85 1 43 80
M  V30 86 1 43 81
M  V30 END BOND
M  V30 END CTAB
M  END
>  <Dataset>  (473) 
ChEMBL_Kinases

>  <Ligand_Instance>  (473) 
nan

>  <PDB_ID>  (473) 
nan

>  <Standardized_SMILES>  (473) 
COc1nc(-c2ccnc(NC(=O)C3CC3)c2)sc1C(=O)NCCCCCCNc1c2c(nc3ccccc13)CCCC2

>  <Name>  (473) 
nan

>  <Pocket>  (473) 
nan

>  <ATP_Site>  (473) 
nan

>  <Peripheral>  (473) 
nan

>  <Num_H_Atoms_ProtBoundConf>  (473) 
nan

>  <Num_Resolved_Atoms>  (473) 
nan

>  <Num_Not_Resolved_Atoms>  (473) 
nan

$$$$
CHEMBL4290024
     RDKit          3D

  0  0  0  0  0  0  0  0  0  0999 V3000
M  V30 BEGIN CTAB
M  V30 COUNTS 41 44 0 0 0
M  V30 BEGIN ATOM
M  V30 1 N -1.464551 -6.469754 2.507562 0
M  V30 2 C -0.885666 -5.308615 1.958102 0
M  V30 3 N -1.347418 -4.160349 2.509392 0
M  V30 4 C -0.863167 -2.977433 2.061293 0
M  V30 5 O -1.283240 -1.828484 2.568506 0
M  V30 6 C -0.796920 -0.694376 2.115559 0
M  V30 7 C -1.244838 0.494139 2.654395 0
M  V30 8 C -0.763738 1.707890 2.211321 0
M  V30 9 C 0.182551 1.794440 1.214469 0
M  V30 10 C 0.699379 3.076259 0.737326 0
M  V30 11 C 0.230119 3.245749 -0.713887 0
M  V30 12 C 0.538995 4.677166 -1.088932 0
M  V30 13 O 1.841726 5.037906 -0.822974 0
M  V30 14 C 2.671227 3.956294 -0.532280 0
M  V30 15 C 2.183417 3.225663 0.721589 0
M  V30 16 C 0.648430 0.600975 0.656345 0
M  V30 17 C 0.158852 -0.608102 1.108647 0
M  V30 18 C 0.600482 -1.815984 0.575406 0
M  V30 19 O 1.462082 -1.762889 -0.333641 0
M  V30 20 C 0.097123 -3.014896 1.042856 0
M  V30 21 C 0.562504 -4.180863 0.486760 0
M  V30 22 C 0.059124 -5.375859 0.954447 0
M  V30 23 C 0.503574 -6.650782 0.414583 0
M  V30 24 O 1.372759 -6.700689 -0.508139 0
M  V30 25 O -0.042303 -7.819366 0.928738 0
M  V30 26 H -1.550756 -6.575479 3.561483 0
M  V30 27 H -1.906395 -7.394762 2.366366 0
M  V30 28 H -1.996381 0.499440 3.450124 0
M  V30 29 H -1.139522 2.613801 2.658413 0
M  V30 30 H 0.208218 3.894740 1.301540 0
M  V30 31 H 0.822229 2.616224 -1.410052 0
M  V30 32 H -0.858699 3.099694 -0.777158 0
M  V30 33 H 0.408939 4.753172 -2.208083 0
M  V30 34 H -0.205952 5.389679 -0.662506 0
M  V30 35 H 2.821818 3.267680 -1.384431 0
M  V30 36 H 3.665935 4.376468 -0.276300 0
M  V30 37 H 2.752331 2.299726 0.793514 0
M  V30 38 H 2.477560 3.871133 1.577050 0
M  V30 39 H 1.397230 0.645103 -0.133788 0
M  V30 40 H 1.313770 -4.149658 -0.306704 0
M  V30 41 H 0.222006 -8.751048 0.578172 0
M  V30 END ATOM
M  V30 BEGIN BOND
M  V30 1 1 1 2
M  V30 2 2 2 3
M  V30 3 1 3 4
M  V30 4 1 4 5
M  V30 5 1 5 6
M  V30 6 2 6 7
M  V30 7 1 7 8
M  V30 8 2 8 9
M  V30 9 1 9 10
M  V30 10 1 10 11
M  V30 11 1 11 12
M  V30 12 1 12 13
M  V30 13 1 13 14
M  V30 14 1 14 15
M  V30 15 1 9 16
M  V30 16 2 16 17
M  V30 17 1 17 18
M  V30 18 2 18 19
M  V30 19 1 18 20
M  V30 20 1 20 21
M  V30 21 2 21 22
M  V30 22 1 22 23
M  V30 23 2 23 24
M  V30 24 1 23 25
M  V30 25 1 22 2
M  V30 26 2 20 4
M  V30 27 1 17 6
M  V30 28 1 15 10
M  V30 29 1 1 26
M  V30 30 1 1 27
M  V30 31 1 7 28
M  V30 32 1 8 29
M  V30 33 1 10 30
M  V30 34 1 11 31
M  V30 35 1 11 32
M  V30 36 1 12 33
M  V30 37 1 12 34
M  V30 38 1 14 35
M  V30 39 1 14 36
M  V30 40 1 15 37
M  V30 41 1 15 38
M  V30 42 1 16 39
M  V30 43 1 21 40
M  V30 44 1 25 41
M  V30 END BOND
M  V30 END CTAB
M  END
>  <Dataset>  (474) 
ChEMBL_Kinases

>  <Ligand_Instance>  (474) 
nan

>  <PDB_ID>  (474) 
nan

>  <Standardized_SMILES>  (474) 
Nc1nc2oc3ccc(C4CCOCC4)cc3c(=O)c2cc1C(=O)O

>  <Name>  (474) 
nan

>  <Pocket>  (474) 
nan

>  <ATP_Site>  (474) 
nan

>  <Peripheral>  (474) 
nan

>  <Num_H_Atoms_ProtBoundConf>  (474) 
nan

>  <Num_Resolved_Atoms>  (474) 
nan

>  <Num_Not_Resolved_Atoms>  (474) 
nan

$$$$
CHEMBL4289970
     RDKit          3D

  0  0  0  0  0  0  0  0  0  0999 V3000
M  V30 BEGIN CTAB
M  V30 COUNTS 40 43 0 0 0
M  V30 BEGIN ATOM
M  V30 1 N -3.105530 -4.004435 5.690676 0
M  V30 2 C -2.558400 -4.130413 4.676434 0
M  V30 3 C -1.869218 -4.265495 3.423364 0
M  V30 4 C -0.907296 -5.223337 3.200087 0
M  V30 5 C -0.299964 -5.273957 1.963727 0
M  V30 6 C -0.617519 -4.393497 0.922313 0
M  V30 7 C 0.110443 -4.568946 -0.358535 0
M  V30 8 N 1.340834 -3.843491 -0.361914 0
M  V30 9 C 1.515432 -2.451417 -0.221753 0
M  V30 10 N 0.514392 -1.722016 -0.523791 0
M  V30 11 N 0.556510 -0.308335 -0.427927 0
M  V30 12 C 1.588137 0.335655 -0.037102 0
M  V30 13 C 1.357835 1.796784 -0.030305 0
M  V30 14 C 2.331216 2.710420 0.359360 0
M  V30 15 C 2.143524 4.074735 0.378865 0
M  V30 16 C 0.920590 4.575885 -0.008949 0
M  V30 17 N 0.417388 5.825675 -0.102477 0
M  V30 18 C -0.854298 5.765930 -0.540374 0
M  V30 19 O -1.632354 6.759996 -0.744227 0
M  V30 20 N -1.187909 4.464709 -0.735710 0
M  V30 21 C -0.100055 3.743272 -0.409581 0
M  V30 22 C 0.162369 2.391996 -0.403042 0
M  V30 23 C 2.972911 -0.050407 0.415228 0
M  V30 24 S 3.095152 -1.856393 0.357062 0
M  V30 25 C -1.587823 -3.463074 1.217373 0
M  V30 26 C -2.225793 -3.366056 2.429199 0
M  V30 27 H -0.647646 -5.911791 3.989307 0
M  V30 28 H 0.447386 -6.047923 1.849834 0
M  V30 29 H 0.234447 -5.648013 -0.586951 0
M  V30 30 H -0.580077 -4.200491 -1.173878 0
M  V30 31 H 2.214544 -4.426316 -0.483058 0
M  V30 32 H 3.299483 2.331097 0.667881 0
M  V30 33 H 2.939334 4.716082 0.690989 0
M  V30 34 H 0.930764 6.723002 0.128585 0
M  V30 35 H -2.119382 4.124020 -1.074865 0
M  V30 36 H -0.642471 1.731608 -0.720043 0
M  V30 37 H 3.758348 0.404598 -0.211141 0
M  V30 38 H 3.120242 0.222311 1.477391 0
M  V30 39 H -1.852624 -2.782847 0.439211 0
M  V30 40 H -2.979442 -2.607569 2.584566 0
M  V30 END ATOM
M  V30 BEGIN BOND
M  V30 1 3 1 2
M  V30 2 1 2 3
M  V30 3 2 3 4
M  V30 4 1 4 5
M  V30 5 2 5 6
M  V30 6 1 6 7
M  V30 7 1 7 8
M  V30 8 1 8 9
M  V30 9 2 9 10
M  V30 10 1 10 11
M  V30 11 2 11 12
M  V30 12 1 12 13
M  V30 13 2 13 14
M  V30 14 1 14 15
M  V30 15 2 15 16
M  V30 16 1 16 17
M  V30 17 1 17 18
M  V30 18 2 18 19
M  V30 19 1 18 20
M  V30 20 1 20 21
M  V30 21 2 21 22
M  V30 22 1 12 23
M  V30 23 1 23 24
M  V30 24 1 6 25
M  V30 25 2 25 26
M  V30 26 1 26 3
M  V30 27 1 24 9
M  V30 28 1 22 13
M  V30 29 1 21 16
M  V30 30 1 4 27
M  V30 31 1 5 28
M  V30 32 1 7 29
M  V30 33 1 7 30
M  V30 34 1 8 31
M  V30 35 1 14 32
M  V30 36 1 15 33
M  V30 37 1 17 34
M  V30 38 1 20 35
M  V30 39 1 22 36
M  V30 40 1 23 37
M  V30 41 1 23 38
M  V30 42 1 25 39
M  V30 43 1 26 40
M  V30 END BOND
M  V30 END CTAB
M  END
>  <Dataset>  (475) 
ChEMBL_Kinases

>  <Ligand_Instance>  (475) 
nan

>  <PDB_ID>  (475) 
nan

>  <Standardized_SMILES>  (475) 
N#Cc1ccc(CNC2=NN=C(c3ccc4[nH]c(=O)[nH]c4c3)CS2)cc1

>  <Name>  (475) 
nan

>  <Pocket>  (475) 
nan

>  <ATP_Site>  (475) 
nan

>  <Peripheral>  (475) 
nan

>  <Num_H_Atoms_ProtBoundConf>  (475) 
nan

>  <Num_Resolved_Atoms>  (475) 
nan

>  <Num_Not_Resolved_Atoms>  (475) 
nan

$$$$
CHEMBL4757202
     RDKit          3D

  0  0  0  0  0  0  0  0  0  0999 V3000
M  V30 BEGIN CTAB
M  V30 COUNTS 44 48 0 0 0
M  V30 BEGIN ATOM
M  V30 1 C 1.578591 -5.586000 0.396290 0
M  V30 2 C 2.304163 -4.606074 -0.434359 0
M  V30 3 O 3.496851 -4.870006 -0.795654 0
M  V30 4 N 1.616927 -3.392369 -0.794794 0
M  V30 5 C 0.291193 -2.878198 -0.511491 0
M  V30 6 C 0.564984 -1.451573 -0.137869 0 CFG=2
M  V30 7 C 1.800967 -1.108406 -0.944646 0 CFG=2
M  V30 8 C 2.242112 -2.376621 -1.602279 0
M  V30 9 C 1.798629 -1.086956 0.593542 0 CFG=1
M  V30 10 N 1.882660 0.201078 1.219236 0
M  V30 11 C 3.080805 0.700058 1.616117 0
M  V30 12 C 4.437191 0.068251 1.494429 0
M  V30 13 N 2.840327 1.912084 2.162538 0
M  V30 14 C 1.525159 2.183278 2.117618 0
M  V30 15 C 0.702271 3.221172 2.503745 0
M  V30 16 C -0.656392 3.134016 2.282058 0
M  V30 17 C -1.245799 2.041488 1.682656 0
M  V30 18 C -2.674071 1.896299 1.424041 0
M  V30 19 C -3.084159 0.729706 0.813051 0
M  V30 20 C -4.436195 0.506821 0.527473 0
M  V30 21 N -5.352770 1.458066 0.859845 0
M  V30 22 C -4.919708 2.580199 1.452668 0
M  V30 23 C -3.606236 2.856087 1.758424 0
M  V30 24 N -0.428815 1.039028 1.312655 0
M  V30 25 C 0.919549 1.098178 1.519613 0
M  V30 26 H 0.578680 -5.786019 -0.074669 0
M  V30 27 H 1.337056 -5.069617 1.364948 0
M  V30 28 H 2.166306 -6.492602 0.542534 0
M  V30 29 H -0.344393 -2.862549 -1.431545 0
M  V30 30 H -0.213370 -3.463230 0.278404 0
M  V30 31 H -0.272173 -0.761185 -0.276196 0
M  V30 32 H 1.836013 -0.152830 -1.491543 0
M  V30 33 H 3.355666 -2.448955 -1.593358 0
M  V30 34 H 1.872121 -2.412699 -2.635599 0
M  V30 35 H 2.377271 -1.905127 1.074937 0
M  V30 36 H 4.931064 0.335558 0.560534 0
M  V30 37 H 4.388450 -1.020067 1.607878 0
M  V30 38 H 5.067449 0.420753 2.359326 0
M  V30 39 H 1.142582 4.089631 2.976482 0
M  V30 40 H -1.294823 3.949536 2.586538 0
M  V30 41 H -2.462386 -0.096188 0.501416 0
M  V30 42 H -4.806095 -0.390708 0.050182 0
M  V30 43 H -5.648065 3.358317 1.727391 0
M  V30 44 H -3.291702 3.767554 2.235019 0
M  V30 END ATOM
M  V30 BEGIN BOND
M  V30 1 1 1 2
M  V30 2 2 2 3
M  V30 3 1 2 4
M  V30 4 1 4 5
M  V30 5 1 5 6
M  V30 6 1 6 7
M  V30 7 1 7 8
M  V30 8 1 7 9
M  V30 9 1 9 10
M  V30 10 1 10 11
M  V30 11 1 11 12
M  V30 12 2 11 13
M  V30 13 1 13 14
M  V30 14 2 14 15
M  V30 15 1 15 16
M  V30 16 2 16 17
M  V30 17 1 17 18
M  V30 18 2 18 19
M  V30 19 1 19 20
M  V30 20 2 20 21
M  V30 21 1 21 22
M  V30 22 2 22 23
M  V30 23 1 17 24
M  V30 24 2 24 25
M  V30 25 1 8 4
M  V30 26 1 25 10
M  V30 27 1 9 6
M  V30 28 1 25 14
M  V30 29 1 23 18
M  V30 30 1 1 26
M  V30 31 1 1 27
M  V30 32 1 1 28
M  V30 33 1 5 29
M  V30 34 1 5 30
M  V30 35 1 6 31 CFG=3
M  V30 36 1 7 32 CFG=3
M  V30 37 1 8 33
M  V30 38 1 8 34
M  V30 39 1 9 35 CFG=1
M  V30 40 1 12 36
M  V30 41 1 12 37
M  V30 42 1 12 38
M  V30 43 1 15 39
M  V30 44 1 16 40
M  V30 45 1 19 41
M  V30 46 1 20 42
M  V30 47 1 22 43
M  V30 48 1 23 44
M  V30 END BOND
M  V30 END CTAB
M  END
>  <Dataset>  (476) 
ChEMBL_Kinases

>  <Ligand_Instance>  (476) 
nan

>  <PDB_ID>  (476) 
nan

>  <Standardized_SMILES>  (476) 
CC(=O)N1C[C@@H]2[C@H](C1)[C@H]2n1c(C)nc2ccc(-c3ccncc3)nc21

>  <Name>  (476) 
nan

>  <Pocket>  (476) 
nan

>  <ATP_Site>  (476) 
nan

>  <Peripheral>  (476) 
nan

>  <Num_H_Atoms_ProtBoundConf>  (476) 
nan

>  <Num_Resolved_Atoms>  (476) 
nan

>  <Num_Not_Resolved_Atoms>  (476) 
nan

$$$$
CHEMBL4289841
     RDKit          3D

  0  0  0  0  0  0  0  0  0  0999 V3000
M  V30 BEGIN CTAB
M  V30 COUNTS 40 43 0 0 0
M  V30 BEGIN ATOM
M  V30 1 C 2.227433 -5.216480 2.886319 0
M  V30 2 C 1.312232 -4.441549 2.027510 0
M  V30 3 O 0.206995 -3.983186 2.449147 0
M  V30 4 N 1.586790 -4.140601 0.656910 0
M  V30 5 C 0.651474 -3.381177 -0.120486 0
M  V30 6 C 0.848577 -1.995024 -0.084352 0
M  V30 7 C -0.001556 -1.180116 -0.801319 0
M  V30 8 C 0.211384 0.256076 -0.749135 0
M  V30 9 N 0.649731 1.012686 -1.750812 0
M  V30 10 C 0.722719 2.284316 -1.320341 0
M  V30 11 C 1.100066 3.478946 -1.898241 0
M  V30 12 C 1.100319 4.701241 -1.260231 0
M  V30 13 C 0.669728 4.621098 0.069106 0
M  V30 14 N 0.295666 3.466962 0.657253 0
M  V30 15 C 0.308173 2.299959 0.007377 0
M  V30 16 C -0.026270 1.001358 0.395155 0
M  V30 17 C -0.502438 0.669953 1.729610 0
M  V30 18 C 0.034432 -0.082766 2.751990 0
M  V30 19 C -0.673722 -0.219114 3.917434 0
M  V30 20 C -1.910416 0.374478 4.102950 0
M  V30 21 F -2.490866 0.153509 5.300659 0
M  V30 22 N -2.445721 1.118614 3.100046 0
M  V30 23 C -1.754973 1.263483 1.935713 0
M  V30 24 C -1.025287 -1.770562 -1.534824 0
M  V30 25 C -1.206759 -3.153061 -1.559586 0
M  V30 26 N -0.355020 -3.912982 -0.845776 0
M  V30 27 H 3.280898 -5.116413 2.605447 0
M  V30 28 H 1.965679 -6.285556 2.964552 0
M  V30 29 H 2.139758 -4.797898 3.916260 0
M  V30 30 H 2.494923 -4.504325 0.274589 0
M  V30 31 H 1.636883 -1.566460 0.477503 0
M  V30 32 H 0.904309 0.718416 -2.718480 0
M  V30 33 H 1.418990 3.441448 -2.931141 0
M  V30 34 H 1.397580 5.627514 -1.723242 0
M  V30 35 H 0.652553 5.572705 0.623229 0
M  V30 36 H 0.980811 -0.477536 2.484614 0
M  V30 37 H -0.163014 -0.832097 4.660667 0
M  V30 38 H -2.328374 1.887329 1.247294 0
M  V30 39 H -1.705188 -1.131952 -2.105832 0
M  V30 40 H -2.005019 -3.609683 -2.131710 0
M  V30 END ATOM
M  V30 BEGIN BOND
M  V30 1 1 1 2
M  V30 2 2 2 3
M  V30 3 1 2 4
M  V30 4 1 4 5
M  V30 5 2 5 6
M  V30 6 1 6 7
M  V30 7 1 7 8
M  V30 8 1 8 9
M  V30 9 1 9 10
M  V30 10 2 10 11
M  V30 11 1 11 12
M  V30 12 2 12 13
M  V30 13 1 13 14
M  V30 14 2 14 15
M  V30 15 1 15 16
M  V30 16 1 16 17
M  V30 17 2 17 18
M  V30 18 1 18 19
M  V30 19 2 19 20
M  V30 20 1 20 21
M  V30 21 1 20 22
M  V30 22 2 22 23
M  V30 23 2 7 24
M  V30 24 1 24 25
M  V30 25 2 25 26
M  V30 26 1 26 5
M  V30 27 2 16 8
M  V30 28 1 23 17
M  V30 29 1 15 10
M  V30 30 1 1 27
M  V30 31 1 1 28
M  V30 32 1 1 29
M  V30 33 1 4 30
M  V30 34 1 6 31
M  V30 35 1 9 32
M  V30 36 1 11 33
M  V30 37 1 12 34
M  V30 38 1 13 35
M  V30 39 1 18 36
M  V30 40 1 19 37
M  V30 41 1 23 38
M  V30 42 1 24 39
M  V30 43 1 25 40
M  V30 END BOND
M  V30 END CTAB
M  END
>  <Dataset>  (477) 
ChEMBL_Kinases

>  <Ligand_Instance>  (477) 
nan

>  <PDB_ID>  (477) 
nan

>  <Standardized_SMILES>  (477) 
CC(=O)Nc1cc(-c2[nH]c3cccnc3c2-c2ccc(F)nc2)ccn1

>  <Name>  (477) 
nan

>  <Pocket>  (477) 
nan

>  <ATP_Site>  (477) 
nan

>  <Peripheral>  (477) 
nan

>  <Num_H_Atoms_ProtBoundConf>  (477) 
nan

>  <Num_Resolved_Atoms>  (477) 
nan

>  <Num_Not_Resolved_Atoms>  (477) 
nan

$$$$
CHEMBL4289810
     RDKit          3D

  0  0  0  0  0  0  0  0  0  0999 V3000
M  V30 BEGIN CTAB
M  V30 COUNTS 76 80 0 0 0
M  V30 BEGIN ATOM
M  V30 1 C 0.910973 -2.989075 4.711298 0
M  V30 2 C 1.437372 -1.903271 3.853591 0
M  V30 3 C 1.222637 -0.577630 4.201022 0
M  V30 4 C 1.736403 0.391579 3.364399 0
M  V30 5 C 2.446811 0.144076 2.209514 0
M  V30 6 C 2.929596 1.269328 1.418583 0
M  V30 7 O 2.653528 2.428609 1.849352 0
M  V30 8 N 3.674250 1.101510 0.220895 0
M  V30 9 C 4.109435 2.263418 -0.495505 0
M  V30 10 C 5.251777 2.992994 -0.396581 0
M  V30 11 C 5.452170 4.083765 -1.201712 0
M  V30 12 C 4.504671 4.473159 -2.133156 0
M  V30 13 C 4.704298 5.646848 -3.009528 0
M  V30 14 F 4.685739 5.315205 -4.357532 0
M  V30 15 F 3.761571 6.636887 -2.741605 0
M  V30 16 F 5.943525 6.219320 -2.779283 0
M  V30 17 C 3.340469 3.742747 -2.245246 0
M  V30 18 Cl 2.135837 4.248429 -3.439457 0
M  V30 19 C 3.129860 2.628490 -1.426628 0
M  V30 20 C 2.665099 -1.170262 1.856557 0
M  V30 21 C 2.157955 -2.148047 2.682270 0
M  V30 22 N 2.332581 -3.551971 2.398996 0
M  V30 23 C 1.216174 -3.919473 1.601050 0
M  V30 24 O 0.335688 -3.044839 1.294601 0
M  V30 25 C 0.797798 -5.206031 0.983463 0
M  V30 26 C -0.172254 -5.052968 -0.129101 0
M  V30 27 C -0.193625 -5.663706 -1.367277 0
M  V30 28 C -1.198871 -5.367789 -2.257628 0
M  V30 29 N -2.175586 -4.484049 -1.944984 0
M  V30 30 C -2.140654 -3.896998 -0.733996 0
M  V30 31 N -3.173398 -2.968684 -0.424615 0
M  V30 32 C -4.210690 -2.680165 -1.385380 0
M  V30 33 C -5.180323 -1.652652 -0.822552 0
M  V30 34 N -4.529884 -0.420177 -0.502279 0
M  V30 35 C -5.447372 0.573275 0.037361 0
M  V30 36 C -4.636583 1.665463 0.701899 0
M  V30 37 N -3.423899 1.844551 -0.061978 0
M  V30 38 C -2.679449 3.010841 0.301676 0
M  V30 39 C -3.621264 1.652402 -1.463613 0
M  V30 40 C -3.967425 0.178061 -1.701733 0
M  V30 41 N -1.170370 -4.172436 0.145767 0
M  V30 42 C 0.598912 -6.407813 1.842651 0
M  V30 43 C 1.718677 -6.358341 0.876715 0
M  V30 44 H 1.682656 -3.779780 4.797294 0
M  V30 45 H 0.785918 -2.569139 5.732938 0
M  V30 46 H -0.063195 -3.376838 4.385372 0
M  V30 47 H 0.668205 -0.344628 5.102139 0
M  V30 48 H 1.523355 1.413153 3.708341 0
M  V30 49 H 3.903364 0.151274 -0.135598 0
M  V30 50 H 5.921842 2.606771 0.357378 0
M  V30 51 H 6.370763 4.625192 -1.084186 0
M  V30 52 H 2.167667 2.132712 -1.611934 0
M  V30 53 H 3.214427 -1.420110 0.963449 0
M  V30 54 H 2.945036 -4.395126 2.545384 0
M  V30 55 H 0.611314 -6.340483 -1.525263 0
M  V30 56 H -1.111501 -5.906905 -3.194221 0
M  V30 57 H -3.186098 -2.485104 0.512630 0
M  V30 58 H -4.770853 -3.613648 -1.581956 0
M  V30 59 H -3.800706 -2.338701 -2.362746 0
M  V30 60 H -5.975959 -1.503236 -1.590126 0
M  V30 61 H -5.615093 -2.077910 0.107619 0
M  V30 62 H -6.215033 0.164447 0.693755 0
M  V30 63 H -5.954588 1.042710 -0.847119 0
M  V30 64 H -5.170831 2.633004 0.742986 0
M  V30 65 H -4.334219 1.364394 1.732113 0
M  V30 66 H -1.883217 2.664666 1.014014 0
M  V30 67 H -3.340866 3.659560 0.935060 0
M  V30 68 H -2.230287 3.568825 -0.531812 0
M  V30 69 H -2.685585 1.919138 -1.994436 0
M  V30 70 H -4.417953 2.305791 -1.888747 0
M  V30 71 H -3.138336 -0.395671 -2.123616 0
M  V30 72 H -4.801757 0.124558 -2.461894 0
M  V30 73 H 0.907434 -6.408811 2.908807 0
M  V30 74 H -0.231607 -7.104303 1.623511 0
M  V30 75 H 2.769478 -6.138327 1.229149 0
M  V30 76 H 1.756673 -7.031882 -0.001122 0
M  V30 END ATOM
M  V30 BEGIN BOND
M  V30 1 1 1 2
M  V30 2 2 2 3
M  V30 3 1 3 4
M  V30 4 2 4 5
M  V30 5 1 5 6
M  V30 6 2 6 7
M  V30 7 1 6 8
M  V30 8 1 8 9
M  V30 9 2 9 10
M  V30 10 1 10 11
M  V30 11 2 11 12
M  V30 12 1 12 13
M  V30 13 1 13 14
M  V30 14 1 13 15
M  V30 15 1 13 16
M  V30 16 1 12 17
M  V30 17 1 17 18
M  V30 18 2 17 19
M  V30 19 1 5 20
M  V30 20 2 20 21
M  V30 21 1 21 22
M  V30 22 1 22 23
M  V30 23 2 23 24
M  V30 24 1 23 25
M  V30 25 1 25 26
M  V30 26 2 26 27
M  V30 27 1 27 28
M  V30 28 2 28 29
M  V30 29 1 29 30
M  V30 30 1 30 31
M  V30 31 1 31 32
M  V30 32 1 32 33
M  V30 33 1 33 34
M  V30 34 1 34 35
M  V30 35 1 35 36
M  V30 36 1 36 37
M  V30 37 1 37 38
M  V30 38 1 37 39
M  V30 39 1 39 40
M  V30 40 2 30 41
M  V30 41 1 25 42
M  V30 42 1 42 43
M  V30 43 1 21 2
M  V30 44 1 43 25
M  V30 45 1 19 9
M  V30 46 1 41 26
M  V30 47 1 40 34
M  V30 48 1 1 44
M  V30 49 1 1 45
M  V30 50 1 1 46
M  V30 51 1 3 47
M  V30 52 1 4 48
M  V30 53 1 8 49
M  V30 54 1 10 50
M  V30 55 1 11 51
M  V30 56 1 19 52
M  V30 57 1 20 53
M  V30 58 1 22 54
M  V30 59 1 27 55
M  V30 60 1 28 56
M  V30 61 1 31 57
M  V30 62 1 32 58
M  V30 63 1 32 59
M  V30 64 1 33 60
M  V30 65 1 33 61
M  V30 66 1 35 62
M  V30 67 1 35 63
M  V30 68 1 36 64
M  V30 69 1 36 65
M  V30 70 1 38 66
M  V30 71 1 38 67
M  V30 72 1 38 68
M  V30 73 1 39 69
M  V30 74 1 39 70
M  V30 75 1 40 71
M  V30 76 1 40 72
M  V30 77 1 42 73
M  V30 78 1 42 74
M  V30 79 1 43 75
M  V30 80 1 43 76
M  V30 END BOND
M  V30 END CTAB
M  END
>  <Dataset>  (478) 
ChEMBL_Kinases

>  <Ligand_Instance>  (478) 
nan

>  <PDB_ID>  (478) 
nan

>  <Standardized_SMILES>  (478) 
Cc1ccc(C(=O)Nc2ccc(C(F)(F)F)c(Cl)c2)cc1NC(=O)C1(c2ccnc(NCCN3CCN(C)CC3)n2)CC1

>  <Name>  (478) 
nan

>  <Pocket>  (478) 
nan

>  <ATP_Site>  (478) 
nan

>  <Peripheral>  (478) 
nan

>  <Num_H_Atoms_ProtBoundConf>  (478) 
nan

>  <Num_Resolved_Atoms>  (478) 
nan

>  <Num_Not_Resolved_Atoms>  (478) 
nan

$$$$
CHEMBL4289709
     RDKit          3D

  0  0  0  0  0  0  0  0  0  0999 V3000
M  V30 BEGIN CTAB
M  V30 COUNTS 73 76 0 0 0
M  V30 BEGIN ATOM
M  V30 1 C 4.752597 -0.815908 4.769708 0
M  V30 2 C 3.453873 -0.752072 3.934433 0
M  V30 3 C 3.390483 -1.896238 2.980076 0
M  V30 4 N 2.237468 -1.950737 2.115635 0
M  V30 5 C 2.497329 -1.184490 0.919401 0
M  V30 6 O 3.603912 -0.572455 1.107053 0
M  V30 7 N 1.897754 -0.937111 -0.335481 0
M  V30 8 C 2.507049 -0.010608 -1.237729 0
M  V30 9 C 3.517384 0.072994 -2.160715 0
M  V30 10 C 3.694457 1.237067 -2.847160 0
M  V30 11 C 2.909389 2.337540 -2.662178 0
M  V30 12 C 1.877569 2.327563 -1.754442 0
M  V30 13 C 1.015753 3.505946 -1.558054 0
M  V30 14 O 1.212518 4.573486 -2.159856 0
M  V30 15 O -0.017327 3.361836 -0.679391 0
M  V30 16 C -0.982437 4.300572 -0.305071 0
M  V30 17 C -1.924531 3.596479 0.680576 0
M  V30 18 C 1.684236 1.130345 -1.038022 0
M  V30 19 C 0.940185 -2.515676 2.153018 0
M  V30 20 C -0.009907 -1.862429 3.161736 0
M  V30 21 C -1.101217 -2.796780 3.617183 0
M  V30 22 C -1.534786 -3.590613 2.412438 0
M  V30 23 N -2.745372 -3.757108 1.951871 0
M  V30 24 C -3.160707 -4.358821 1.054923 0
M  V30 25 N -4.549024 -4.446507 0.635223 0
M  V30 26 C -4.977591 -4.350343 -0.757882 0
M  V30 27 C -4.383204 -3.118410 -1.362798 0
M  V30 28 C -4.834790 -1.820564 -1.340776 0
M  V30 29 C -4.129983 -0.801867 -1.944311 0
M  V30 30 C -2.940749 -1.029159 -2.598706 0
M  V30 31 C -2.120419 -0.016995 -3.268370 0
M  V30 32 O -1.040752 -0.288896 -3.825395 0
M  V30 33 O -2.511215 1.315244 -3.319068 0
M  V30 34 C -1.657516 2.248736 -3.987635 0
M  V30 35 C -2.441671 -2.325202 -2.650779 0
M  V30 36 C -3.177404 -3.299791 -2.037980 0
M  V30 37 S -1.543060 -5.083996 0.389658 0
M  V30 38 C -0.555403 -4.298829 1.638473 0
M  V30 39 C 0.815392 -4.016796 2.210293 0
M  V30 40 H 4.531473 -1.255776 5.760281 0
M  V30 41 H 5.178500 0.191034 4.937623 0
M  V30 42 H 5.490691 -1.472603 4.259996 0
M  V30 43 H 2.630720 -0.716534 4.674272 0
M  V30 44 H 3.492031 0.238330 3.461521 0
M  V30 45 H 4.308518 -1.861850 2.347580 0
M  V30 46 H 3.445489 -2.826922 3.619378 0
M  V30 47 H 1.041301 -1.495714 -0.466107 0
M  V30 48 H 3.989794 -0.896018 -2.135122 0
M  V30 49 H 4.520585 1.160675 -3.537710 0
M  V30 50 H 3.101940 3.222896 -3.238625 0
M  V30 51 H -1.538186 4.719588 -1.167274 0
M  V30 52 H -0.468981 5.085845 0.306701 0
M  V30 53 H -1.664674 3.808578 1.725302 0
M  V30 54 H -1.827063 2.503339 0.538067 0
M  V30 55 H -2.984504 3.920420 0.462853 0
M  V30 56 H 0.835904 1.245937 -0.344657 0
M  V30 57 H 0.457034 -2.226557 1.166371 0
M  V30 58 H 0.503726 -1.467238 4.046707 0
M  V30 59 H -0.538439 -0.974510 2.719093 0
M  V30 60 H -1.896763 -2.192131 4.048387 0
M  V30 61 H -0.638904 -3.502805 4.346477 0
M  V30 62 H -5.215035 -4.594016 1.387241 0
M  V30 63 H -4.602607 -5.233043 -1.280578 0
M  V30 64 H -6.069327 -4.261808 -0.812879 0
M  V30 65 H -5.770164 -1.691444 -0.818162 0
M  V30 66 H -4.498788 0.207695 -1.911347 0
M  V30 67 H -1.288110 2.988962 -3.255691 0
M  V30 68 H -0.789306 1.727098 -4.473690 0
M  V30 69 H -2.247926 2.793396 -4.757511 0
M  V30 70 H -1.501711 -2.538509 -3.157593 0
M  V30 71 H -2.744686 -4.306391 -2.129569 0
M  V30 72 H 0.790754 -4.447595 3.210145 0
M  V30 73 H 1.539166 -4.467364 1.531747 0
M  V30 END ATOM
M  V30 BEGIN BOND
M  V30 1 1 1 2
M  V30 2 1 2 3
M  V30 3 1 3 4
M  V30 4 1 4 5
M  V30 5 2 5 6
M  V30 6 1 5 7
M  V30 7 1 7 8
M  V30 8 2 8 9
M  V30 9 1 9 10
M  V30 10 2 10 11
M  V30 11 1 11 12
M  V30 12 1 12 13
M  V30 13 2 13 14
M  V30 14 1 13 15
M  V30 15 1 15 16
M  V30 16 1 16 17
M  V30 17 2 12 18
M  V30 18 1 4 19
M  V30 19 1 19 20
M  V30 20 1 20 21
M  V30 21 1 21 22
M  V30 22 1 22 23
M  V30 23 2 23 24
M  V30 24 1 24 25
M  V30 25 1 25 26
M  V30 26 1 26 27
M  V30 27 2 27 28
M  V30 28 1 28 29
M  V30 29 2 29 30
M  V30 30 1 30 31
M  V30 31 2 31 32
M  V30 32 1 31 33
M  V30 33 1 33 34
M  V30 34 1 30 35
M  V30 35 2 35 36
M  V30 36 1 24 37
M  V30 37 1 37 38
M  V30 38 1 38 39
M  V30 39 1 18 8
M  V30 40 1 39 19
M  V30 41 2 38 22
M  V30 42 1 36 27
M  V30 43 1 1 40
M  V30 44 1 1 41
M  V30 45 1 1 42
M  V30 46 1 2 43
M  V30 47 1 2 44
M  V30 48 1 3 45
M  V30 49 1 3 46
M  V30 50 1 7 47
M  V30 51 1 9 48
M  V30 52 1 10 49
M  V30 53 1 11 50
M  V30 54 1 16 51
M  V30 55 1 16 52
M  V30 56 1 17 53
M  V30 57 1 17 54
M  V30 58 1 17 55
M  V30 59 1 18 56
M  V30 60 1 19 57
M  V30 61 1 20 58
M  V30 62 1 20 59
M  V30 63 1 21 60
M  V30 64 1 21 61
M  V30 65 1 25 62
M  V30 66 1 26 63
M  V30 67 1 26 64
M  V30 68 1 28 65
M  V30 69 1 29 66
M  V30 70 1 34 67
M  V30 71 1 34 68
M  V30 72 1 34 69
M  V30 73 1 35 70
M  V30 74 1 36 71
M  V30 75 1 39 72
M  V30 76 1 39 73
M  V30 END BOND
M  V30 END CTAB
M  END
>  <Dataset>  (479) 
ChEMBL_Kinases

>  <Ligand_Instance>  (479) 
nan

>  <PDB_ID>  (479) 
nan

>  <Standardized_SMILES>  (479) 
CCCN(C(=O)Nc1cccc(C(=O)OCC)c1)C1CCc2nc(NCc3ccc(C(=O)OC)cc3)sc2C1

>  <Name>  (479) 
nan

>  <Pocket>  (479) 
nan

>  <ATP_Site>  (479) 
nan

>  <Peripheral>  (479) 
nan

>  <Num_H_Atoms_ProtBoundConf>  (479) 
nan

>  <Num_Resolved_Atoms>  (479) 
nan

>  <Num_Not_Resolved_Atoms>  (479) 
nan

$$$$
CHEMBL4757282
     RDKit          3D

  0  0  0  0  0  0  0  0  0  0999 V3000
M  V30 BEGIN CTAB
M  V30 COUNTS 57 61 0 0 0
M  V30 BEGIN ATOM
M  V30 1 C -0.733733 3.451596 -0.691041 0
M  V30 2 C 0.378332 2.490952 -0.533153 0
M  V30 3 C 1.559743 2.672497 -1.228908 0
M  V30 4 C 2.644949 1.827832 -1.143492 0
M  V30 5 C 2.569245 0.719153 -0.313131 0
M  V30 6 C 3.599439 -0.288263 -0.080849 0
M  V30 7 O 3.534114 -1.309666 0.645803 0
M  V30 8 N 4.879198 -0.194965 -0.710373 0
M  V30 9 C 5.972812 -1.118678 -0.563322 0
M  V30 10 C 6.803683 -1.391623 -1.797067 0
M  V30 11 C 7.382700 -0.630346 -0.628606 0
M  V30 12 C 1.390990 0.528362 0.387696 0
M  V30 13 C 0.301743 1.392626 0.290239 0
M  V30 14 N -0.873894 1.128727 1.047281 0
M  V30 15 C -1.137703 1.910083 2.089356 0
M  V30 16 C -2.266409 1.677585 2.842530 0
M  V30 17 N -3.073099 0.661796 2.500381 0
M  V30 18 C -2.866730 -0.165612 1.461239 0
M  V30 19 N -3.752353 -1.253617 1.136724 0
M  V30 20 C -5.022374 -1.366659 1.884805 0
M  V30 21 C -5.866713 -2.113950 0.834801 0
M  V30 22 C -4.889610 -3.027145 0.150410 0
M  V30 23 C -3.591256 -2.296940 0.164276 0
M  V30 24 C -2.437483 -3.202922 0.417688 0
M  V30 25 C -1.502926 -3.746705 -0.472095 0
M  V30 26 C -0.503979 -4.573960 -0.010856 0
M  V30 27 C -0.385367 -4.891401 1.304382 0
M  V30 28 C -1.297884 -4.367534 2.214762 0
M  V30 29 C -2.313462 -3.530700 1.768319 0
M  V30 30 C -1.722542 0.131443 0.760866 0
M  V30 31 O -1.411599 -0.563848 -0.236788 0
M  V30 32 H -1.203482 3.301896 -1.686376 0
M  V30 33 H -1.454564 3.349213 0.121754 0
M  V30 34 H -0.306468 4.487860 -0.656516 0
M  V30 35 H 1.655696 3.525691 -1.885561 0
M  V30 36 H 3.572275 1.937030 -1.665752 0
M  V30 37 H 5.095591 0.618158 -1.361416 0
M  V30 38 H 5.767997 -1.998414 0.079590 0
M  V30 39 H 7.288786 -2.373257 -1.946004 0
M  V30 40 H 6.603619 -0.828637 -2.740097 0
M  V30 41 H 7.456050 0.471991 -0.773442 0
M  V30 42 H 8.094015 -1.127654 0.046313 0
M  V30 43 H 1.260319 -0.327472 1.063201 0
M  V30 44 H -0.520791 2.739811 2.405179 0
M  V30 45 H -2.611364 2.232670 3.722170 0
M  V30 46 H -4.923692 -1.928687 2.809688 0
M  V30 47 H -5.423073 -0.360866 2.019125 0
M  V30 48 H -6.711761 -2.631440 1.316772 0
M  V30 49 H -6.177356 -1.359141 0.078010 0
M  V30 50 H -5.221451 -3.312563 -0.873181 0
M  V30 51 H -4.823874 -3.952335 0.795832 0
M  V30 52 H -3.492574 -1.786161 -0.822628 0
M  V30 53 H -1.725295 -3.404039 -1.482531 0
M  V30 54 H 0.137363 -4.913948 -0.812774 0
M  V30 55 H 0.411084 -5.540232 1.609086 0
M  V30 56 H -1.129158 -4.671307 3.234964 0
M  V30 57 H -2.923710 -3.220036 2.603807 0
M  V30 END ATOM
M  V30 BEGIN BOND
M  V30 1 1 1 2
M  V30 2 2 2 3
M  V30 3 1 3 4
M  V30 4 2 4 5
M  V30 5 1 5 6
M  V30 6 2 6 7
M  V30 7 1 6 8
M  V30 8 1 8 9
M  V30 9 1 9 10
M  V30 10 1 10 11
M  V30 11 1 5 12
M  V30 12 2 12 13
M  V30 13 1 13 14
M  V30 14 1 14 15
M  V30 15 2 15 16
M  V30 16 1 16 17
M  V30 17 2 17 18
M  V30 18 1 18 19
M  V30 19 1 19 20
M  V30 20 1 20 21
M  V30 21 1 21 22
M  V30 22 1 22 23
M  V30 23 1 23 24
M  V30 24 2 24 25
M  V30 25 1 25 26
M  V30 26 2 26 27
M  V30 27 1 27 28
M  V30 28 2 28 29
M  V30 29 1 18 30
M  V30 30 2 30 31
M  V30 31 1 13 2
M  V30 32 1 30 14
M  V30 33 1 11 9
M  V30 34 1 23 19
M  V30 35 1 29 24
M  V30 36 1 1 32
M  V30 37 1 1 33
M  V30 38 1 1 34
M  V30 39 1 3 35
M  V30 40 1 4 36
M  V30 41 1 8 37
M  V30 42 1 9 38
M  V30 43 1 10 39
M  V30 44 1 10 40
M  V30 45 1 11 41
M  V30 46 1 11 42
M  V30 47 1 12 43
M  V30 48 1 15 44
M  V30 49 1 16 45
M  V30 50 1 20 46
M  V30 51 1 20 47
M  V30 52 1 21 48
M  V30 53 1 21 49
M  V30 54 1 22 50
M  V30 55 1 22 51
M  V30 56 1 23 52
M  V30 57 1 25 53
M  V30 58 1 26 54
M  V30 59 1 27 55
M  V30 60 1 28 56
M  V30 61 1 29 57
M  V30 END BOND
M  V30 END CTAB
M  END
>  <Dataset>  (480) 
ChEMBL_Kinases

>  <Ligand_Instance>  (480) 
nan

>  <PDB_ID>  (480) 
nan

>  <Standardized_SMILES>  (480) 
Cc1ccc(C(=O)NC2CC2)cc1-n1ccnc(N2CCCC2c2ccccc2)c1=O

>  <Name>  (480) 
nan

>  <Pocket>  (480) 
nan

>  <ATP_Site>  (480) 
nan

>  <Peripheral>  (480) 
nan

>  <Num_H_Atoms_ProtBoundConf>  (480) 
nan

>  <Num_Resolved_Atoms>  (480) 
nan

>  <Num_Not_Resolved_Atoms>  (480) 
nan

$$$$
CHEMBL4757294
     RDKit          3D

  0  0  0  0  0  0  0  0  0  0999 V3000
M  V30 BEGIN CTAB
M  V30 COUNTS 44 47 0 0 0
M  V30 BEGIN ATOM
M  V30 1 C 2.927363 -6.144152 -1.083274 0
M  V30 2 N 2.718037 -5.154741 -2.111562 0
M  V30 3 C 2.153926 -3.990152 -1.573925 0
M  V30 4 C 2.933483 -2.957117 -1.101991 0
M  V30 5 C 2.478820 -1.753400 -0.546660 0
M  V30 6 C 3.490582 -0.794547 -0.125208 0
M  V30 7 C 3.751065 0.538605 -0.284686 0
M  V30 8 N 4.866682 0.876838 0.368857 0
M  V30 9 N 5.356430 -0.203728 0.961264 0
M  V30 10 C 4.543217 -1.244811 0.682482 0
M  V30 11 C 1.103918 -1.647429 -0.491955 0
M  V30 12 C 0.641390 -0.468391 0.056375 0
M  V30 13 C -0.723799 -0.288745 0.148222 0
M  V30 14 C -1.262494 0.924519 0.712670 0
M  V30 15 C -1.712781 1.940530 1.199391 0
M  V30 16 C -2.253595 3.169985 1.804833 0
M  V30 17 C -1.188193 3.953446 2.467056 0
M  V30 18 O -2.964045 3.844559 0.839302 0
M  V30 19 C -3.236196 2.821545 2.923187 0
M  V30 20 N -3.229159 3.124769 4.303947 0
M  V30 21 C -4.302965 2.601871 4.870130 0
M  V30 22 C -5.303718 1.874563 4.289434 0
M  V30 23 S -4.728650 1.834816 2.509469 0
M  V30 24 C -1.548425 -1.313375 -0.320247 0
M  V30 25 C -1.057920 -2.484661 -0.864777 0
M  V30 26 C 0.306105 -2.671181 -0.959676 0
M  V30 27 N 0.824825 -3.802041 -1.482076 0
M  V30 28 H 3.800357 -5.884494 -0.440670 0
M  V30 29 H 2.019784 -6.337140 -0.479907 0
M  V30 30 H 3.212259 -7.125526 -1.558843 0
M  V30 31 H 2.908641 -5.162746 -3.141958 0
M  V30 32 H 4.017241 -3.120477 -1.181444 0
M  V30 33 H 3.083348 1.140956 -0.881198 0
M  V30 34 H 6.229465 -0.044699 1.498871 0
M  V30 35 H 4.845590 -2.203297 1.120552 0
M  V30 36 H 1.288872 0.302229 0.412984 0
M  V30 37 H -1.448862 4.336622 3.479683 0
M  V30 38 H -0.263564 3.336119 2.508261 0
M  V30 39 H -0.899771 4.842804 1.834930 0
M  V30 40 H -3.374098 4.675275 1.130873 0
M  V30 41 H -4.153783 2.918648 5.919297 0
M  V30 42 H -6.098861 1.539896 4.951423 0
M  V30 43 H -2.627078 -1.207253 -0.264421 0
M  V30 44 H -1.725556 -3.265311 -1.221429 0
M  V30 END ATOM
M  V30 BEGIN BOND
M  V30 1 1 1 2
M  V30 2 1 2 3
M  V30 3 2 3 4
M  V30 4 1 4 5
M  V30 5 1 5 6
M  V30 6 1 6 7
M  V30 7 2 7 8
M  V30 8 1 8 9
M  V30 9 1 9 10
M  V30 10 2 5 11
M  V30 11 1 11 12
M  V30 12 2 12 13
M  V30 13 1 13 14
M  V30 14 3 14 15
M  V30 15 1 15 16
M  V30 16 1 16 17
M  V30 17 1 16 18
M  V30 18 1 16 19
M  V30 19 2 19 20
M  V30 20 1 20 21
M  V30 21 2 21 22
M  V30 22 1 22 23
M  V30 23 1 13 24
M  V30 24 2 24 25
M  V30 25 1 25 26
M  V30 26 2 26 27
M  V30 27 1 27 3
M  V30 28 2 10 6
M  V30 29 1 26 11
M  V30 30 1 23 19
M  V30 31 1 1 28
M  V30 32 1 1 29
M  V30 33 1 1 30
M  V30 34 1 2 31
M  V30 35 1 4 32
M  V30 36 1 7 33
M  V30 37 1 9 34
M  V30 38 1 10 35
M  V30 39 1 12 36
M  V30 40 1 17 37
M  V30 41 1 17 38
M  V30 42 1 17 39
M  V30 43 1 18 40
M  V30 44 1 21 41
M  V30 45 1 22 42
M  V30 46 1 24 43
M  V30 47 1 25 44
M  V30 END BOND
M  V30 END CTAB
M  END
>  <Dataset>  (481) 
ChEMBL_Kinases

>  <Ligand_Instance>  (481) 
nan

>  <PDB_ID>  (481) 
nan

>  <Standardized_SMILES>  (481) 
CNc1cc(-c2cn[nH]c2)c2cc(C#CC(C)(O)c3nccs3)ccc2n1

>  <Name>  (481) 
nan

>  <Pocket>  (481) 
nan

>  <ATP_Site>  (481) 
nan

>  <Peripheral>  (481) 
nan

>  <Num_H_Atoms_ProtBoundConf>  (481) 
nan

>  <Num_Resolved_Atoms>  (481) 
nan

>  <Num_Not_Resolved_Atoms>  (481) 
nan

$$$$
CHEMBL4289492
     RDKit          3D

  0  0  0  0  0  0  0  0  0  0999 V3000
M  V30 BEGIN CTAB
M  V30 COUNTS 39 42 0 0 0
M  V30 BEGIN ATOM
M  V30 1 C -2.272212 -2.903555 3.802636 0
M  V30 2 C -1.290825 -2.330096 2.833664 0
M  V30 3 C -1.551845 -2.166674 1.488076 0
M  V30 4 C -0.620542 -1.633337 0.621319 0
M  V30 5 C 0.629056 -1.243478 1.112300 0
M  V30 6 C 1.494274 -0.701632 0.069995 0
M  V30 7 C 1.143552 0.446235 -0.609948 0
M  V30 8 C -0.109329 1.131812 -0.285348 0
M  V30 9 C -1.210228 1.387021 -1.078151 0
M  V30 10 C -2.282730 2.048921 -0.567597 0
M  V30 11 F -3.334627 2.262179 -1.419557 0
M  V30 12 C -2.348185 2.499981 0.738270 0
M  V30 13 O -3.472163 3.169282 1.197507 0
M  V30 14 C -1.239602 2.237674 1.520254 0
M  V30 15 F -1.312053 2.687179 2.811334 0
M  V30 16 C -0.128475 1.567482 1.039540 0
M  V30 17 C 2.001658 0.927955 -1.599170 0
M  V30 18 N 3.151706 0.290888 -1.890753 0
M  V30 19 C 3.541834 -0.831123 -1.259212 0
M  V30 20 N 4.593340 -1.683799 -1.307823 0
M  V30 21 C 4.416567 -2.658759 -0.397884 0
M  V30 22 C 3.228045 -2.465211 0.278111 0
M  V30 23 C 2.700606 -1.315618 -0.279582 0
M  V30 24 C 0.902456 -1.401242 2.454627 0
M  V30 25 C -0.039766 -1.936070 3.307059 0
M  V30 26 H -3.321655 -2.616918 3.533523 0
M  V30 27 H -2.183338 -3.996578 3.911269 0
M  V30 28 H -2.064681 -2.465597 4.807062 0
M  V30 29 H -2.554003 -2.498641 1.191593 0
M  V30 30 H -0.985438 -1.577506 -0.383584 0
M  V30 31 H -1.085977 1.007055 -2.078921 0
M  V30 32 H -3.784706 4.007620 0.713729 0
M  V30 33 H 0.654544 1.440186 1.771973 0
M  V30 34 H 1.749000 1.826005 -2.146344 0
M  V30 35 H 5.340122 -1.459697 -2.011443 0
M  V30 36 H 5.148456 -3.445789 -0.275983 0
M  V30 37 H 2.923247 -3.154028 1.046854 0
M  V30 38 H 1.896976 -1.070906 2.743531 0
M  V30 39 H 0.263905 -2.022025 4.343187 0
M  V30 END ATOM
M  V30 BEGIN BOND
M  V30 1 1 1 2
M  V30 2 2 2 3
M  V30 3 1 3 4
M  V30 4 2 4 5
M  V30 5 1 5 6
M  V30 6 1 6 7
M  V30 7 1 7 8
M  V30 8 2 8 9
M  V30 9 1 9 10
M  V30 10 1 10 11
M  V30 11 2 10 12
M  V30 12 1 12 13
M  V30 13 1 12 14
M  V30 14 1 14 15
M  V30 15 2 14 16
M  V30 16 2 7 17
M  V30 17 1 17 18
M  V30 18 2 18 19
M  V30 19 1 19 20
M  V30 20 1 20 21
M  V30 21 2 21 22
M  V30 22 1 22 23
M  V30 23 1 5 24
M  V30 24 2 24 25
M  V30 25 1 25 2
M  V30 26 2 23 6
M  V30 27 1 16 8
M  V30 28 1 23 19
M  V30 29 1 1 26
M  V30 30 1 1 27
M  V30 31 1 1 28
M  V30 32 1 3 29
M  V30 33 1 4 30
M  V30 34 1 9 31
M  V30 35 1 13 32
M  V30 36 1 16 33
M  V30 37 1 17 34
M  V30 38 1 20 35
M  V30 39 1 21 36
M  V30 40 1 22 37
M  V30 41 1 24 38
M  V30 42 1 25 39
M  V30 END BOND
M  V30 END CTAB
M  END
>  <Dataset>  (482) 
ChEMBL_Kinases

>  <Ligand_Instance>  (482) 
nan

>  <PDB_ID>  (482) 
nan

>  <Standardized_SMILES>  (482) 
Cc1ccc(-c2c(-c3cc(F)c(O)c(F)c3)cnc3[nH]ccc23)cc1

>  <Name>  (482) 
nan

>  <Pocket>  (482) 
nan

>  <ATP_Site>  (482) 
nan

>  <Peripheral>  (482) 
nan

>  <Num_H_Atoms_ProtBoundConf>  (482) 
nan

>  <Num_Resolved_Atoms>  (482) 
nan

>  <Num_Not_Resolved_Atoms>  (482) 
nan

$$$$
CHEMBL4287097
     RDKit          3D

  0  0  0  0  0  0  0  0  0  0999 V3000
M  V30 BEGIN CTAB
M  V30 COUNTS 50 52 0 0 0
M  V30 BEGIN ATOM
M  V30 1 C 2.390305 1.456431 5.246921 0
M  V30 2 O 2.106439 1.038021 3.929795 0
M  V30 3 C 2.684305 1.583352 2.819677 0
M  V30 4 C 3.590720 2.594503 3.008575 0
M  V30 5 C 4.206519 3.183911 1.928545 0
M  V30 6 C 3.862384 2.705404 0.684952 0
M  V30 7 S 4.611442 3.414280 -0.728355 0
M  V30 8 C 6.113333 2.526855 -1.124286 0
M  V30 9 O 4.885659 4.880315 -0.563561 0
M  V30 10 O 3.705802 3.267388 -1.926623 0
M  V30 11 C 2.949759 1.689552 0.522370 0
M  V30 12 C 2.323445 1.087733 1.591707 0
M  V30 13 C 1.374917 0.023506 1.317934 0
M  V30 14 O 1.155220 -0.315186 0.112695 0
M  V30 15 N 0.601836 -0.755769 2.185943 0
M  V30 16 C -0.274450 -1.758250 1.693589 0
M  V30 17 C 0.300237 -2.995642 1.566016 0
M  V30 18 C -0.473828 -4.046270 1.091874 0
M  V30 19 C -1.781758 -3.794259 0.772644 0
M  V30 20 C -2.359136 -2.547527 0.901651 0
M  V30 21 C -3.740195 -2.206558 0.582363 0
M  V30 22 N -4.550970 -1.560992 1.437811 0
M  V30 23 N -5.722559 -1.405822 0.852962 0
M  V30 24 C -5.604178 -1.966597 -0.364313 0
M  V30 25 N -4.378553 -2.477064 -0.567675 0
M  V30 26 C -3.880818 -3.152312 -1.745975 0
M  V30 27 C -4.502805 -2.525758 -2.998733 0
M  V30 28 C -4.377956 -4.595883 -1.729745 0
M  V30 29 N -1.556002 -1.562554 1.368617 0
M  V30 30 H 2.371466 2.574755 5.334435 0
M  V30 31 H 1.670139 1.050885 5.982855 0
M  V30 32 H 3.448570 1.178109 5.469996 0
M  V30 33 H 3.849636 2.957556 3.983493 0
M  V30 34 H 4.917476 3.978213 2.091313 0
M  V30 35 H 6.929828 3.249934 -1.394047 0
M  V30 36 H 6.488582 1.975446 -0.237616 0
M  V30 37 H 5.949908 1.766749 -1.922514 0
M  V30 38 H 2.730230 1.365797 -0.499896 0
M  V30 39 H 0.698087 -0.568513 3.195531 0
M  V30 40 H 1.330361 -3.222132 1.810779 0
M  V30 41 H -0.076423 -5.030399 0.973120 0
M  V30 42 H -2.409982 -4.581940 0.403285 0
M  V30 43 H -6.447352 -1.974354 -1.064864 0
M  V30 44 H -2.800611 -3.079083 -1.867597 0
M  V30 45 H -5.539309 -2.950935 -3.074778 0
M  V30 46 H -3.949765 -2.825780 -3.901954 0
M  V30 47 H -4.584281 -1.423123 -2.907681 0
M  V30 48 H -4.635998 -4.861731 -0.675774 0
M  V30 49 H -3.492766 -5.223787 -1.978103 0
M  V30 50 H -5.205390 -4.781911 -2.418095 0
M  V30 END ATOM
M  V30 BEGIN BOND
M  V30 1 1 1 2
M  V30 2 1 2 3
M  V30 3 2 3 4
M  V30 4 1 4 5
M  V30 5 2 5 6
M  V30 6 1 6 7
M  V30 7 1 7 8
M  V30 8 2 7 9
M  V30 9 2 7 10
M  V30 10 1 6 11
M  V30 11 2 11 12
M  V30 12 1 12 13
M  V30 13 2 13 14
M  V30 14 1 13 15
M  V30 15 1 15 16
M  V30 16 2 16 17
M  V30 17 1 17 18
M  V30 18 2 18 19
M  V30 19 1 19 20
M  V30 20 1 20 21
M  V30 21 2 21 22
M  V30 22 1 22 23
M  V30 23 2 23 24
M  V30 24 1 24 25
M  V30 25 1 25 26
M  V30 26 1 26 27
M  V30 27 1 26 28
M  V30 28 2 20 29
M  V30 29 1 12 3
M  V30 30 1 29 16
M  V30 31 1 25 21
M  V30 32 1 1 30
M  V30 33 1 1 31
M  V30 34 1 1 32
M  V30 35 1 4 33
M  V30 36 1 5 34
M  V30 37 1 8 35
M  V30 38 1 8 36
M  V30 39 1 8 37
M  V30 40 1 11 38
M  V30 41 1 15 39
M  V30 42 1 17 40
M  V30 43 1 18 41
M  V30 44 1 19 42
M  V30 45 1 24 43
M  V30 46 1 26 44
M  V30 47 1 27 45
M  V30 48 1 27 46
M  V30 49 1 27 47
M  V30 50 1 28 48
M  V30 51 1 28 49
M  V30 52 1 28 50
M  V30 END BOND
M  V30 END CTAB
M  END
>  <Dataset>  (483) 
ChEMBL_Kinases

>  <Ligand_Instance>  (483) 
nan

>  <PDB_ID>  (483) 
nan

>  <Standardized_SMILES>  (483) 
COc1ccc(S(C)(=O)=O)cc1C(=O)Nc1cccc(-c2nncn2C(C)C)n1

>  <Name>  (483) 
nan

>  <Pocket>  (483) 
nan

>  <ATP_Site>  (483) 
nan

>  <Peripheral>  (483) 
nan

>  <Num_H_Atoms_ProtBoundConf>  (483) 
nan

>  <Num_Resolved_Atoms>  (483) 
nan

>  <Num_Not_Resolved_Atoms>  (483) 
nan

$$$$
CHEMBL4757382
     RDKit          3D

  0  0  0  0  0  0  0  0  0  0999 V3000
M  V30 BEGIN CTAB
M  V30 COUNTS 36 38 0 0 0
M  V30 BEGIN ATOM
M  V30 1 N -1.692866 -2.886062 3.432116 0
M  V30 2 C -0.714249 -2.412194 2.514156 0
M  V30 3 N 0.418402 -3.104984 2.294217 0
M  V30 4 C 1.355665 -2.671303 1.428844 0
M  V30 5 C 1.145179 -1.480162 0.748757 0
M  V30 6 C 2.097363 -0.913067 -0.215854 0
M  V30 7 C 2.904084 -1.711607 -1.001299 0
M  V30 8 C 3.812467 -1.230800 -1.921871 0
M  V30 9 C 3.867949 0.143623 -2.013257 0
M  V30 10 C 4.767123 0.849993 -2.929833 0
M  V30 11 O 4.970766 2.069469 -3.166485 0
M  V30 12 O 5.681479 0.261828 -3.825923 0
M  V30 13 C 3.090232 0.997870 -1.258212 0
M  V30 14 C 2.194736 0.457843 -0.348961 0
M  V30 15 C -0.029027 -0.747784 0.967133 0
M  V30 16 C -0.984628 -1.221844 1.871055 0
M  V30 17 C -2.184396 -0.411031 2.051419 0
M  V30 18 C -2.776120 -0.094995 3.259911 0
M  V30 19 C -3.912825 0.686528 3.277708 0
M  V30 20 C -4.495395 1.174102 2.138925 0
M  V30 21 F -5.606863 1.936923 2.173725 0
M  V30 22 C -3.915124 0.866273 0.927156 0
M  V30 23 C -2.775948 0.084929 0.883214 0
M  V30 24 H -2.604605 -3.169064 2.987442 0
M  V30 25 H -2.592814 -3.160903 2.956497 0
M  V30 26 H 2.295167 -3.173373 1.197011 0
M  V30 27 H 2.841782 -2.799663 -0.910259 0
M  V30 28 H 4.443543 -1.831046 -2.536596 0
M  V30 29 H 5.583446 0.366558 -4.845701 0
M  V30 30 H 3.124462 2.076855 -1.320409 0
M  V30 31 H 1.577698 1.132472 0.250314 0
M  V30 32 H -0.217283 0.187038 0.446940 0
M  V30 33 H -2.298563 -0.490343 4.144066 0
M  V30 34 H -4.363485 0.924690 4.227489 0
M  V30 35 H -4.385959 1.258129 0.042499 0
M  V30 36 H -2.407728 -0.091767 -0.130948 0
M  V30 END ATOM
M  V30 BEGIN BOND
M  V30 1 1 1 2
M  V30 2 2 2 3
M  V30 3 1 3 4
M  V30 4 2 4 5
M  V30 5 1 5 6
M  V30 6 2 6 7
M  V30 7 1 7 8
M  V30 8 2 8 9
M  V30 9 1 9 10
M  V30 10 2 10 11
M  V30 11 1 10 12
M  V30 12 1 9 13
M  V30 13 2 13 14
M  V30 14 1 5 15
M  V30 15 2 15 16
M  V30 16 1 16 17
M  V30 17 2 17 18
M  V30 18 1 18 19
M  V30 19 2 19 20
M  V30 20 1 20 21
M  V30 21 1 20 22
M  V30 22 2 22 23
M  V30 23 1 16 2
M  V30 24 1 23 17
M  V30 25 1 14 6
M  V30 26 1 1 24
M  V30 27 1 1 25
M  V30 28 1 4 26
M  V30 29 1 7 27
M  V30 30 1 8 28
M  V30 31 1 12 29
M  V30 32 1 13 30
M  V30 33 1 14 31
M  V30 34 1 15 32
M  V30 35 1 18 33
M  V30 36 1 19 34
M  V30 37 1 22 35
M  V30 38 1 23 36
M  V30 END BOND
M  V30 END CTAB
M  END
>  <Dataset>  (484) 
ChEMBL_Kinases

>  <Ligand_Instance>  (484) 
nan

>  <PDB_ID>  (484) 
nan

>  <Standardized_SMILES>  (484) 
Nc1ncc(-c2ccc(C(=O)O)cc2)cc1-c1ccc(F)cc1

>  <Name>  (484) 
nan

>  <Pocket>  (484) 
nan

>  <ATP_Site>  (484) 
nan

>  <Peripheral>  (484) 
nan

>  <Num_H_Atoms_ProtBoundConf>  (484) 
nan

>  <Num_Resolved_Atoms>  (484) 
nan

>  <Num_Not_Resolved_Atoms>  (484) 
nan

$$$$
CHEMBL4289343
     RDKit          3D

  0  0  0  0  0  0  0  0  0  0999 V3000
M  V30 BEGIN CTAB
M  V30 COUNTS 40 43 0 0 0
M  V30 BEGIN ATOM
M  V30 1 C 1.084032 -6.863541 1.495753 0
M  V30 2 C 1.036665 -5.490255 0.950186 0
M  V30 3 C 0.529199 -4.419769 1.650965 0
M  V30 4 C 0.676974 -3.381025 0.756204 0
M  V30 5 N 0.403623 -2.022020 0.834065 0
M  V30 6 C 0.150131 -0.670326 0.918359 0
M  V30 7 N 0.868585 0.017639 0.010889 0
M  V30 8 C 0.818867 1.363243 -0.062500 0
M  V30 9 C 1.442919 2.270648 -1.009934 0
M  V30 10 C 1.834050 1.587098 -2.158662 0
M  V30 11 C 2.375137 2.239286 -3.258081 0
M  V30 12 C 2.527226 3.629951 -3.195497 0
M  V30 13 C 2.141889 4.296888 -2.057676 0
M  V30 14 C 1.606053 3.644244 -0.967999 0
M  V30 15 N 0.021251 1.985854 0.805384 0
M  V30 16 C -0.723317 1.378336 1.729796 0
M  V30 17 C -1.595155 2.023184 2.608989 0
M  V30 18 C -2.348274 1.275326 3.495096 0
M  V30 19 N -3.262913 1.959838 4.371011 0 CHG=1 VAL=4
M  V30 20 O -3.984912 1.309500 5.143652 0
M  V30 21 O -3.378343 3.338440 4.374186 0 CHG=-1 VAL=1
M  V30 22 C -2.248870 -0.121025 3.527016 0
M  V30 23 C -1.393711 -0.789622 2.666841 0
M  V30 24 C -0.674381 0.006886 1.808395 0
M  V30 25 N 1.243259 -3.867847 -0.389804 0
M  V30 26 N 1.470050 -5.150598 -0.289383 0
M  V30 27 H 1.909153 -7.072306 2.155285 0
M  V30 28 H 1.024183 -7.597048 0.648224 0
M  V30 29 H 0.137770 -7.086244 2.084375 0
M  V30 30 H 0.111137 -4.321061 2.625221 0
M  V30 31 H -0.609757 -2.116289 0.450939 0
M  V30 32 H 1.775221 0.521845 -2.345777 0
M  V30 33 H 2.697561 1.793199 -4.191524 0
M  V30 34 H 2.925094 4.235139 -3.975896 0
M  V30 35 H 2.210062 5.352781 -1.879783 0
M  V30 36 H 1.281913 4.048893 -0.038483 0
M  V30 37 H -1.622032 3.105061 2.540008 0
M  V30 38 H -2.853062 -0.654974 4.241430 0
M  V30 39 H -1.292849 -1.865846 2.658650 0
M  V30 40 H 1.889052 -5.741927 -1.024094 0
M  V30 END ATOM
M  V30 BEGIN BOND
M  V30 1 1 1 2
M  V30 2 2 2 3
M  V30 3 1 3 4
M  V30 4 1 4 5
M  V30 5 1 5 6
M  V30 6 2 6 7
M  V30 7 1 7 8
M  V30 8 1 8 9
M  V30 9 2 9 10
M  V30 10 1 10 11
M  V30 11 2 11 12
M  V30 12 1 12 13
M  V30 13 2 13 14
M  V30 14 2 8 15
M  V30 15 1 15 16
M  V30 16 2 16 17
M  V30 17 1 17 18
M  V30 18 1 18 19
M  V30 19 2 19 20
M  V30 20 1 19 21
M  V30 21 2 18 22
M  V30 22 1 22 23
M  V30 23 2 23 24
M  V30 24 2 4 25
M  V30 25 1 25 26
M  V30 26 1 26 2
M  V30 27 1 24 6
M  V30 28 1 14 9
M  V30 29 1 24 16
M  V30 30 1 1 27
M  V30 31 1 1 28
M  V30 32 1 1 29
M  V30 33 1 3 30
M  V30 34 1 5 31
M  V30 35 1 10 32
M  V30 36 1 11 33
M  V30 37 1 12 34
M  V30 38 1 13 35
M  V30 39 1 14 36
M  V30 40 1 17 37
M  V30 41 1 22 38
M  V30 42 1 23 39
M  V30 43 1 26 40
M  V30 END BOND
M  V30 END CTAB
M  END
>  <Dataset>  (485) 
ChEMBL_Kinases

>  <Ligand_Instance>  (485) 
nan

>  <PDB_ID>  (485) 
nan

>  <Standardized_SMILES>  (485) 
Cc1cc(Nc2nc(-c3ccccc3)nc3cc([N+](=O)[O-])ccc23)n[nH]1

>  <Name>  (485) 
nan

>  <Pocket>  (485) 
nan

>  <ATP_Site>  (485) 
nan

>  <Peripheral>  (485) 
nan

>  <Num_H_Atoms_ProtBoundConf>  (485) 
nan

>  <Num_Resolved_Atoms>  (485) 
nan

>  <Num_Not_Resolved_Atoms>  (485) 
nan

$$$$
CHEMBL428923
     RDKit          3D

  0  0  0  0  0  0  0  0  0  0999 V3000
M  V30 BEGIN CTAB
M  V30 COUNTS 46 49 0 0 0
M  V30 BEGIN ATOM
M  V30 1 C 0.663076 -5.402813 1.893147 0
M  V30 2 O -0.333928 -5.754435 0.941091 0
M  V30 3 C -0.779757 -4.837081 -0.001701 0
M  V30 4 C -0.245250 -3.564631 -0.012605 0
M  V30 5 C -0.679905 -2.644319 -0.944235 0
M  V30 6 C -0.178032 -1.273885 -1.039024 0
M  V30 7 C -0.108273 -0.598318 -2.237596 0
M  V30 8 C 0.374888 0.709392 -2.295828 0
M  V30 9 C 0.784919 1.309989 -1.100598 0
M  V30 10 C 0.700541 0.601380 0.083961 0
M  V30 11 C 0.226775 -0.688523 0.159733 0
M  V30 12 N 1.067752 1.036774 1.409317 0
M  V30 13 C 1.151860 2.402818 1.860913 0
M  V30 14 C 1.316734 3.527843 1.083870 0
M  V30 15 C 1.380090 4.781987 1.662356 0
M  V30 16 C 1.275466 4.898837 3.043490 0
M  V30 17 C 1.113836 3.755794 3.762420 0
M  V30 18 C 1.043920 2.493370 3.253306 0
M  V30 19 O 0.881618 1.311445 3.940446 0
M  V30 20 C 0.755762 1.214219 5.344923 0
M  V30 21 N 1.449104 3.689653 -0.335265 0
M  V30 22 C 1.263009 2.666644 -1.312758 0
M  V30 23 O 1.550171 2.980437 -2.513522 0
M  V30 24 C -1.658843 -2.961426 -1.892915 0
M  V30 25 C -2.198111 -4.228039 -1.890038 0
M  V30 26 C -1.741972 -5.117313 -0.949079 0
M  V30 27 N -2.310151 -6.416864 -0.962424 0
M  V30 28 H 1.640737 -5.293476 1.372870 0
M  V30 29 H 0.764007 -6.266387 2.570056 0
M  V30 30 H 0.409342 -4.463809 2.412858 0
M  V30 31 H 0.508001 -3.255569 0.686038 0
M  V30 32 H -0.428847 -1.072856 -3.160954 0
M  V30 33 H 0.446046 1.268704 -3.201983 0
M  V30 34 H 0.180101 -1.200802 1.107828 0
M  V30 35 H 1.300628 0.316060 2.133767 0
M  V30 36 H 1.508610 5.690617 1.086004 0
M  V30 37 H 1.322007 5.864671 3.515184 0
M  V30 38 H 1.032537 3.842822 4.837150 0
M  V30 39 H 1.158573 2.096393 5.879443 0
M  V30 40 H -0.336036 1.105043 5.573456 0
M  V30 41 H 1.239509 0.270532 5.725296 0
M  V30 42 H 1.703228 4.633414 -0.698901 0
M  V30 43 H -2.008472 -2.258927 -2.624550 0
M  V30 44 H -2.959160 -4.523736 -2.604217 0
M  V30 45 H -3.138233 -6.306718 -0.330298 0
M  V30 46 H -2.219578 -7.385384 -1.342532 0
M  V30 END ATOM
M  V30 BEGIN BOND
M  V30 1 1 1 2
M  V30 2 1 2 3
M  V30 3 2 3 4
M  V30 4 1 4 5
M  V30 5 1 5 6
M  V30 6 2 6 7
M  V30 7 1 7 8
M  V30 8 2 8 9
M  V30 9 1 9 10
M  V30 10 2 10 11
M  V30 11 1 10 12
M  V30 12 1 12 13
M  V30 13 2 13 14
M  V30 14 1 14 15
M  V30 15 2 15 16
M  V30 16 1 16 17
M  V30 17 2 17 18
M  V30 18 1 18 19
M  V30 19 1 19 20
M  V30 20 1 14 21
M  V30 21 1 21 22
M  V30 22 2 22 23
M  V30 23 2 5 24
M  V30 24 1 24 25
M  V30 25 2 25 26
M  V30 26 1 26 27
M  V30 27 1 26 3
M  V30 28 1 11 6
M  V30 29 1 18 13
M  V30 30 1 22 9
M  V30 31 1 1 28
M  V30 32 1 1 29
M  V30 33 1 1 30
M  V30 34 1 4 31
M  V30 35 1 7 32
M  V30 36 1 8 33
M  V30 37 1 11 34
M  V30 38 1 12 35
M  V30 39 1 15 36
M  V30 40 1 16 37
M  V30 41 1 17 38
M  V30 42 1 20 39
M  V30 43 1 20 40
M  V30 44 1 20 41
M  V30 45 1 21 42
M  V30 46 1 24 43
M  V30 47 1 25 44
M  V30 48 1 27 45
M  V30 49 1 27 46
M  V30 END BOND
M  V30 END CTAB
M  END
>  <Dataset>  (486) 
ChEMBL_Kinases

>  <Ligand_Instance>  (486) 
nan

>  <PDB_ID>  (486) 
nan

>  <Standardized_SMILES>  (486) 
COc1cc(-c2ccc3c(c2)Nc2c(cccc2OC)NC3=O)ccc1N

>  <Name>  (486) 
nan

>  <Pocket>  (486) 
nan

>  <ATP_Site>  (486) 
nan

>  <Peripheral>  (486) 
nan

>  <Num_H_Atoms_ProtBoundConf>  (486) 
nan

>  <Num_Resolved_Atoms>  (486) 
nan

>  <Num_Not_Resolved_Atoms>  (486) 
nan

$$$$
CHEMBL4289223
     RDKit          3D

  0  0  0  0  0  0  0  0  0  0999 V3000
M  V30 BEGIN CTAB
M  V30 COUNTS 57 61 0 0 0
M  V30 BEGIN ATOM
M  V30 1 N 3.614133 -3.728318 2.346462 0
M  V30 2 C 3.140579 -2.711074 2.133649 0
M  V30 3 C 2.523284 -1.439178 1.866940 0
M  V30 4 C 2.825548 -0.348564 2.619945 0
M  V30 5 N 2.243063 0.823197 2.358123 0
M  V30 6 C 1.356298 0.984795 1.370225 0
M  V30 7 N 0.711617 2.210316 1.054349 0
M  V30 8 C 0.877172 3.482179 1.688454 0
M  V30 9 C 2.281573 3.922996 1.535067 0
M  V30 10 C 2.594689 4.607748 0.358565 0
M  V30 11 C 3.843452 5.104510 0.040401 0
M  V30 12 C 4.873714 4.921980 0.937659 0
M  V30 13 C 4.592190 4.253295 2.099743 0
M  V30 14 C 3.340495 3.769139 2.392095 0
M  V30 15 N 1.107749 -0.108478 0.679674 0
M  V30 16 C 1.606616 -1.329539 0.824834 0
M  V30 17 N 1.272071 -2.430026 -0.016702 0
M  V30 18 C 0.398071 -2.643748 -1.115894 0
M  V30 19 C -1.055067 -2.833248 -0.802604 0 CFG=2
M  V30 20 C -1.627236 -1.661081 -0.093962 0
M  V30 21 C -3.119544 -1.879754 0.211923 0 CFG=2
M  V30 22 C -3.174716 -3.114370 1.085027 0
M  V30 23 C -2.722131 -4.303289 0.280711 0 CFG=2
M  V30 24 C -1.255312 -4.131526 -0.031083 0
M  V30 25 C -3.502101 -4.442532 -1.009083 0 CFG=1
M  V30 26 N -4.898943 -4.661480 -0.756513 0
M  V30 27 C -3.276800 -3.211444 -1.821160 0 CFG=1
M  V30 28 C -3.842588 -2.018447 -1.080304 0
M  V30 29 C -1.823792 -3.037947 -2.115066 0
M  V30 30 H 3.548500 -0.495018 3.420168 0
M  V30 31 H 0.021315 2.171960 0.245446 0
M  V30 32 H 0.230848 4.234027 1.202243 0
M  V30 33 H 0.614347 3.397479 2.770469 0
M  V30 34 H 1.822243 4.782182 -0.387624 0
M  V30 35 H 4.015499 5.623060 -0.884721 0
M  V30 36 H 5.832056 5.315143 0.669688 0
M  V30 37 H 5.393999 4.101818 2.816421 0
M  V30 38 H 3.123773 3.252781 3.308246 0
M  V30 39 H 1.797071 -3.303355 0.235867 0
M  V30 40 H 0.737813 -3.508392 -1.755674 0
M  V30 41 H 0.495163 -1.768617 -1.834446 0
M  V30 42 H -1.171760 -1.498293 0.914471 0
M  V30 43 H -1.572640 -0.770688 -0.730058 0
M  V30 44 H -3.482806 -1.015964 0.800061 0
M  V30 45 H -4.130105 -3.240803 1.592873 0
M  V30 46 H -2.401926 -2.967321 1.890252 0
M  V30 47 H -2.829252 -5.243990 0.861655 0
M  V30 48 H -0.676496 -4.141371 0.907754 0
M  V30 49 H -0.908870 -4.935662 -0.737151 0
M  V30 50 H -3.101170 -5.328144 -1.543417 0
M  V30 51 H -5.185311 -4.289408 0.175005 0
M  V30 52 H -5.498247 -4.161627 -1.469478 0
M  V30 53 H -3.828666 -3.287809 -2.783495 0
M  V30 54 H -4.916309 -2.203648 -0.943338 0
M  V30 55 H -3.691543 -1.111409 -1.671058 0
M  V30 56 H -1.459747 -3.965973 -2.607458 0
M  V30 57 H -1.619847 -2.200823 -2.813085 0
M  V30 END ATOM
M  V30 BEGIN BOND
M  V30 1 3 1 2
M  V30 2 1 2 3
M  V30 3 2 3 4
M  V30 4 1 4 5
M  V30 5 2 5 6
M  V30 6 1 6 7
M  V30 7 1 7 8
M  V30 8 1 8 9
M  V30 9 2 9 10
M  V30 10 1 10 11
M  V30 11 2 11 12
M  V30 12 1 12 13
M  V30 13 2 13 14
M  V30 14 1 6 15
M  V30 15 2 15 16
M  V30 16 1 16 17
M  V30 17 1 17 18
M  V30 18 1 19 18 CFG=3
M  V30 19 1 19 20
M  V30 20 1 20 21
M  V30 21 1 21 22
M  V30 22 1 22 23
M  V30 23 1 23 24
M  V30 24 1 23 25
M  V30 25 1 25 26
M  V30 26 1 25 27
M  V30 27 1 27 28
M  V30 28 1 27 29
M  V30 29 1 16 3
M  V30 30 1 24 19
M  V30 31 1 14 9
M  V30 32 1 29 19
M  V30 33 1 28 21
M  V30 34 1 4 30
M  V30 35 1 7 31
M  V30 36 1 8 32
M  V30 37 1 8 33
M  V30 38 1 10 34
M  V30 39 1 11 35
M  V30 40 1 12 36
M  V30 41 1 13 37
M  V30 42 1 14 38
M  V30 43 1 17 39
M  V30 44 1 18 40
M  V30 45 1 18 41
M  V30 46 1 20 42
M  V30 47 1 20 43
M  V30 48 1 21 44 CFG=1
M  V30 49 1 22 45
M  V30 50 1 22 46
M  V30 51 1 23 47 CFG=1
M  V30 52 1 24 48
M  V30 53 1 24 49
M  V30 54 1 25 50 CFG=3
M  V30 55 1 26 51
M  V30 56 1 26 52
M  V30 57 1 27 53 CFG=3
M  V30 58 1 28 54
M  V30 59 1 28 55
M  V30 60 1 29 56
M  V30 61 1 29 57
M  V30 END BOND
M  V30 END CTAB
M  END
>  <Dataset>  (487) 
ChEMBL_Kinases

>  <Ligand_Instance>  (487) 
nan

>  <PDB_ID>  (487) 
nan

>  <Standardized_SMILES>  (487) 
N#Cc1cnc(NCc2ccccc2)nc1NC[C@]12C[C@@H]3C[C@H](C1)[C@@H](N)[C@@H](C3)C2

>  <Name>  (487) 
nan

>  <Pocket>  (487) 
nan

>  <ATP_Site>  (487) 
nan

>  <Peripheral>  (487) 
nan

>  <Num_H_Atoms_ProtBoundConf>  (487) 
nan

>  <Num_Resolved_Atoms>  (487) 
nan

>  <Num_Not_Resolved_Atoms>  (487) 
nan

$$$$
CHEMBL4289064
     RDKit          3D

  0  0  0  0  0  0  0  0  0  0999 V3000
M  V30 BEGIN CTAB
M  V30 COUNTS 68 72 0 0 0
M  V30 BEGIN ATOM
M  V30 1 N 1.083545 -3.984070 4.393216 0
M  V30 2 C 1.574876 -2.913580 3.976307 0
M  V30 3 C 2.241998 -1.517367 3.397064 0
M  V30 4 C 3.062388 -1.365416 4.344408 0
M  V30 5 N 3.588192 -0.268734 3.728813 0
M  V30 6 C 3.068470 0.132492 2.525032 0
M  V30 7 N 3.770500 1.331468 2.086606 0
M  V30 8 C 4.807757 2.019711 1.454265 0
M  V30 9 C 4.711831 2.384115 0.054717 0
M  V30 10 C 4.578724 3.745238 -0.246284 0
M  V30 11 C 4.520952 4.253571 -1.562889 0
M  V30 12 C 4.611687 3.289359 -2.501966 0
M  V30 13 C 4.746639 1.923066 -2.403601 0
M  V30 14 C 4.778107 1.559464 -1.059584 0
M  V30 15 O 4.900673 0.214652 -0.631738 0
M  V30 16 C 4.979385 -0.892842 -1.467478 0
M  V30 17 F 5.055203 -1.989534 -0.632653 0
M  V30 18 F 6.129335 -0.886278 -2.237609 0
M  V30 19 F 3.892201 -1.015098 -2.261063 0
M  V30 20 N 2.056598 -0.512728 1.921328 0
M  V30 21 C 1.407656 -1.696814 2.463751 0
M  V30 22 N 0.485772 -1.771359 1.413925 0
M  V30 23 C -0.000866 -2.968545 0.806861 0
M  V30 24 C -1.391327 -2.815377 0.259491 0 CFG=2
M  V30 25 C -1.910311 -4.088402 -0.426954 0
M  V30 26 C -3.325723 -3.830139 -0.830161 0 CFG=2
M  V30 27 C -3.463073 -2.662133 -1.794697 0
M  V30 28 C -2.950493 -1.459119 -1.108753 0 CFG=2
M  V30 29 C -1.488263 -1.750445 -0.740491 0
M  V30 30 C -3.664932 -1.085755 0.159958 0 CFG=1
M  V30 31 N -5.041194 -0.760929 -0.199487 0
M  V30 32 C -5.661567 0.093085 0.797335 0
M  V30 33 C -5.118829 1.469478 0.571816 0
M  V30 34 N -5.525154 2.579413 1.342455 0
M  V30 35 O -4.312191 1.357061 -0.374288 0
M  V30 36 C -3.731736 -2.338622 1.048322 0 CFG=1
M  V30 37 C -4.263874 -3.545986 0.305923 0
M  V30 38 C -2.312310 -2.680609 1.477942 0
M  V30 39 H 3.513058 -1.565579 5.260843 0
M  V30 40 H 2.940059 1.930856 2.449771 0
M  V30 41 H 5.763827 1.417030 1.633156 0
M  V30 42 H 4.948111 3.001182 2.064540 0
M  V30 43 H 4.492911 4.493354 0.555151 0
M  V30 44 H 4.409010 5.290759 -1.780287 0
M  V30 45 H 4.570536 3.653339 -3.520135 0
M  V30 46 H 4.808496 1.160824 -3.163869 0
M  V30 47 H -0.048045 -0.999643 0.952307 0
M  V30 48 H 0.011108 -3.840639 1.521916 0
M  V30 49 H 0.623218 -3.326603 -0.070516 0
M  V30 50 H -1.308292 -4.216171 -1.344060 0
M  V30 51 H -1.887903 -4.934285 0.252172 0
M  V30 52 H -3.709870 -4.749335 -1.359708 0
M  V30 53 H -4.556826 -2.569284 -2.017887 0
M  V30 54 H -2.881924 -2.833619 -2.708585 0
M  V30 55 H -2.950435 -0.563499 -1.756471 0
M  V30 56 H -1.012372 -2.157458 -1.684836 0
M  V30 57 H -0.974240 -0.792154 -0.569907 0
M  V30 58 H -3.134502 -0.325058 0.684493 0
M  V30 59 H -4.951050 -0.283984 -1.152729 0
M  V30 60 H -6.747639 0.072296 0.670840 0
M  V30 61 H -5.350860 -0.248840 1.825349 0
M  V30 62 H -5.037957 2.981804 2.170358 0
M  V30 63 H -6.137363 3.348819 1.585453 0
M  V30 64 H -4.341292 -2.082943 1.923241 0
M  V30 65 H -4.208737 -4.403593 1.008406 0
M  V30 66 H -5.259480 -3.398084 -0.107938 0
M  V30 67 H -2.374303 -3.709764 1.891591 0
M  V30 68 H -1.915111 -2.082879 2.272270 0
M  V30 END ATOM
M  V30 BEGIN BOND
M  V30 1 3 1 2
M  V30 2 1 2 3
M  V30 3 2 3 4
M  V30 4 1 4 5
M  V30 5 2 5 6
M  V30 6 1 6 7
M  V30 7 1 7 8
M  V30 8 1 8 9
M  V30 9 2 9 10
M  V30 10 1 10 11
M  V30 11 2 11 12
M  V30 12 1 12 13
M  V30 13 2 13 14
M  V30 14 1 14 15
M  V30 15 1 15 16
M  V30 16 1 16 17
M  V30 17 1 16 18
M  V30 18 1 16 19
M  V30 19 1 6 20
M  V30 20 2 20 21
M  V30 21 1 21 22
M  V30 22 1 22 23
M  V30 23 1 24 23 CFG=1
M  V30 24 1 24 25
M  V30 25 1 25 26
M  V30 26 1 26 27
M  V30 27 1 27 28
M  V30 28 1 28 29
M  V30 29 1 28 30
M  V30 30 1 30 31
M  V30 31 1 31 32
M  V30 32 1 32 33
M  V30 33 1 33 34
M  V30 34 2 33 35
M  V30 35 1 30 36
M  V30 36 1 36 37
M  V30 37 1 36 38
M  V30 38 1 21 3
M  V30 39 1 29 24
M  V30 40 1 14 9
M  V30 41 1 38 24
M  V30 42 1 37 26
M  V30 43 1 4 39
M  V30 44 1 7 40
M  V30 45 1 8 41
M  V30 46 1 8 42
M  V30 47 1 10 43
M  V30 48 1 11 44
M  V30 49 1 12 45
M  V30 50 1 13 46
M  V30 51 1 22 47
M  V30 52 1 23 48
M  V30 53 1 23 49
M  V30 54 1 25 50
M  V30 55 1 25 51
M  V30 56 1 26 52 CFG=3
M  V30 57 1 27 53
M  V30 58 1 27 54
M  V30 59 1 28 55 CFG=3
M  V30 60 1 29 56
M  V30 61 1 29 57
M  V30 62 1 30 58 CFG=1
M  V30 63 1 31 59
M  V30 64 1 32 60
M  V30 65 1 32 61
M  V30 66 1 34 62
M  V30 67 1 34 63
M  V30 68 1 36 64 CFG=1
M  V30 69 1 37 65
M  V30 70 1 37 66
M  V30 71 1 38 67
M  V30 72 1 38 68
M  V30 END BOND
M  V30 END CTAB
M  END
>  <Dataset>  (488) 
ChEMBL_Kinases

>  <Ligand_Instance>  (488) 
nan

>  <PDB_ID>  (488) 
nan

>  <Standardized_SMILES>  (488) 
N#Cc1cnc(NCc2ccccc2OC(F)(F)F)nc1NC[C@]12C[C@@H]3C[C@H](C1)[C@@H](NCC(N)=O)[C@@H](C3)C2

>  <Name>  (488) 
nan

>  <Pocket>  (488) 
nan

>  <ATP_Site>  (488) 
nan

>  <Peripheral>  (488) 
nan

>  <Num_H_Atoms_ProtBoundConf>  (488) 
nan

>  <Num_Resolved_Atoms>  (488) 
nan

>  <Num_Not_Resolved_Atoms>  (488) 
nan

$$$$
CHEMBL4757394
     RDKit          3D

  0  0  0  0  0  0  0  0  0  0999 V3000
M  V30 BEGIN CTAB
M  V30 COUNTS 55 58 0 0 0
M  V30 BEGIN ATOM
M  V30 1 N 0.036593 -3.905621 4.120267 0
M  V30 2 C 0.382575 -2.843845 3.234252 0
M  V30 3 N 1.546322 -2.155650 3.386291 0
M  V30 4 C 1.894251 -1.149320 2.561883 0
M  V30 5 C 1.074314 -0.771347 1.517273 0
M  V30 6 C 1.356788 0.308215 0.562294 0
M  V30 7 C 0.914428 0.277149 -0.755868 0
M  V30 8 N 1.363728 1.425450 -1.309236 0
M  V30 9 N 2.031344 2.135781 -0.443998 0
M  V30 10 C 2.650985 3.426649 -0.711265 0
M  V30 11 C 4.153702 3.252786 -0.791710 0
M  V30 12 C 4.717772 4.662013 -0.560589 0
M  V30 13 N 4.629728 4.894334 0.869116 0
M  V30 14 C 3.280752 4.752603 1.324445 0
M  V30 15 C 2.267528 4.492588 0.255189 0
M  V30 16 C 2.067267 1.503311 0.738843 0
M  V30 17 C -0.098139 -1.488814 1.390310 0
M  V30 18 C -0.497112 -2.514956 2.196735 0
M  V30 19 O -1.691566 -3.204780 2.022560 0
M  V30 20 C -2.522168 -2.808026 0.949135 0
M  V30 21 C -3.788232 -3.627116 0.859873 0
M  V30 22 C -3.536762 -5.080375 0.660076 0
M  V30 23 C -3.254892 -5.510850 -0.736593 0
M  V30 24 C -3.755870 -4.561064 -1.802328 0
M  V30 25 C -5.049609 -3.957987 -1.289886 0
M  V30 26 C -4.702379 -3.025873 -0.157519 0
M  V30 27 H -0.040753 -4.854123 3.678015 0
M  V30 28 H -0.163708 -3.951818 5.145013 0
M  V30 29 H 2.820377 -0.596520 2.677347 0
M  V30 30 H 0.334706 -0.509118 -1.219778 0
M  V30 31 H 2.355088 3.786406 -1.736214 0
M  V30 32 H 4.521805 2.644028 0.061442 0
M  V30 33 H 4.498087 2.822791 -1.748531 0
M  V30 34 H 4.148344 5.408252 -1.148043 0
M  V30 35 H 5.762110 4.718298 -0.914446 0
M  V30 36 H 5.226839 4.171787 1.330397 0
M  V30 37 H 3.000321 5.751281 1.769294 0
M  V30 38 H 3.179254 4.026973 2.169096 0
M  V30 39 H 1.312417 4.211426 0.768407 0
M  V30 40 H 2.035703 5.445962 -0.259753 0
M  V30 41 H 2.518642 1.773161 1.680118 0
M  V30 42 H -0.761978 -1.220988 0.586174 0
M  V30 43 H -1.985488 -2.993520 -0.026108 0
M  V30 44 H -2.757272 -1.725978 0.942108 0
M  V30 45 H -4.289585 -3.513181 1.861068 0
M  V30 46 H -4.429519 -5.636839 1.044833 0
M  V30 47 H -2.705255 -5.374977 1.336787 0
M  V30 48 H -3.749454 -6.487224 -0.929818 0
M  V30 49 H -2.145303 -5.582576 -0.850052 0
M  V30 50 H -3.046386 -3.763221 -2.053652 0
M  V30 51 H -3.994137 -5.091917 -2.747089 0
M  V30 52 H -5.479755 -3.359163 -2.122035 0
M  V30 53 H -5.706647 -4.779507 -0.941175 0
M  V30 54 H -4.300163 -2.082637 -0.620782 0
M  V30 55 H -5.684555 -2.703249 0.285075 0
M  V30 END ATOM
M  V30 BEGIN BOND
M  V30 1 1 1 2
M  V30 2 2 2 3
M  V30 3 1 3 4
M  V30 4 2 4 5
M  V30 5 1 5 6
M  V30 6 1 6 7
M  V30 7 2 7 8
M  V30 8 1 8 9
M  V30 9 1 9 10
M  V30 10 1 10 11
M  V30 11 1 11 12
M  V30 12 1 12 13
M  V30 13 1 13 14
M  V30 14 1 14 15
M  V30 15 1 9 16
M  V30 16 1 5 17
M  V30 17 2 17 18
M  V30 18 1 18 19
M  V30 19 1 19 20
M  V30 20 1 20 21
M  V30 21 1 21 22
M  V30 22 1 22 23
M  V30 23 1 23 24
M  V30 24 1 24 25
M  V30 25 1 25 26
M  V30 26 1 18 2
M  V30 27 1 26 21
M  V30 28 2 16 6
M  V30 29 1 15 10
M  V30 30 1 1 27
M  V30 31 1 1 28
M  V30 32 1 4 29
M  V30 33 1 7 30
M  V30 34 1 10 31
M  V30 35 1 11 32
M  V30 36 1 11 33
M  V30 37 1 12 34
M  V30 38 1 12 35
M  V30 39 1 13 36
M  V30 40 1 14 37
M  V30 41 1 14 38
M  V30 42 1 15 39
M  V30 43 1 15 40
M  V30 44 1 16 41
M  V30 45 1 17 42
M  V30 46 1 20 43
M  V30 47 1 20 44
M  V30 48 1 21 45
M  V30 49 1 22 46
M  V30 50 1 22 47
M  V30 51 1 23 48
M  V30 52 1 23 49
M  V30 53 1 24 50
M  V30 54 1 24 51
M  V30 55 1 25 52
M  V30 56 1 25 53
M  V30 57 1 26 54
M  V30 58 1 26 55
M  V30 END BOND
M  V30 END CTAB
M  END
>  <Dataset>  (489) 
ChEMBL_Kinases

>  <Ligand_Instance>  (489) 
nan

>  <PDB_ID>  (489) 
nan

>  <Standardized_SMILES>  (489) 
Nc1ncc(-c2cnn(C3CCNCC3)c2)cc1OCC1CCCCC1

>  <Name>  (489) 
nan

>  <Pocket>  (489) 
nan

>  <ATP_Site>  (489) 
nan

>  <Peripheral>  (489) 
nan

>  <Num_H_Atoms_ProtBoundConf>  (489) 
nan

>  <Num_Resolved_Atoms>  (489) 
nan

>  <Num_Not_Resolved_Atoms>  (489) 
nan

$$$$
CHEMBL4289051
     RDKit          3D

  0  0  0  0  0  0  0  0  0  0999 V3000
M  V30 BEGIN CTAB
M  V30 COUNTS 75 79 0 0 0
M  V30 BEGIN ATOM
M  V30 1 C 0.416160 0.698821 5.716374 0
M  V30 2 C 0.703554 -0.684233 5.233952 0
M  V30 3 C 0.039409 -1.054008 3.936056 0
M  V30 4 C 0.454219 -0.149165 2.798503 0
M  V30 5 C -0.276157 -0.630098 1.579711 0 CFG=1
M  V30 6 S 0.101919 0.345267 0.107813 0
M  V30 7 C -0.489084 2.018205 0.232317 0
M  V30 8 N 0.214645 3.044702 0.744368 0
M  V30 9 C -0.279047 4.297976 0.815758 0
M  V30 10 C 0.464812 5.335251 1.346617 0
M  V30 11 C -0.055424 6.627352 1.415671 0
M  V30 12 C -1.325536 6.872151 0.949243 0
M  V30 13 C -2.076651 5.856481 0.420136 0
M  V30 14 C -1.563803 4.575223 0.350459 0
M  V30 15 C -2.276992 3.520821 -0.171513 0
M  V30 16 O -3.424311 3.809460 -0.578027 0
M  V30 17 N -1.733019 2.287340 -0.218064 0
M  V30 18 C -2.609211 1.320607 -0.789214 0
M  V30 19 C -3.666619 0.969331 0.021848 0
M  V30 20 C -4.603680 0.053021 -0.372812 0
M  V30 21 C -4.470540 -0.526014 -1.622109 0
M  V30 22 C -3.404479 -0.172922 -2.441841 0
M  V30 23 C -3.223107 -0.769871 -3.790302 0
M  V30 24 C -2.470056 0.745933 -2.038675 0
M  V30 25 C 0.041827 -2.043272 1.248708 0
M  V30 26 O -0.897728 -2.894579 1.347760 0
M  V30 27 N 1.334992 -2.530566 0.821952 0
M  V30 28 C 2.561125 -1.774981 0.601546 0
M  V30 29 C 3.265590 -2.212288 -0.646719 0
M  V30 30 C 2.456569 -3.077570 -1.567076 0
M  V30 31 C 1.829568 -4.254482 -0.854408 0 CFG=1
M  V30 32 C 0.536646 -4.617712 -1.551969 0
M  V30 33 C 0.818799 -4.849575 -3.020250 0
M  V30 34 C 1.897959 -5.873948 -3.158580 0
M  V30 35 N 2.355974 -6.410535 -1.913123 0
M  V30 36 C 2.759823 -5.432390 -0.957185 0
M  V30 37 C 1.500466 -3.938409 0.578472 0
M  V30 38 H -0.655659 0.796010 5.886230 0
M  V30 39 H 0.920337 0.791733 6.710652 0
M  V30 40 H 0.853530 1.488921 5.059790 0
M  V30 41 H 1.817629 -0.784428 5.155317 0
M  V30 42 H 0.391940 -1.387505 6.031207 0
M  V30 43 H -1.053814 -1.002085 4.068452 0
M  V30 44 H 0.282188 -2.119594 3.749047 0
M  V30 45 H 1.532265 -0.068992 2.713348 0
M  V30 46 H 0.000033 0.858229 3.039347 0
M  V30 47 H -1.352384 -0.545773 1.762838 0
M  V30 48 H 1.472207 5.094257 1.706539 0
M  V30 49 H 0.549322 7.436332 1.839842 0
M  V30 50 H -1.771503 7.855864 0.981431 0
M  V30 51 H -3.089464 6.068125 0.051425 0
M  V30 52 H -3.825699 1.385734 1.007937 0
M  V30 53 H -5.436309 -0.232479 0.249402 0
M  V30 54 H -5.177478 -1.248314 -1.978081 0
M  V30 55 H -2.779840 -0.089720 -4.525654 0
M  V30 56 H -4.247475 -1.049304 -4.129728 0
M  V30 57 H -2.658863 -1.736150 -3.734177 0
M  V30 58 H -1.609631 1.084410 -2.600514 0
M  V30 59 H 3.214301 -1.986601 1.472070 0
M  V30 60 H 2.380792 -0.663515 0.606795 0
M  V30 61 H 3.506036 -1.284279 -1.236818 0
M  V30 62 H 4.246262 -2.665042 -0.426066 0
M  V30 63 H 1.700902 -2.509762 -2.145808 0
M  V30 64 H 3.151714 -3.492350 -2.324429 0
M  V30 65 H -0.258207 -3.860117 -1.402567 0
M  V30 66 H 0.220806 -5.592383 -1.120689 0
M  V30 67 H -0.154426 -5.188357 -3.463143 0
M  V30 68 H 1.076871 -3.905175 -3.531284 0
M  V30 69 H 2.746486 -5.507251 -3.808455 0
M  V30 70 H 1.476123 -6.730121 -3.738630 0
M  V30 71 H 3.207285 -6.992790 -2.127185 0
M  V30 72 H 3.822598 -5.103726 -1.050685 0
M  V30 73 H 2.731763 -5.950756 0.045097 0
M  V30 74 H 2.394030 -4.251733 1.179050 0
M  V30 75 H 0.622832 -4.473750 0.953550 0
M  V30 END ATOM
M  V30 BEGIN BOND
M  V30 1 1 1 2
M  V30 2 1 2 3
M  V30 3 1 3 4
M  V30 4 1 4 5
M  V30 5 1 5 6
M  V30 6 1 6 7
M  V30 7 2 7 8
M  V30 8 1 8 9
M  V30 9 2 9 10
M  V30 10 1 10 11
M  V30 11 2 11 12
M  V30 12 1 12 13
M  V30 13 2 13 14
M  V30 14 1 14 15
M  V30 15 2 15 16
M  V30 16 1 15 17
M  V30 17 1 17 18
M  V30 18 2 18 19
M  V30 19 1 19 20
M  V30 20 2 20 21
M  V30 21 1 21 22
M  V30 22 1 22 23
M  V30 23 2 22 24
M  V30 24 1 5 25
M  V30 25 2 25 26
M  V30 26 1 25 27
M  V30 27 1 27 28
M  V30 28 1 28 29
M  V30 29 1 29 30
M  V30 30 1 31 30 CFG=3
M  V30 31 1 31 32
M  V30 32 1 32 33
M  V30 33 1 33 34
M  V30 34 1 34 35
M  V30 35 1 35 36
M  V30 36 1 31 37
M  V30 37 1 17 7
M  V30 38 1 24 18
M  V30 39 1 37 27
M  V30 40 1 14 9
M  V30 41 1 36 31
M  V30 42 1 1 38
M  V30 43 1 1 39
M  V30 44 1 1 40
M  V30 45 1 2 41
M  V30 46 1 2 42
M  V30 47 1 3 43
M  V30 48 1 3 44
M  V30 49 1 4 45
M  V30 50 1 4 46
M  V30 51 1 5 47 CFG=1
M  V30 52 1 10 48
M  V30 53 1 11 49
M  V30 54 1 12 50
M  V30 55 1 13 51
M  V30 56 1 19 52
M  V30 57 1 20 53
M  V30 58 1 21 54
M  V30 59 1 23 55
M  V30 60 1 23 56
M  V30 61 1 23 57
M  V30 62 1 24 58
M  V30 63 1 28 59
M  V30 64 1 28 60
M  V30 65 1 29 61
M  V30 66 1 29 62
M  V30 67 1 30 63
M  V30 68 1 30 64
M  V30 69 1 32 65
M  V30 70 1 32 66
M  V30 71 1 33 67
M  V30 72 1 33 68
M  V30 73 1 34 69
M  V30 74 1 34 70
M  V30 75 1 35 71
M  V30 76 1 36 72
M  V30 77 1 36 73
M  V30 78 1 37 74
M  V30 79 1 37 75
M  V30 END BOND
M  V30 END CTAB
M  END
>  <Dataset>  (490) 
ChEMBL_Kinases

>  <Ligand_Instance>  (490) 
nan

>  <PDB_ID>  (490) 
nan

>  <Standardized_SMILES>  (490) 
CCCC[C@@H](Sc1nc2ccccc2c(=O)n1-c1cccc(C)c1)C(=O)N1CCC[C@]2(CCCNC2)C1

>  <Name>  (490) 
nan

>  <Pocket>  (490) 
nan

>  <ATP_Site>  (490) 
nan

>  <Peripheral>  (490) 
nan

>  <Num_H_Atoms_ProtBoundConf>  (490) 
nan

>  <Num_Resolved_Atoms>  (490) 
nan

>  <Num_Not_Resolved_Atoms>  (490) 
nan

$$$$
CHEMBL4289040
     RDKit          3D

  0  0  0  0  0  0  0  0  0  0999 V3000
M  V30 BEGIN CTAB
M  V30 COUNTS 53 55 0 0 0
M  V30 BEGIN ATOM
M  V30 1 C 2.862474 -3.186354 0.118352 0
M  V30 2 O 2.222349 -1.933614 0.349075 0
M  V30 3 C 2.903999 -0.792525 -0.048171 0
M  V30 4 C 4.143989 -0.865537 -0.642356 0
M  V30 5 C 4.814771 0.268178 -1.032876 0
M  V30 6 C 6.160828 0.311442 -1.682017 0
M  V30 7 C 4.282875 1.549725 -0.851351 0
M  V30 8 S 5.078565 3.025321 -1.342675 0
M  V30 9 C 4.111566 4.456379 -0.932154 0
M  V30 10 O 5.231840 3.057265 -2.855799 0
M  V30 11 O 6.458440 3.161532 -0.783432 0
M  V30 12 C 3.044181 1.601776 -0.255661 0
M  V30 13 C 2.383201 0.488654 0.128040 0
M  V30 14 C 1.096407 0.637366 0.719127 0
M  V30 15 O 0.646170 1.861958 0.906305 0
M  V30 16 N -0.031245 0.199343 1.251388 0
M  V30 17 C -1.211340 -0.247328 1.808226 0
M  V30 18 C -1.899449 0.930742 2.175623 0
M  V30 19 C -3.171113 0.911323 2.771964 0
M  V30 20 C -3.656435 -0.373989 2.951114 0
M  V30 21 C -3.020364 -1.521753 2.609578 0
M  V30 22 C -3.459840 -2.902745 2.754103 0
M  V30 23 N -2.870400 -3.859285 3.527609 0
M  V30 24 N -3.585277 -4.989198 3.371645 0
M  V30 25 C -4.581824 -4.680814 2.511409 0
M  V30 26 N -4.534391 -3.404258 2.112082 0
M  V30 27 C -5.428397 -2.736224 1.211155 0
M  V30 28 C -4.893988 -2.828744 -0.206190 0
M  V30 29 C -6.814401 -3.337878 1.180282 0
M  V30 30 N -1.816288 -1.401657 2.049139 0
M  V30 31 H 3.731259 -3.340435 0.806251 0
M  V30 32 H 3.238745 -3.296783 -0.917828 0
M  V30 33 H 2.188247 -4.033977 0.324622 0
M  V30 34 H 4.641483 -1.820144 -0.826767 0
M  V30 35 H 6.476936 -0.736721 -1.841654 0
M  V30 36 H 6.046121 0.777519 -2.703064 0
M  V30 37 H 6.872250 0.858622 -1.054972 0
M  V30 38 H 4.180894 4.743190 0.136139 0
M  V30 39 H 3.033024 4.294800 -1.127661 0
M  V30 40 H 4.397314 5.333444 -1.546614 0
M  V30 41 H 2.620303 2.595512 -0.110990 0
M  V30 42 H 0.354507 -0.822499 1.087432 0
M  V30 43 H -1.605483 1.996336 2.076360 0
M  V30 44 H -3.782246 1.738771 3.088909 0
M  V30 45 H -4.630275 -0.516502 3.399454 0
M  V30 46 H -5.274105 -5.490552 2.260722 0
M  V30 47 H -5.486108 -1.650465 1.437505 0
M  V30 48 H -4.419447 -3.823183 -0.307900 0
M  V30 49 H -5.740187 -2.810956 -0.920070 0
M  V30 50 H -4.169594 -2.013755 -0.398717 0
M  V30 51 H -7.194715 -3.664407 2.150828 0
M  V30 52 H -6.876165 -4.184091 0.462509 0
M  V30 53 H -7.483593 -2.546809 0.719573 0
M  V30 END ATOM
M  V30 BEGIN BOND
M  V30 1 1 1 2
M  V30 2 1 2 3
M  V30 3 2 3 4
M  V30 4 1 4 5
M  V30 5 1 5 6
M  V30 6 2 5 7
M  V30 7 1 7 8
M  V30 8 1 8 9
M  V30 9 2 8 10
M  V30 10 2 8 11
M  V30 11 1 7 12
M  V30 12 2 12 13
M  V30 13 1 13 14
M  V30 14 2 14 15
M  V30 15 1 14 16
M  V30 16 1 16 17
M  V30 17 2 17 18
M  V30 18 1 18 19
M  V30 19 2 19 20
M  V30 20 1 20 21
M  V30 21 1 21 22
M  V30 22 2 22 23
M  V30 23 1 23 24
M  V30 24 2 24 25
M  V30 25 1 25 26
M  V30 26 1 26 27
M  V30 27 1 27 28
M  V30 28 1 27 29
M  V30 29 2 21 30
M  V30 30 1 13 3
M  V30 31 1 30 17
M  V30 32 1 26 22
M  V30 33 1 1 31
M  V30 34 1 1 32
M  V30 35 1 1 33
M  V30 36 1 4 34
M  V30 37 1 6 35
M  V30 38 1 6 36
M  V30 39 1 6 37
M  V30 40 1 9 38
M  V30 41 1 9 39
M  V30 42 1 9 40
M  V30 43 1 12 41
M  V30 44 1 16 42
M  V30 45 1 18 43
M  V30 46 1 19 44
M  V30 47 1 20 45
M  V30 48 1 25 46
M  V30 49 1 27 47
M  V30 50 1 28 48
M  V30 51 1 28 49
M  V30 52 1 28 50
M  V30 53 1 29 51
M  V30 54 1 29 52
M  V30 55 1 29 53
M  V30 END BOND
M  V30 END CTAB
M  END
>  <Dataset>  (491) 
ChEMBL_Kinases

>  <Ligand_Instance>  (491) 
nan

>  <PDB_ID>  (491) 
nan

>  <Standardized_SMILES>  (491) 
COc1cc(C)c(S(C)(=O)=O)cc1C(=O)Nc1cccc(-c2nncn2C(C)C)n1

>  <Name>  (491) 
nan

>  <Pocket>  (491) 
nan

>  <ATP_Site>  (491) 
nan

>  <Peripheral>  (491) 
nan

>  <Num_H_Atoms_ProtBoundConf>  (491) 
nan

>  <Num_Resolved_Atoms>  (491) 
nan

>  <Num_Not_Resolved_Atoms>  (491) 
nan

$$$$
CHEMBL4757418
     RDKit          3D

  0  0  0  0  0  0  0  0  0  0999 V3000
M  V30 BEGIN CTAB
M  V30 COUNTS 50 54 0 0 0
M  V30 BEGIN ATOM
M  V30 1 C 0.432730 -1.167199 3.508129 0
M  V30 2 O 1.419816 -0.580529 2.718083 0
M  V30 3 C 2.781263 -0.774712 2.800907 0
M  V30 4 C 3.385370 -1.615579 3.719605 0
M  V30 5 C 4.750048 -1.787604 3.776190 0
M  V30 6 N 5.497178 -1.103322 2.897456 0
M  V30 7 C 4.937401 -0.272378 1.985663 0
M  V30 8 C 3.569844 -0.071516 1.895687 0
M  V30 9 C 2.998644 0.824741 0.908816 0
M  V30 10 C 3.670644 2.048062 0.805378 0
M  V30 11 C 3.172603 2.959917 -0.127453 0
M  V30 12 C 2.072386 2.660364 -0.903647 0
M  V30 13 C 1.350376 3.310555 -1.883079 0
M  V30 14 N 0.362685 2.511447 -2.285558 0
M  V30 15 N 0.394388 1.349915 -1.613609 0
M  V30 16 C -0.555329 0.318968 -1.854891 0
M  V30 17 C -0.825608 0.034651 -3.188882 0
M  V30 18 C -1.741580 -0.959627 -3.424678 0
M  V30 19 N -2.386941 -1.668072 -2.487404 0
M  V30 20 C -2.125854 -1.393521 -1.185403 0
M  V30 21 N -2.783921 -2.116614 -0.133597 0
M  V30 22 C -2.624228 -1.952902 1.288845 0
M  V30 23 C -3.965348 -1.584106 1.930877 0
M  V30 24 O -5.012468 -2.213588 1.251103 0
M  V30 25 C -4.589151 -3.434703 0.713034 0
M  V30 26 C -3.736248 -3.149808 -0.501797 0
M  V30 27 C -1.213772 -0.403943 -0.884264 0
M  V30 28 C 1.437284 1.443130 -0.771979 0
M  V30 29 C 1.897537 0.514068 0.138034 0
M  V30 30 H 0.718566 -1.328640 4.563017 0
M  V30 31 H -0.430692 -0.453156 3.548777 0
M  V30 32 H 0.075861 -2.147488 3.129380 0
M  V30 33 H 2.757743 -2.150321 4.410929 0
M  V30 34 H 5.148621 -2.470560 4.532110 0
M  V30 35 H 5.555708 0.274372 1.281284 0
M  V30 36 H 4.534843 2.303532 1.403863 0
M  V30 37 H 3.649815 3.935940 -0.260474 0
M  V30 38 H 1.596131 4.312315 -2.228663 0
M  V30 39 H -0.379685 0.525808 -4.065263 0
M  V30 40 H -2.001679 -1.235182 -4.438932 0
M  V30 41 H -1.924481 -1.169938 1.580266 0
M  V30 42 H -2.338929 -2.934438 1.745609 0
M  V30 43 H -3.939270 -1.891963 3.003032 0
M  V30 44 H -4.076193 -0.488228 1.802227 0
M  V30 45 H -5.510067 -3.956396 0.366156 0
M  V30 46 H -4.020389 -4.048889 1.431961 0
M  V30 47 H -3.158626 -4.052256 -0.750683 0
M  V30 48 H -4.385200 -2.812046 -1.350816 0
M  V30 49 H -0.957849 -0.132835 0.113457 0
M  V30 50 H 1.417544 -0.447163 0.260461 0
M  V30 END ATOM
M  V30 BEGIN BOND
M  V30 1 1 1 2
M  V30 2 1 2 3
M  V30 3 2 3 4
M  V30 4 1 4 5
M  V30 5 2 5 6
M  V30 6 1 6 7
M  V30 7 2 7 8
M  V30 8 1 8 9
M  V30 9 2 9 10
M  V30 10 1 10 11
M  V30 11 2 11 12
M  V30 12 1 12 13
M  V30 13 2 13 14
M  V30 14 1 14 15
M  V30 15 1 15 16
M  V30 16 2 16 17
M  V30 17 1 17 18
M  V30 18 2 18 19
M  V30 19 1 19 20
M  V30 20 1 20 21
M  V30 21 1 21 22
M  V30 22 1 22 23
M  V30 23 1 23 24
M  V30 24 1 24 25
M  V30 25 1 25 26
M  V30 26 2 20 27
M  V30 27 1 15 28
M  V30 28 2 28 29
M  V30 29 1 8 3
M  V30 30 1 29 9
M  V30 31 1 28 12
M  V30 32 1 27 16
M  V30 33 1 26 21
M  V30 34 1 1 30
M  V30 35 1 1 31
M  V30 36 1 1 32
M  V30 37 1 4 33
M  V30 38 1 5 34
M  V30 39 1 7 35
M  V30 40 1 10 36
M  V30 41 1 11 37
M  V30 42 1 13 38
M  V30 43 1 17 39
M  V30 44 1 18 40
M  V30 45 1 22 41
M  V30 46 1 22 42
M  V30 47 1 23 43
M  V30 48 1 23 44
M  V30 49 1 25 45
M  V30 50 1 25 46
M  V30 51 1 26 47
M  V30 52 1 26 48
M  V30 53 1 27 49
M  V30 54 1 29 50
M  V30 END BOND
M  V30 END CTAB
M  END
>  <Dataset>  (492) 
ChEMBL_Kinases

>  <Ligand_Instance>  (492) 
nan

>  <PDB_ID>  (492) 
nan

>  <Standardized_SMILES>  (492) 
COc1ccncc1-c1ccc2cnn(-c3ccnc(N4CCOCC4)c3)c2c1

>  <Name>  (492) 
nan

>  <Pocket>  (492) 
nan

>  <ATP_Site>  (492) 
nan

>  <Peripheral>  (492) 
nan

>  <Num_H_Atoms_ProtBoundConf>  (492) 
nan

>  <Num_Resolved_Atoms>  (492) 
nan

>  <Num_Not_Resolved_Atoms>  (492) 
nan

$$$$
CHEMBL428900
     RDKit          3D

  0  0  0  0  0  0  0  0  0  0999 V3000
M  V30 BEGIN CTAB
M  V30 COUNTS 65 69 0 0 0
M  V30 BEGIN ATOM
M  V30 1 C 4.299935 -2.191970 5.404983 0
M  V30 2 C 5.051250 -1.581444 4.252742 0
M  V30 3 C 5.841097 -2.690981 3.586861 0
M  V30 4 N 4.186544 -0.867328 3.333304 0
M  V30 5 C 3.240675 -1.830041 2.805555 0
M  V30 6 C 2.289156 -1.167958 1.840518 0
M  V30 7 C 1.087549 -0.632334 2.262203 0
M  V30 8 C 0.269076 -0.034174 1.324366 0
M  V30 9 N 0.584322 0.055125 0.006927 0
M  V30 10 C -0.069049 0.598270 -1.059849 0
M  V30 11 C -1.370425 1.242497 -0.895198 0
M  V30 12 C -1.423409 2.604701 -1.093567 0
M  V30 13 C -2.649140 3.215440 -0.939886 0
M  V30 14 N -3.750933 2.518952 -0.610922 0
M  V30 15 C -3.699759 1.175108 -0.415073 0
M  V30 16 N -4.853423 0.399050 -0.066282 0
M  V30 17 C -4.876175 -1.017511 0.120658 0 CFG=1
M  V30 18 C -4.430813 -1.648951 -1.178627 0
M  V30 19 C -4.145521 -1.527247 1.279922 0
M  V30 20 C -3.354104 -2.654419 1.069909 0
M  V30 21 C -2.608216 -3.247705 2.083258 0
M  V30 22 C -2.700863 -2.642879 3.330846 0
M  V30 23 C -3.473514 -1.538141 3.545767 0
M  V30 24 C -4.205490 -0.969125 2.516543 0
M  V30 25 N -2.512151 0.603962 -0.567017 0
M  V30 26 C 0.747092 0.394964 -2.177775 0
M  V30 27 C 0.367417 0.850127 -3.509886 0
M  V30 28 C -0.784482 0.260257 -3.984298 0
M  V30 29 C -1.311078 0.563118 -5.242759 0
M  V30 30 C -0.618187 1.501748 -6.020076 0
M  V30 31 F -1.029695 1.878928 -7.263316 0
M  V30 32 C 0.533250 2.083912 -5.531345 0
M  V30 33 C 1.052512 1.785542 -4.291024 0
M  V30 34 N 1.863242 -0.261394 -1.752576 0
M  V30 35 C 1.770170 -0.472626 -0.415321 0
M  V30 36 C 2.612854 -1.078451 0.497342 0
M  V30 37 H 4.063980 -3.262385 5.224860 0
M  V30 38 H 5.018095 -2.203692 6.273983 0
M  V30 39 H 3.433880 -1.619662 5.745215 0
M  V30 40 H 5.772323 -0.830787 4.636877 0
M  V30 41 H 6.719836 -2.934140 4.223580 0
M  V30 42 H 6.219950 -2.387322 2.608202 0
M  V30 43 H 5.243680 -3.626818 3.483916 0
M  V30 44 H 4.810387 -0.604388 2.513154 0
M  V30 45 H 2.709387 -2.274442 3.666383 0
M  V30 46 H 3.831494 -2.631461 2.327239 0
M  V30 47 H 0.834923 -0.701137 3.299894 0
M  V30 48 H -0.673885 0.377161 1.706904 0
M  V30 49 H -0.552365 3.190834 -1.358185 0
M  V30 50 H -2.702936 4.283370 -1.092002 0
M  V30 51 H -5.745832 0.973055 0.052869 0
M  V30 52 H -5.943323 -1.336519 0.247139 0
M  V30 53 H -4.814523 -2.684076 -1.267678 0
M  V30 54 H -3.320024 -1.605926 -1.289803 0
M  V30 55 H -4.832118 -1.017808 -2.003342 0
M  V30 56 H -3.293312 -3.118100 0.083422 0
M  V30 57 H -2.006029 -4.127661 1.866083 0
M  V30 58 H -2.111530 -3.126025 4.098417 0
M  V30 59 H -3.499366 -1.112908 4.556851 0
M  V30 60 H -4.823568 -0.095653 2.669678 0
M  V30 61 H -1.383653 -0.472011 -3.453398 0
M  V30 62 H -2.208652 0.133355 -5.672168 0
M  V30 63 H 1.135648 2.821576 -6.062512 0
M  V30 64 H 1.946721 2.202656 -3.847425 0
M  V30 65 H 3.560035 -1.493914 0.119728 0
M  V30 END ATOM
M  V30 BEGIN BOND
M  V30 1 1 1 2
M  V30 2 1 2 3
M  V30 3 1 2 4
M  V30 4 1 4 5
M  V30 5 1 5 6
M  V30 6 1 6 7
M  V30 7 2 7 8
M  V30 8 1 8 9
M  V30 9 1 9 10
M  V30 10 1 10 11
M  V30 11 2 11 12
M  V30 12 1 12 13
M  V30 13 2 13 14
M  V30 14 1 14 15
M  V30 15 1 15 16
M  V30 16 1 16 17
M  V30 17 1 17 18
M  V30 18 1 17 19
M  V30 19 2 19 20
M  V30 20 1 20 21
M  V30 21 2 21 22
M  V30 22 1 22 23
M  V30 23 2 23 24
M  V30 24 2 15 25
M  V30 25 2 10 26
M  V30 26 1 26 27
M  V30 27 2 27 28
M  V30 28 1 28 29
M  V30 29 2 29 30
M  V30 30 1 30 31
M  V30 31 1 30 32
M  V30 32 2 32 33
M  V30 33 1 26 34
M  V30 34 2 34 35
M  V30 35 1 35 36
M  V30 36 2 36 6
M  V30 37 1 35 9
M  V30 38 1 25 11
M  V30 39 1 33 27
M  V30 40 1 24 19
M  V30 41 1 1 37
M  V30 42 1 1 38
M  V30 43 1 1 39
M  V30 44 1 2 40
M  V30 45 1 3 41
M  V30 46 1 3 42
M  V30 47 1 3 43
M  V30 48 1 4 44
M  V30 49 1 5 45
M  V30 50 1 5 46
M  V30 51 1 7 47
M  V30 52 1 8 48
M  V30 53 1 12 49
M  V30 54 1 13 50
M  V30 55 1 16 51
M  V30 56 1 17 52 CFG=1
M  V30 57 1 18 53
M  V30 58 1 18 54
M  V30 59 1 18 55
M  V30 60 1 20 56
M  V30 61 1 21 57
M  V30 62 1 22 58
M  V30 63 1 23 59
M  V30 64 1 24 60
M  V30 65 1 28 61
M  V30 66 1 29 62
M  V30 67 1 32 63
M  V30 68 1 33 64
M  V30 69 1 36 65
M  V30 END BOND
M  V30 END CTAB
M  END
>  <Dataset>  (493) 
ChEMBL_Kinases

>  <Ligand_Instance>  (493) 
nan

>  <PDB_ID>  (493) 
nan

>  <Standardized_SMILES>  (493) 
CC(C)NCc1ccn2c(-c3ccnc(N[C@@H](C)c4ccccc4)n3)c(-c3ccc(F)cc3)nc2c1

>  <Name>  (493) 
nan

>  <Pocket>  (493) 
nan

>  <ATP_Site>  (493) 
nan

>  <Peripheral>  (493) 
nan

>  <Num_H_Atoms_ProtBoundConf>  (493) 
nan

>  <Num_Resolved_Atoms>  (493) 
nan

>  <Num_Not_Resolved_Atoms>  (493) 
nan

$$$$
CHEMBL4288921
     RDKit          3D

  0  0  0  0  0  0  0  0  0  0999 V3000
M  V30 BEGIN CTAB
M  V30 COUNTS 65 70 0 0 0
M  V30 BEGIN ATOM
M  V30 1 C 4.960292 0.562602 4.878537 0
M  V30 2 C 5.754208 -0.034213 3.785307 0 CFG=2
M  V30 3 C 6.964303 0.790726 3.392751 0
M  V30 4 N 7.902755 -0.131104 2.773126 0
M  V30 5 C 7.279314 -1.334261 2.325641 0
M  V30 6 C 5.929406 -1.147951 1.673820 0 CFG=2
M  V30 7 C 6.056186 -0.519895 0.304308 0
M  V30 8 N 5.072604 -0.365786 2.569360 0
M  V30 9 C 3.786482 -0.122872 2.065380 0
M  V30 10 C 3.327854 -0.876172 1.006724 0
M  V30 11 C 2.066609 -0.689694 0.452433 0
M  V30 12 C 1.210217 0.270955 0.946495 0
M  V30 13 C -0.113937 0.455307 0.354528 0
M  V30 14 C -0.691902 -0.699187 -0.153406 0
M  V30 15 N -1.913097 -0.588945 -0.711434 0
M  V30 16 C -2.563038 0.578527 -0.784268 0
M  V30 17 C -3.803165 0.875917 -1.312955 0
M  V30 18 C -4.703728 -0.090790 -1.936488 0
M  V30 19 C -4.725212 -0.413841 -3.277406 0
M  V30 20 C -5.588776 -1.328185 -3.826239 0
M  V30 21 C -6.490092 -1.964683 -2.994339 0
M  V30 22 S -7.620869 -3.144353 -3.632183 0
M  V30 23 N -7.423048 -4.689654 -2.917291 0
M  V30 24 O -9.043869 -2.708606 -3.309674 0
M  V30 25 O -7.509886 -3.264343 -5.109403 0
M  V30 26 C -6.521901 -1.687970 -1.642888 0
M  V30 27 C -7.432275 -2.334378 -0.816133 0
M  V30 28 C -7.414189 -2.010359 0.545952 0
M  V30 29 C -6.545007 -1.086098 1.116221 0
M  V30 30 C -5.688952 -0.506816 0.211655 0
M  V30 31 C -5.631071 -0.759783 -1.143156 0
M  V30 32 C -3.935150 2.254270 -1.096817 0
M  V30 33 N -2.815817 2.686057 -0.478054 0
M  V30 34 N -1.972716 1.676702 -0.281906 0
M  V30 35 C -0.755726 1.675263 0.296075 0
M  V30 36 C 1.622037 1.052667 2.006708 0
M  V30 37 C 2.882561 0.815968 2.507855 0
M  V30 38 H 4.001262 0.025244 4.990703 0
M  V30 39 H 5.519562 0.349120 5.839055 0
M  V30 40 H 4.877323 1.668406 4.881359 0
M  V30 41 H 6.202411 -0.987218 4.212331 0
M  V30 42 H 6.637931 1.470453 2.578217 0
M  V30 43 H 7.381568 1.391661 4.199382 0
M  V30 44 H 8.450900 0.298037 2.022156 0
M  V30 45 H 7.307132 -2.181503 3.053855 0
M  V30 46 H 7.944754 -1.717868 1.485162 0
M  V30 47 H 5.525350 -2.185394 1.542327 0
M  V30 48 H 5.297531 0.235500 0.074279 0
M  V30 49 H 7.094948 -0.096658 0.259453 0
M  V30 50 H 6.024290 -1.306692 -0.476940 0
M  V30 51 H 3.873007 -1.664330 0.507696 0
M  V30 52 H 1.694204 -1.272927 -0.377685 0
M  V30 53 H -0.288669 -1.694766 -0.162513 0
M  V30 54 H -3.994129 0.114709 -3.896996 0
M  V30 55 H -5.598211 -1.571363 -4.862843 0
M  V30 56 H -6.673697 -4.694024 -2.161530 0
M  V30 57 H -7.040312 -5.337485 -3.639267 0
M  V30 58 H -8.138547 -3.064144 -1.186386 0
M  V30 59 H -8.139708 -2.530301 1.183714 0
M  V30 60 H -6.566294 -0.870882 2.155488 0
M  V30 61 H -4.980978 0.228379 0.599314 0
M  V30 62 H -4.826972 2.786674 -1.412321 0
M  V30 63 H -0.275057 2.552004 0.701539 0
M  V30 64 H 0.958364 1.790265 2.382615 0
M  V30 65 H 3.139568 1.462273 3.323792 0
M  V30 END ATOM
M  V30 BEGIN BOND
M  V30 1 1 1 2
M  V30 2 1 2 3
M  V30 3 1 3 4
M  V30 4 1 4 5
M  V30 5 1 5 6
M  V30 6 1 6 7
M  V30 7 1 6 8
M  V30 8 1 8 9
M  V30 9 2 9 10
M  V30 10 1 10 11
M  V30 11 2 11 12
M  V30 12 1 12 13
M  V30 13 1 13 14
M  V30 14 2 14 15
M  V30 15 1 15 16
M  V30 16 2 16 17
M  V30 17 1 17 18
M  V30 18 2 18 19
M  V30 19 1 19 20
M  V30 20 2 20 21
M  V30 21 1 21 22
M  V30 22 1 22 23
M  V30 23 2 22 24
M  V30 24 2 22 25
M  V30 25 1 21 26
M  V30 26 2 26 27
M  V30 27 1 27 28
M  V30 28 2 28 29
M  V30 29 1 29 30
M  V30 30 2 30 31
M  V30 31 1 17 32
M  V30 32 2 32 33
M  V30 33 1 33 34
M  V30 34 1 34 35
M  V30 35 1 12 36
M  V30 36 2 36 37
M  V30 37 1 8 2
M  V30 38 1 37 9
M  V30 39 2 35 13
M  V30 40 1 34 16
M  V30 41 1 31 18
M  V30 42 1 31 26
M  V30 43 1 1 38
M  V30 44 1 1 39
M  V30 45 1 1 40
M  V30 46 1 2 41 CFG=1
M  V30 47 1 3 42
M  V30 48 1 3 43
M  V30 49 1 4 44
M  V30 50 1 5 45
M  V30 51 1 5 46
M  V30 52 1 6 47 CFG=3
M  V30 53 1 7 48
M  V30 54 1 7 49
M  V30 55 1 7 50
M  V30 56 1 10 51
M  V30 57 1 11 52
M  V30 58 1 14 53
M  V30 59 1 19 54
M  V30 60 1 20 55
M  V30 61 1 23 56
M  V30 62 1 23 57
M  V30 63 1 27 58
M  V30 64 1 28 59
M  V30 65 1 29 60
M  V30 66 1 30 61
M  V30 67 1 32 62
M  V30 68 1 35 63
M  V30 69 1 36 64
M  V30 70 1 37 65
M  V30 END BOND
M  V30 END CTAB
M  END
>  <Dataset>  (494) 
ChEMBL_Kinases

>  <Ligand_Instance>  (494) 
nan

>  <PDB_ID>  (494) 
nan

>  <Standardized_SMILES>  (494) 
C[C@@H]1CNC[C@H](C)N1c1ccc(-c2cnc3c(-c4ccc(S(N)(=O)=O)c5ccccc45)cnn3c2)cc1

>  <Name>  (494) 
nan

>  <Pocket>  (494) 
nan

>  <ATP_Site>  (494) 
nan

>  <Peripheral>  (494) 
nan

>  <Num_H_Atoms_ProtBoundConf>  (494) 
nan

>  <Num_Resolved_Atoms>  (494) 
nan

>  <Num_Not_Resolved_Atoms>  (494) 
nan

$$$$
CHEMBL4289487
     RDKit          3D

  0  0  0  0  0  0  0  0  0  0999 V3000
M  V30 BEGIN CTAB
M  V30 COUNTS 48 51 0 0 0
M  V30 BEGIN ATOM
M  V30 1 C 3.086088 -5.421687 1.436650 0
M  V30 2 C 2.944764 -4.089328 0.779849 0
M  V30 3 C 4.030724 -3.625879 0.064386 0
M  V30 4 C 3.909437 -2.389222 -0.549419 0
M  V30 5 C 2.726729 -1.658934 -0.435282 0
M  V30 6 C 1.659706 -2.146994 0.285305 0
M  V30 7 C 0.451488 -1.333143 0.365246 0
M  V30 8 N -0.698901 -1.841448 -0.167433 0
M  V30 9 N -1.677023 -0.975973 -0.004546 0
M  V30 10 C -1.235555 0.133192 0.633733 0
M  V30 11 C 0.104707 -0.080025 0.872134 0
M  V30 12 C 1.124428 0.710892 1.505968 0
M  V30 13 C 1.535250 1.970537 1.055363 0
M  V30 14 C 2.519250 2.695604 1.695712 0
M  V30 15 N 3.142069 2.215300 2.805696 0
M  V30 16 C 2.781269 1.004665 3.279810 0
M  V30 17 C 1.786448 0.248284 2.649942 0
M  V30 18 C -2.301150 1.119306 0.831914 0
M  V30 19 C -1.898508 2.532391 0.514179 0
M  V30 20 C -3.423832 0.591987 -0.007553 0
M  V30 21 C -3.516685 1.419868 -1.265594 0
M  V30 22 C -4.746727 0.603419 0.741909 0
M  V30 23 C -3.070863 -0.842736 -0.294384 0
M  V30 24 C 1.781165 -3.385197 0.899978 0
M  V30 25 C 0.650208 -3.871162 1.647082 0
M  V30 26 N -0.261379 -4.271133 2.229587 0
M  V30 27 H 3.544150 -6.150207 0.760607 0
M  V30 28 H 3.771319 -5.235593 2.311589 0
M  V30 29 H 2.128584 -5.750175 1.871786 0
M  V30 30 H 4.941348 -4.235060 0.001938 0
M  V30 31 H 4.789435 -2.051545 -1.108520 0
M  V30 32 H 2.750381 -0.730374 -0.945052 0
M  V30 33 H 1.000357 2.292311 0.170416 0
M  V30 34 H 2.697560 3.651124 1.193992 0
M  V30 35 H 3.280223 0.628924 4.162204 0
M  V30 36 H 1.551647 -0.721479 3.095370 0
M  V30 37 H -2.669282 1.121488 1.886722 0
M  V30 38 H -2.827176 3.153345 0.687137 0
M  V30 39 H -1.209418 2.868273 1.311581 0
M  V30 40 H -1.540616 2.673585 -0.506916 0
M  V30 41 H -4.337267 1.065443 -1.932222 0
M  V30 42 H -2.535740 1.406494 -1.759719 0
M  V30 43 H -3.781656 2.450123 -0.971329 0
M  V30 44 H -4.851907 1.497338 1.368966 0
M  V30 45 H -5.546102 0.604625 -0.041104 0
M  V30 46 H -4.834821 -0.349534 1.287636 0
M  V30 47 H -3.362808 -1.161197 -1.315240 0
M  V30 48 H -3.617294 -1.507705 0.394652 0
M  V30 END ATOM
M  V30 BEGIN BOND
M  V30 1 1 1 2
M  V30 2 2 2 3
M  V30 3 1 3 4
M  V30 4 2 4 5
M  V30 5 1 5 6
M  V30 6 1 6 7
M  V30 7 2 7 8
M  V30 8 1 8 9
M  V30 9 1 9 10
M  V30 10 2 10 11
M  V30 11 1 11 12
M  V30 12 2 12 13
M  V30 13 1 13 14
M  V30 14 2 14 15
M  V30 15 1 15 16
M  V30 16 2 16 17
M  V30 17 1 10 18
M  V30 18 1 18 19
M  V30 19 1 18 20
M  V30 20 1 20 21
M  V30 21 1 20 22
M  V30 22 1 20 23
M  V30 23 2 6 24
M  V30 24 1 24 25
M  V30 25 3 25 26
M  V30 26 1 24 2
M  V30 27 1 11 7
M  V30 28 1 17 12
M  V30 29 1 23 9
M  V30 30 1 1 27
M  V30 31 1 1 28
M  V30 32 1 1 29
M  V30 33 1 3 30
M  V30 34 1 4 31
M  V30 35 1 5 32
M  V30 36 1 13 33
M  V30 37 1 14 34
M  V30 38 1 16 35
M  V30 39 1 17 36
M  V30 40 1 18 37
M  V30 41 1 19 38
M  V30 42 1 19 39
M  V30 43 1 19 40
M  V30 44 1 21 41
M  V30 45 1 21 42
M  V30 46 1 21 43
M  V30 47 1 22 44
M  V30 48 1 22 45
M  V30 49 1 22 46
M  V30 50 1 23 47
M  V30 51 1 23 48
M  V30 END BOND
M  V30 END CTAB
M  END
>  <Dataset>  (495) 
ChEMBL_Kinases

>  <Ligand_Instance>  (495) 
nan

>  <PDB_ID>  (495) 
nan

>  <Standardized_SMILES>  (495) 
Cc1cccc(-c2nn3c(c2-c2ccncc2)C(C)C(C)(C)C3)c1C#N

>  <Name>  (495) 
nan

>  <Pocket>  (495) 
nan

>  <ATP_Site>  (495) 
nan

>  <Peripheral>  (495) 
nan

>  <Num_H_Atoms_ProtBoundConf>  (495) 
nan

>  <Num_Resolved_Atoms>  (495) 
nan

>  <Num_Not_Resolved_Atoms>  (495) 
nan

$$$$
CHEMBL4291029
     RDKit          3D

  0  0  0  0  0  0  0  0  0  0999 V3000
M  V30 BEGIN CTAB
M  V30 COUNTS 32 34 0 0 0
M  V30 BEGIN ATOM
M  V30 1 C -1.186068 -2.665132 4.757313 0
M  V30 2 O -0.608731 -3.463351 3.734817 0
M  V30 3 C -0.254685 -2.860654 2.536402 0
M  V30 4 C 0.305016 -3.716958 1.588321 0
M  V30 5 C 0.681564 -3.170062 0.362998 0
M  V30 6 C 0.523817 -1.832877 0.056911 0
M  V30 7 C 0.786009 -1.032354 -1.016115 0
M  V30 8 C 1.345863 -1.355703 -2.247546 0
M  V30 9 C 1.500197 -0.358792 -3.158951 0
M  V30 10 N 1.120250 0.867826 -2.853928 0
M  V30 11 C 0.565416 1.243453 -1.662792 0
M  V30 12 C 0.156311 2.621781 -1.380846 0
M  V30 13 C 0.388536 0.266708 -0.704884 0
M  V30 14 N -0.116226 0.273169 0.551759 0
M  V30 15 C -0.635011 1.375859 1.292418 0
M  V30 16 C 0.411553 2.048199 2.102715 0
M  V30 17 N 1.250711 2.584439 2.727100 0
M  V30 18 C -0.023762 -1.018376 0.996622 0
M  V30 19 C -0.410338 -1.533027 2.230096 0
M  V30 20 H -0.415098 -1.991893 5.219164 0
M  V30 21 H -1.627819 -3.283910 5.559463 0
M  V30 22 H -1.962177 -2.021522 4.325058 0
M  V30 23 H 0.444764 -4.766389 1.788817 0
M  V30 24 H 1.122588 -3.824596 -0.394612 0
M  V30 25 H 1.657232 -2.362104 -2.497152 0
M  V30 26 H 1.932007 -0.593344 -4.116281 0
M  V30 27 H 0.625987 3.123176 -0.544284 0
M  V30 28 H 0.514170 3.235656 -2.266586 0
M  V30 29 H -0.957520 2.767683 -1.468711 0
M  V30 30 H -1.306242 0.947839 2.101636 0
M  V30 31 H -1.281733 2.073579 0.784289 0
M  V30 32 H -0.848696 -0.922623 3.004164 0
M  V30 END ATOM
M  V30 BEGIN BOND
M  V30 1 1 1 2
M  V30 2 1 2 3
M  V30 3 2 3 4
M  V30 4 1 4 5
M  V30 5 2 5 6
M  V30 6 1 6 7
M  V30 7 2 7 8
M  V30 8 1 8 9
M  V30 9 2 9 10
M  V30 10 1 10 11
M  V30 11 1 11 12
M  V30 12 2 11 13
M  V30 13 1 13 14
M  V30 14 1 14 15
M  V30 15 1 15 16
M  V30 16 3 16 17
M  V30 17 1 14 18
M  V30 18 2 18 19
M  V30 19 1 19 3
M  V30 20 1 18 6
M  V30 21 1 13 7
M  V30 22 1 1 20
M  V30 23 1 1 21
M  V30 24 1 1 22
M  V30 25 1 4 23
M  V30 26 1 5 24
M  V30 27 1 8 25
M  V30 28 1 9 26
M  V30 29 1 12 27
M  V30 30 1 12 28
M  V30 31 1 12 29
M  V30 32 1 15 30
M  V30 33 1 15 31
M  V30 34 1 19 32
M  V30 END BOND
M  V30 END CTAB
M  END
>  <Dataset>  (496) 
ChEMBL_Kinases

>  <Ligand_Instance>  (496) 
nan

>  <PDB_ID>  (496) 
nan

>  <Standardized_SMILES>  (496) 
COc1ccc2c3ccnc(C)c3n(CC#N)c2c1

>  <Name>  (496) 
nan

>  <Pocket>  (496) 
nan

>  <ATP_Site>  (496) 
nan

>  <Peripheral>  (496) 
nan

>  <Num_H_Atoms_ProtBoundConf>  (496) 
nan

>  <Num_Resolved_Atoms>  (496) 
nan

>  <Num_Not_Resolved_Atoms>  (496) 
nan

$$$$
CHEMBL429095
     RDKit          3D

  0  0  0  0  0  0  0  0  0  0999 V3000
M  V30 BEGIN CTAB
M  V30 COUNTS 34 35 0 0 0
M  V30 BEGIN ATOM
M  V30 1 O -1.837402 2.168304 1.833141 0
M  V30 2 C -1.340292 1.296339 1.053087 0
M  V30 3 C 0.061157 0.814213 1.059643 0
M  V30 4 S 0.935117 1.663809 2.320420 0
M  V30 5 C 2.500388 1.029194 2.823749 0
M  V30 6 C 2.488790 -0.249805 3.609064 0
M  V30 7 O 1.775881 -0.115301 4.807638 0
M  V30 8 C 0.336129 -0.116519 0.125730 0
M  V30 9 S 2.038448 -0.566412 0.282367 0
M  V30 10 C 2.380232 -2.026807 -0.713102 0
M  V30 11 C 1.763911 -3.281973 -0.139241 0
M  V30 12 O 2.022536 -4.398403 -0.933238 0
M  V30 13 C -0.676334 -0.583796 -0.788571 0
M  V30 14 O -0.298019 -1.442545 -1.605327 0
M  V30 15 C -2.042045 -0.110905 -0.789559 0
M  V30 16 C -2.880548 -0.662938 -1.729057 0
M  V30 17 C -4.193367 -0.202751 -1.723224 0
M  V30 18 C -4.603795 0.766663 -0.801005 0
M  V30 19 C -3.703221 1.269614 0.107674 0
M  V30 20 C -2.392222 0.859683 0.157335 0
M  V30 21 H 3.178359 0.887399 1.950041 0
M  V30 22 H 3.022592 1.812134 3.463120 0
M  V30 23 H 2.148206 -1.143803 3.096944 0
M  V30 24 H 3.555061 -0.434876 3.910079 0
M  V30 25 H 1.859639 -0.989156 5.263378 0
M  V30 26 H 1.967804 -1.903489 -1.754971 0
M  V30 27 H 3.475606 -2.187661 -0.860178 0
M  V30 28 H 0.721076 -3.177407 0.117199 0
M  V30 29 H 2.285039 -3.495881 0.849771 0
M  V30 30 H 2.525648 -4.199227 -1.744073 0
M  V30 31 H -2.539500 -1.408716 -2.429204 0
M  V30 32 H -4.921770 -0.571774 -2.415305 0
M  V30 33 H -5.637785 1.145010 -0.778176 0
M  V30 34 H -3.976926 2.014297 0.832094 0
M  V30 END ATOM
M  V30 BEGIN BOND
M  V30 1 2 1 2
M  V30 2 1 2 3
M  V30 3 1 3 4
M  V30 4 1 4 5
M  V30 5 1 5 6
M  V30 6 1 6 7
M  V30 7 2 3 8
M  V30 8 1 8 9
M  V30 9 1 9 10
M  V30 10 1 10 11
M  V30 11 1 11 12
M  V30 12 1 8 13
M  V30 13 2 13 14
M  V30 14 1 13 15
M  V30 15 2 15 16
M  V30 16 1 16 17
M  V30 17 2 17 18
M  V30 18 1 18 19
M  V30 19 2 19 20
M  V30 20 1 20 2
M  V30 21 1 20 15
M  V30 22 1 5 21
M  V30 23 1 5 22
M  V30 24 1 6 23
M  V30 25 1 6 24
M  V30 26 1 7 25
M  V30 27 1 10 26
M  V30 28 1 10 27
M  V30 29 1 11 28
M  V30 30 1 11 29
M  V30 31 1 12 30
M  V30 32 1 16 31
M  V30 33 1 17 32
M  V30 34 1 18 33
M  V30 35 1 19 34
M  V30 END BOND
M  V30 END CTAB
M  END
>  <Dataset>  (497) 
ChEMBL_Kinases

>  <Ligand_Instance>  (497) 
nan

>  <PDB_ID>  (497) 
nan

>  <Standardized_SMILES>  (497) 
O=C1C(SCCO)=C(SCCO)C(=O)c2ccccc21

>  <Name>  (497) 
nan

>  <Pocket>  (497) 
nan

>  <ATP_Site>  (497) 
nan

>  <Peripheral>  (497) 
nan

>  <Num_H_Atoms_ProtBoundConf>  (497) 
nan

>  <Num_Resolved_Atoms>  (497) 
nan

>  <Num_Not_Resolved_Atoms>  (497) 
nan

$$$$
CHEMBL4290892
     RDKit          3D

  0  0  0  0  0  0  0  0  0  0999 V3000
M  V30 BEGIN CTAB
M  V30 COUNTS 45 48 0 0 0
M  V30 BEGIN ATOM
M  V30 1 C -2.048273 -5.421694 1.299868 0
M  V30 2 C -0.846456 -4.539950 0.844933 0
M  V30 3 C -1.032803 -4.233232 -0.563610 0
M  V30 4 N -0.123593 -3.491843 -1.335621 0
M  V30 5 C 0.301461 -2.143975 -1.362017 0
M  V30 6 N 0.434566 -1.690750 -0.199206 0
M  V30 7 N 0.842153 -0.390117 0.042473 0
M  V30 8 C 1.121226 0.475389 -0.851844 0
M  V30 9 C 1.521091 1.756013 -0.274553 0
M  V30 10 C 1.867204 2.865746 -1.056291 0
M  V30 11 C 2.257600 4.098996 -0.582177 0
M  V30 12 C 2.307095 4.238670 0.782266 0
M  V30 13 N 2.642238 5.290639 1.555969 0
M  V30 14 C 2.527467 4.908311 2.859480 0
M  V30 15 O 2.769593 5.661211 3.863819 0
M  V30 16 N 2.118577 3.610609 2.936942 0
M  V30 17 C 1.991813 3.226368 1.657542 0
M  V30 18 C 1.614688 2.036398 1.082046 0
M  V30 19 C 1.114125 0.435667 -2.349447 0
M  V30 20 S 0.606014 -1.233256 -2.842620 0
M  V30 21 C -1.050076 -3.308418 1.689534 0
M  V30 22 C -0.159258 -2.955505 2.683320 0
M  V30 23 C -0.402915 -1.830229 3.449139 0
M  V30 24 C -1.498796 -1.032415 3.273420 0
M  V30 25 C -2.393704 -1.377318 2.283088 0
M  V30 26 C -2.171215 -2.501084 1.501421 0
M  V30 27 H -1.876190 -6.452679 0.913226 0
M  V30 28 H -1.949582 -5.439487 2.410343 0
M  V30 29 H -3.001605 -4.975611 1.036854 0
M  V30 30 H 0.022782 -5.110470 1.141165 0
M  V30 31 H -1.243614 -5.222313 -1.092433 0
M  V30 32 H -2.048227 -3.723083 -0.701716 0
M  V30 33 H 0.366886 -4.092866 -2.101645 0
M  V30 34 H 1.824621 2.745749 -2.138853 0
M  V30 35 H 2.503236 4.888070 -1.278725 0
M  V30 36 H 2.934127 6.219520 1.199281 0
M  V30 37 H 1.955796 3.081083 3.806410 0
M  V30 38 H 1.358049 1.212515 1.756838 0
M  V30 39 H 0.368968 1.143507 -2.776697 0
M  V30 40 H 2.140049 0.594705 -2.726488 0
M  V30 41 H 0.704269 -3.566901 2.838357 0
M  V30 42 H 0.293656 -1.532762 4.245844 0
M  V30 43 H -1.643202 -0.159194 3.903411 0
M  V30 44 H -3.265501 -0.749086 2.136330 0
M  V30 45 H -2.925507 -2.687930 0.760767 0
M  V30 END ATOM
M  V30 BEGIN BOND
M  V30 1 1 1 2
M  V30 2 1 2 3
M  V30 3 1 3 4
M  V30 4 1 4 5
M  V30 5 2 5 6
M  V30 6 1 6 7
M  V30 7 2 7 8
M  V30 8 1 8 9
M  V30 9 2 9 10
M  V30 10 1 10 11
M  V30 11 2 11 12
M  V30 12 1 12 13
M  V30 13 1 13 14
M  V30 14 2 14 15
M  V30 15 1 14 16
M  V30 16 1 16 17
M  V30 17 2 17 18
M  V30 18 1 8 19
M  V30 19 1 19 20
M  V30 20 1 2 21
M  V30 21 2 21 22
M  V30 22 1 22 23
M  V30 23 2 23 24
M  V30 24 1 24 25
M  V30 25 2 25 26
M  V30 26 1 20 5
M  V30 27 1 26 21
M  V30 28 1 18 9
M  V30 29 1 17 12
M  V30 30 1 1 27
M  V30 31 1 1 28
M  V30 32 1 1 29
M  V30 33 1 2 30
M  V30 34 1 3 31
M  V30 35 1 3 32
M  V30 36 1 4 33
M  V30 37 1 10 34
M  V30 38 1 11 35
M  V30 39 1 13 36
M  V30 40 1 16 37
M  V30 41 1 18 38
M  V30 42 1 19 39
M  V30 43 1 19 40
M  V30 44 1 22 41
M  V30 45 1 23 42
M  V30 46 1 24 43
M  V30 47 1 25 44
M  V30 48 1 26 45
M  V30 END BOND
M  V30 END CTAB
M  END
>  <Dataset>  (498) 
ChEMBL_Kinases

>  <Ligand_Instance>  (498) 
nan

>  <PDB_ID>  (498) 
nan

>  <Standardized_SMILES>  (498) 
CC(CNC1=NN=C(c2ccc3[nH]c(=O)[nH]c3c2)CS1)c1ccccc1

>  <Name>  (498) 
nan

>  <Pocket>  (498) 
nan

>  <ATP_Site>  (498) 
nan

>  <Peripheral>  (498) 
nan

>  <Num_H_Atoms_ProtBoundConf>  (498) 
nan

>  <Num_Resolved_Atoms>  (498) 
nan

>  <Num_Not_Resolved_Atoms>  (498) 
nan

$$$$
CHEMBL4290718
     RDKit          3D

  0  0  0  0  0  0  0  0  0  0999 V3000
M  V30 BEGIN CTAB
M  V30 COUNTS 60 64 0 0 0
M  V30 BEGIN ATOM
M  V30 1 N 0.107614 -4.008318 5.337420 0
M  V30 2 C 0.603458 -3.193043 4.670037 0
M  V30 3 C 1.224302 -2.167135 3.853882 0
M  V30 4 C 2.545996 -1.883373 4.072992 0
M  V30 5 N 3.116359 -0.943994 3.326310 0
M  V30 6 C 2.459501 -0.260909 2.368779 0
M  V30 7 N 3.078703 0.749809 1.567551 0
M  V30 8 C 2.367341 1.483467 0.536889 0
M  V30 9 C 1.213914 2.238546 1.067557 0
M  V30 10 C 1.076430 3.665503 0.672654 0
M  V30 11 C 2.301388 4.378067 0.230664 0
M  V30 12 C 3.572459 3.597224 0.488098 0
M  V30 13 C 3.369038 2.295594 -0.235927 0
M  V30 14 N 1.182194 -0.582128 2.205414 0
M  V30 15 C 0.478222 -1.498091 2.876303 0
M  V30 16 N -0.897449 -1.802440 2.702703 0
M  V30 17 C -1.949929 -1.372750 1.845454 0
M  V30 18 C -2.033734 -1.953237 0.481396 0 CFG=2
M  V30 19 C -3.225995 -1.357489 -0.292822 0
M  V30 20 C -3.277466 -1.968448 -1.650568 0 CFG=2
M  V30 21 C -3.515341 -3.436066 -1.504014 0
M  V30 22 C -2.329543 -4.065069 -0.789820 0 CFG=2
M  V30 23 C -2.228752 -3.458826 0.582035 0
M  V30 24 C -1.069222 -3.814258 -1.574425 0 CFG=1
M  V30 25 N -1.278483 -4.334528 -2.915419 0
M  V30 26 C -0.862873 -2.317426 -1.703452 0 CFG=1
M  V30 27 C -2.019195 -1.717104 -2.450490 0
M  V30 28 C -0.807532 -1.661714 -0.329215 0
M  V30 29 H 3.069840 -2.432834 4.841478 0
M  V30 30 H 4.098110 0.935162 1.771048 0
M  V30 31 H 2.040132 0.692328 -0.193598 0
M  V30 32 H 1.229110 2.149620 2.184290 0
M  V30 33 H 0.271932 1.717423 0.779265 0
M  V30 34 H 0.290626 3.797027 -0.122643 0
M  V30 35 H 0.666887 4.241026 1.535764 0
M  V30 36 H 2.442318 5.385553 0.671441 0
M  V30 37 H 2.289484 4.549294 -0.885152 0
M  V30 38 H 3.750715 3.403836 1.544891 0
M  V30 39 H 4.401934 4.147215 -0.012051 0
M  V30 40 H 4.300703 1.711245 -0.344319 0
M  V30 41 H 2.931564 2.497572 -1.236096 0
M  V30 42 H -1.267917 -2.547245 3.373208 0
M  V30 43 H -2.967237 -1.518718 2.314527 0
M  V30 44 H -1.854164 -0.237310 1.793164 0
M  V30 45 H -4.138850 -1.606423 0.245962 0
M  V30 46 H -3.014037 -0.257059 -0.312169 0
M  V30 47 H -4.115829 -1.515165 -2.220613 0
M  V30 48 H -3.778660 -3.959065 -2.436211 0
M  V30 49 H -4.381983 -3.573590 -0.801325 0
M  V30 50 H -2.519419 -5.141379 -0.714530 0
M  V30 51 H -1.315964 -3.834343 1.101414 0
M  V30 52 H -3.124712 -3.670460 1.165791 0
M  V30 53 H -0.215078 -4.298385 -1.097886 0
M  V30 54 H -0.884309 -3.746267 -3.662964 0
M  V30 55 H -0.935557 -5.333668 -3.000950 0
M  V30 56 H 0.113969 -2.148983 -2.172156 0
M  V30 57 H -2.183102 -2.188810 -3.434180 0
M  V30 58 H -1.832415 -0.626605 -2.546788 0
M  V30 59 H 0.124939 -1.974520 0.192440 0
M  V30 60 H -0.737757 -0.573301 -0.496167 0
M  V30 END ATOM
M  V30 BEGIN BOND
M  V30 1 3 1 2
M  V30 2 1 2 3
M  V30 3 2 3 4
M  V30 4 1 4 5
M  V30 5 2 5 6
M  V30 6 1 6 7
M  V30 7 1 7 8
M  V30 8 1 8 9
M  V30 9 1 9 10
M  V30 10 1 10 11
M  V30 11 1 11 12
M  V30 12 1 12 13
M  V30 13 1 6 14
M  V30 14 2 14 15
M  V30 15 1 15 16
M  V30 16 1 16 17
M  V30 17 1 18 17 CFG=1
M  V30 18 1 18 19
M  V30 19 1 19 20
M  V30 20 1 20 21
M  V30 21 1 21 22
M  V30 22 1 22 23
M  V30 23 1 22 24
M  V30 24 1 24 25
M  V30 25 1 24 26
M  V30 26 1 26 27
M  V30 27 1 26 28
M  V30 28 1 15 3
M  V30 29 1 23 18
M  V30 30 1 13 8
M  V30 31 1 28 18
M  V30 32 1 27 20
M  V30 33 1 4 29
M  V30 34 1 7 30
M  V30 35 1 8 31
M  V30 36 1 9 32
M  V30 37 1 9 33
M  V30 38 1 10 34
M  V30 39 1 10 35
M  V30 40 1 11 36
M  V30 41 1 11 37
M  V30 42 1 12 38
M  V30 43 1 12 39
M  V30 44 1 13 40
M  V30 45 1 13 41
M  V30 46 1 16 42
M  V30 47 1 17 43
M  V30 48 1 17 44
M  V30 49 1 19 45
M  V30 50 1 19 46
M  V30 51 1 20 47 CFG=3
M  V30 52 1 21 48
M  V30 53 1 21 49
M  V30 54 1 22 50 CFG=1
M  V30 55 1 23 51
M  V30 56 1 23 52
M  V30 57 1 24 53 CFG=1
M  V30 58 1 25 54
M  V30 59 1 25 55
M  V30 60 1 26 56 CFG=3
M  V30 61 1 27 57
M  V30 62 1 27 58
M  V30 63 1 28 59
M  V30 64 1 28 60
M  V30 END BOND
M  V30 END CTAB
M  END
>  <Dataset>  (499) 
ChEMBL_Kinases

>  <Ligand_Instance>  (499) 
nan

>  <PDB_ID>  (499) 
nan

>  <Standardized_SMILES>  (499) 
N#Cc1cnc(NC2CCCCC2)nc1NC[C@]12C[C@@H]3C[C@H](C1)[C@@H](N)[C@@H](C3)C2

>  <Name>  (499) 
nan

>  <Pocket>  (499) 
nan

>  <ATP_Site>  (499) 
nan

>  <Peripheral>  (499) 
nan

>  <Num_H_Atoms_ProtBoundConf>  (499) 
nan

>  <Num_Resolved_Atoms>  (499) 
nan

>  <Num_Not_Resolved_Atoms>  (499) 
nan

$$$$
CHEMBL4290595
     RDKit          3D

  0  0  0  0  0  0  0  0  0  0999 V3000
M  V30 BEGIN CTAB
M  V30 COUNTS 47 49 0 0 0
M  V30 BEGIN ATOM
M  V30 1 N 1.238891 -5.890451 1.068311 0
M  V30 2 C 1.717217 -4.851951 1.004968 0
M  V30 3 C 2.294203 -3.559009 0.926134 0
M  V30 4 C 3.670038 -3.385439 0.946385 0
M  V30 5 N 4.284526 -2.188820 0.866212 0
M  V30 6 C 3.548554 -1.082889 0.760026 0
M  V30 7 N 4.005054 0.285890 0.673299 0
M  V30 8 C 3.296052 1.085557 -0.299270 0
M  V30 9 C 2.647164 0.440408 -1.354811 0
M  V30 10 C 1.918889 1.078869 -2.353471 0
M  V30 11 C 1.838359 2.454055 -2.287802 0
M  V30 12 C 2.462693 3.118083 -1.268078 0
M  V30 13 Br 2.346304 5.024110 -1.182676 0
M  V30 14 C 3.176156 2.462635 -0.292453 0
M  V30 15 C 2.163763 -1.245613 0.740045 0
M  V30 16 C 1.485520 -2.447643 0.818895 0
M  V30 17 N 0.058442 -2.509621 0.787589 0
M  V30 18 C -0.637017 -1.276608 0.680261 0
M  V30 19 C -2.126313 -1.340516 0.651654 0 CFG=1
M  V30 20 C -2.768086 -1.953653 1.840040 0
M  V30 21 C -2.689926 -1.161887 3.115188 0
M  V30 22 C -2.733122 0.330942 2.893301 0 CFG=2
M  V30 23 N -3.462960 0.943053 3.993233 0
M  V30 24 C -3.451692 0.590330 1.606236 0
M  V30 25 C -2.739716 0.029931 0.423185 0
M  V30 26 H 4.352874 -4.218882 1.030181 0
M  V30 27 H 4.774354 0.751968 1.223009 0
M  V30 28 H 2.651319 -0.646814 -1.520553 0
M  V30 29 H 1.419597 0.577340 -3.167029 0
M  V30 30 H 1.269447 2.965470 -3.065482 0
M  V30 31 H 3.689664 2.924565 0.538235 0
M  V30 32 H 1.534583 -0.372151 0.661437 0
M  V30 33 H -0.387752 -3.443366 0.844326 0
M  V30 34 H -0.353470 -0.571267 1.499081 0
M  V30 35 H -0.238311 -0.769109 -0.242380 0
M  V30 36 H -2.422199 -1.955753 -0.234677 0
M  V30 37 H -2.508554 -3.023256 1.989966 0
M  V30 38 H -3.873949 -2.001092 1.592231 0
M  V30 39 H -1.805813 -1.441432 3.757938 0
M  V30 40 H -3.560232 -1.408964 3.771776 0
M  V30 41 H -1.720138 0.785190 2.898643 0
M  V30 42 H -3.242669 0.388737 4.848876 0
M  V30 43 H -3.074943 1.902034 4.128014 0
M  V30 44 H -4.495611 0.202033 1.698024 0
M  V30 45 H -3.577492 1.701692 1.446787 0
M  V30 46 H -3.457494 0.020486 -0.419599 0
M  V30 47 H -1.926121 0.738538 0.086391 0
M  V30 END ATOM
M  V30 BEGIN BOND
M  V30 1 3 1 2
M  V30 2 1 2 3
M  V30 3 2 3 4
M  V30 4 1 4 5
M  V30 5 2 5 6
M  V30 6 1 6 7
M  V30 7 1 7 8
M  V30 8 2 8 9
M  V30 9 1 9 10
M  V30 10 2 10 11
M  V30 11 1 11 12
M  V30 12 1 12 13
M  V30 13 2 12 14
M  V30 14 1 6 15
M  V30 15 2 15 16
M  V30 16 1 16 17
M  V30 17 1 17 18
M  V30 18 1 18 19
M  V30 19 1 19 20
M  V30 20 1 20 21
M  V30 21 1 21 22
M  V30 22 1 22 23
M  V30 23 1 22 24
M  V30 24 1 24 25
M  V30 25 1 16 3
M  V30 26 1 25 19
M  V30 27 1 14 8
M  V30 28 1 4 26
M  V30 29 1 7 27
M  V30 30 1 9 28
M  V30 31 1 10 29
M  V30 32 1 11 30
M  V30 33 1 14 31
M  V30 34 1 15 32
M  V30 35 1 17 33
M  V30 36 1 18 34
M  V30 37 1 18 35
M  V30 38 1 19 36 CFG=3
M  V30 39 1 20 37
M  V30 40 1 20 38
M  V30 41 1 21 39
M  V30 42 1 21 40
M  V30 43 1 22 41 CFG=3
M  V30 44 1 23 42
M  V30 45 1 23 43
M  V30 46 1 24 44
M  V30 47 1 24 45
M  V30 48 1 25 46
M  V30 49 1 25 47
M  V30 END BOND
M  V30 END CTAB
M  END
>  <Dataset>  (500) 
ChEMBL_Kinases

>  <Ligand_Instance>  (500) 
nan

>  <PDB_ID>  (500) 
nan

>  <Standardized_SMILES>  (500) 
N#Cc1cnc(Nc2cccc(Br)c2)cc1NC[C@H]1CC[C@H](N)CC1

>  <Name>  (500) 
nan

>  <Pocket>  (500) 
nan

>  <ATP_Site>  (500) 
nan

>  <Peripheral>  (500) 
nan

>  <Num_H_Atoms_ProtBoundConf>  (500) 
nan

>  <Num_Resolved_Atoms>  (500) 
nan

>  <Num_Not_Resolved_Atoms>  (500) 
nan

$$$$
CHEMBL4290590
     RDKit          3D

  0  0  0  0  0  0  0  0  0  0999 V3000
M  V30 BEGIN CTAB
M  V30 COUNTS 42 45 0 0 0
M  V30 BEGIN ATOM
M  V30 1 O 3.251166 -6.462406 2.175240 0
M  V30 2 C 2.816359 -5.162886 1.947679 0
M  V30 3 C 2.711601 -4.227878 2.957732 0
M  V30 4 C 2.280740 -2.923640 2.760461 0
M  V30 5 C 1.942333 -2.560529 1.473274 0
M  V30 6 C 1.474540 -1.217660 1.133596 0
M  V30 7 N 1.131440 -0.779672 -0.051714 0
M  V30 8 N 0.741240 0.536612 0.003550 0
M  V30 9 C 0.780381 1.479020 -1.062986 0
M  V30 10 C 1.253903 1.053599 -2.287547 0
M  V30 11 C 1.305583 1.942012 -3.344297 0
M  V30 12 C 0.879894 3.249891 -3.157254 0
M  V30 13 C 0.400852 3.706521 -1.944350 0
M  V30 14 Cl -0.141706 5.357479 -1.690186 0
M  V30 15 C 0.368800 2.781177 -0.919296 0
M  V30 16 C 0.292098 0.734152 1.368264 0
M  V30 17 C -1.106088 0.245734 1.585403 0
M  V30 18 C -1.641773 -0.943691 1.155071 0
M  V30 19 C -2.956541 -1.256018 1.433694 0
M  V30 20 C -3.781306 -0.410351 2.141824 0
M  V30 21 C -3.306333 0.806876 2.606675 0
M  V30 22 Cl -4.254243 1.947118 3.506743 0
M  V30 23 C -1.976013 1.076757 2.301114 0
M  V30 24 C 1.313563 -0.105413 2.103610 0
M  V30 25 C 2.051970 -3.508865 0.467935 0
M  V30 26 C 2.479878 -4.806970 0.659045 0
M  V30 27 H 3.063837 -6.998676 2.999989 0
M  V30 28 H 2.987418 -4.551856 3.958845 0
M  V30 29 H 2.202618 -2.199639 3.559442 0
M  V30 30 H 1.585801 0.054693 -2.453954 0
M  V30 31 H 1.677271 1.632565 -4.329686 0
M  V30 32 H 0.924466 3.949158 -4.002576 0
M  V30 33 H 0.001310 3.072403 0.069509 0
M  V30 34 H 0.374510 1.810071 1.637107 0
M  V30 35 H -0.984578 -1.595135 0.602900 0
M  V30 36 H -3.351578 -2.202809 1.080663 0
M  V30 37 H -4.817457 -0.635698 2.372048 0
M  V30 38 H -1.591762 2.029989 2.661043 0
M  V30 39 H 0.903259 -0.435494 3.073383 0
M  V30 40 H 2.235734 0.494375 2.198667 0
M  V30 41 H 1.793812 -3.260223 -0.562592 0
M  V30 42 H 2.547892 -5.507238 -0.156356 0
M  V30 END ATOM
M  V30 BEGIN BOND
M  V30 1 1 1 2
M  V30 2 2 2 3
M  V30 3 1 3 4
M  V30 4 2 4 5
M  V30 5 1 5 6
M  V30 6 2 6 7
M  V30 7 1 7 8
M  V30 8 1 8 9
M  V30 9 2 9 10
M  V30 10 1 10 11
M  V30 11 2 11 12
M  V30 12 1 12 13
M  V30 13 1 13 14
M  V30 14 2 13 15
M  V30 15 1 8 16
M  V30 16 1 16 17
M  V30 17 2 17 18
M  V30 18 1 18 19
M  V30 19 2 19 20
M  V30 20 1 20 21
M  V30 21 1 21 22
M  V30 22 2 21 23
M  V30 23 1 16 24
M  V30 24 1 5 25
M  V30 25 2 25 26
M  V30 26 1 26 2
M  V30 27 1 24 6
M  V30 28 1 15 9
M  V30 29 1 23 17
M  V30 30 1 1 27
M  V30 31 1 3 28
M  V30 32 1 4 29
M  V30 33 1 10 30
M  V30 34 1 11 31
M  V30 35 1 12 32
M  V30 36 1 15 33
M  V30 37 1 16 34
M  V30 38 1 18 35
M  V30 39 1 19 36
M  V30 40 1 20 37
M  V30 41 1 23 38
M  V30 42 1 24 39
M  V30 43 1 24 40
M  V30 44 1 25 41
M  V30 45 1 26 42
M  V30 END BOND
M  V30 END CTAB
M  END
>  <Dataset>  (501) 
ChEMBL_Kinases

>  <Ligand_Instance>  (501) 
nan

>  <PDB_ID>  (501) 
nan

>  <Standardized_SMILES>  (501) 
Oc1ccc(C2=NN(c3cccc(Cl)c3)C(c3cccc(Cl)c3)C2)cc1

>  <Name>  (501) 
nan

>  <Pocket>  (501) 
nan

>  <ATP_Site>  (501) 
nan

>  <Peripheral>  (501) 
nan

>  <Num_H_Atoms_ProtBoundConf>  (501) 
nan

>  <Num_Resolved_Atoms>  (501) 
nan

>  <Num_Not_Resolved_Atoms>  (501) 
nan

$$$$
CHEMBL4290543
     RDKit          3D

  0  0  0  0  0  0  0  0  0  0999 V3000
M  V30 BEGIN CTAB
M  V30 COUNTS 60 64 0 0 0
M  V30 BEGIN ATOM
M  V30 1 C 0.584699 1.314695 4.624558 0
M  V30 2 C 1.109202 -0.053269 4.601467 0
M  V30 3 C 0.407501 -1.072374 5.210750 0
M  V30 4 C 0.880552 -2.374791 5.204075 0
M  V30 5 C 2.077314 -2.651306 4.574100 0
M  V30 6 C 2.743749 -1.604327 3.979441 0
M  V30 7 C 2.304788 -0.284586 3.963027 0
M  V30 8 C 3.127920 0.726520 3.287733 0
M  V30 9 N 2.617647 1.138170 1.993592 0
M  V30 10 C 1.470197 1.746287 1.432047 0
M  V30 11 N 1.534369 3.084856 1.368287 0
M  V30 12 C 0.502915 3.785878 0.850061 0
M  V30 13 C -0.599018 3.103180 0.395992 0
M  V30 14 C -1.703625 3.847514 -0.159296 0
M  V30 15 N -2.591476 4.436914 -0.591570 0
M  V30 16 C -0.701581 1.706686 0.446553 0
M  V30 17 N -1.847425 1.000365 -0.006227 0
M  V30 18 C -2.154146 -0.374273 -0.056122 0
M  V30 19 C -1.436711 -1.240367 -1.023315 0 CFG=2
M  V30 20 C 0.042011 -1.322637 -0.906818 0
M  V30 21 C 0.568437 -2.403849 -1.833207 0 CFG=2
M  V30 22 C 0.260016 -1.983852 -3.258891 0
M  V30 23 C -1.222645 -1.891677 -3.409637 0 CFG=2
M  V30 24 C -1.805414 -0.876403 -2.451109 0
M  V30 25 C -1.905313 -3.208582 -3.116932 0 CFG=1
M  V30 26 N -1.590324 -4.206276 -4.101400 0
M  V30 27 C -1.514606 -3.642490 -1.744659 0 CFG=1
M  V30 28 C -0.012632 -3.754714 -1.602429 0
M  V30 29 C -1.983615 -2.653652 -0.734080 0
M  V30 30 N 0.388808 1.137265 0.982390 0
M  V30 31 H -0.377276 1.434974 4.044584 0
M  V30 32 H 0.254237 1.527721 5.683903 0
M  V30 33 H 1.309627 2.088781 4.369088 0
M  V30 34 H -0.532610 -0.930901 5.721001 0
M  V30 35 H 0.380567 -3.206348 5.659802 0
M  V30 36 H 2.473131 -3.647820 4.549682 0
M  V30 37 H 3.684162 -1.840629 3.488530 0
M  V30 38 H 4.150654 0.344727 3.141910 0
M  V30 39 H 3.241157 1.657933 3.881464 0
M  V30 40 H 3.188505 0.992429 1.108771 0
M  V30 41 H 0.493614 4.864263 0.770610 0
M  V30 42 H -2.602480 1.660845 -0.373918 0
M  V30 43 H -3.256864 -0.519852 -0.263477 0
M  V30 44 H -2.032419 -0.827445 0.958771 0
M  V30 45 H 0.556742 -0.390713 -1.272680 0
M  V30 46 H 0.369332 -1.517836 0.122152 0
M  V30 47 H 1.679865 -2.441535 -1.749055 0
M  V30 48 H 0.653464 -2.772520 -3.931474 0
M  V30 49 H 0.697483 -0.994162 -3.493239 0
M  V30 50 H -1.413808 -1.542859 -4.454350 0
M  V30 51 H -2.892889 -0.786723 -2.563158 0
M  V30 52 H -1.297247 0.083722 -2.686902 0
M  V30 53 H -2.994510 -2.985426 -3.109169 0
M  V30 54 H -2.455752 -4.411194 -4.655234 0
M  V30 55 H -0.840764 -3.907550 -4.731063 0
M  V30 56 H -1.981562 -4.606792 -1.511494 0
M  V30 57 H 0.339446 -4.414499 -2.410895 0
M  V30 58 H 0.228118 -4.181448 -0.607529 0
M  V30 59 H -1.535255 -2.904288 0.256048 0
M  V30 60 H -3.081587 -2.598723 -0.596191 0
M  V30 END ATOM
M  V30 BEGIN BOND
M  V30 1 1 1 2
M  V30 2 2 2 3
M  V30 3 1 3 4
M  V30 4 2 4 5
M  V30 5 1 5 6
M  V30 6 2 6 7
M  V30 7 1 7 8
M  V30 8 1 8 9
M  V30 9 1 9 10
M  V30 10 2 10 11
M  V30 11 1 11 12
M  V30 12 2 12 13
M  V30 13 1 13 14
M  V30 14 3 14 15
M  V30 15 1 13 16
M  V30 16 1 16 17
M  V30 17 1 17 18
M  V30 18 1 19 18 CFG=1
M  V30 19 1 19 20
M  V30 20 1 20 21
M  V30 21 1 21 22
M  V30 22 1 22 23
M  V30 23 1 23 24
M  V30 24 1 23 25
M  V30 25 1 25 26
M  V30 26 1 25 27
M  V30 27 1 27 28
M  V30 28 1 27 29
M  V30 29 2 16 30
M  V30 30 1 7 2
M  V30 31 1 30 10
M  V30 32 1 24 19
M  V30 33 1 29 19
M  V30 34 1 28 21
M  V30 35 1 1 31
M  V30 36 1 1 32
M  V30 37 1 1 33
M  V30 38 1 3 34
M  V30 39 1 4 35
M  V30 40 1 5 36
M  V30 41 1 6 37
M  V30 42 1 8 38
M  V30 43 1 8 39
M  V30 44 1 9 40
M  V30 45 1 12 41
M  V30 46 1 17 42
M  V30 47 1 18 43
M  V30 48 1 18 44
M  V30 49 1 20 45
M  V30 50 1 20 46
M  V30 51 1 21 47 CFG=3
M  V30 52 1 22 48
M  V30 53 1 22 49
M  V30 54 1 23 50 CFG=3
M  V30 55 1 24 51
M  V30 56 1 24 52
M  V30 57 1 25 53 CFG=1
M  V30 58 1 26 54
M  V30 59 1 26 55
M  V30 60 1 27 56 CFG=1
M  V30 61 1 28 57
M  V30 62 1 28 58
M  V30 63 1 29 59
M  V30 64 1 29 60
M  V30 END BOND
M  V30 END CTAB
M  END
>  <Dataset>  (502) 
ChEMBL_Kinases

>  <Ligand_Instance>  (502) 
nan

>  <PDB_ID>  (502) 
nan

>  <Standardized_SMILES>  (502) 
Cc1ccccc1CNc1ncc(C#N)c(NC[C@]23C[C@@H]4C[C@H](C2)[C@@H](N)[C@@H](C4)C3)n1

>  <Name>  (502) 
nan

>  <Pocket>  (502) 
nan

>  <ATP_Site>  (502) 
nan

>  <Peripheral>  (502) 
nan

>  <Num_H_Atoms_ProtBoundConf>  (502) 
nan

>  <Num_Resolved_Atoms>  (502) 
nan

>  <Num_Not_Resolved_Atoms>  (502) 
nan

$$$$
CHEMBL4290518
     RDKit          3D

  0  0  0  0  0  0  0  0  0  0999 V3000
M  V30 BEGIN CTAB
M  V30 COUNTS 55 57 0 0 0
M  V30 BEGIN ATOM
M  V30 1 C 1.996399 -1.869644 5.053927 0
M  V30 2 C 3.356371 -1.409550 4.625411 0
M  V30 3 S 3.583814 0.297279 5.146005 0
M  V30 4 O 3.424732 0.290103 6.643324 0
M  V30 5 O 4.968838 0.716878 4.825764 0
M  V30 6 N 2.381921 1.300669 4.421043 0
M  V30 7 C 2.353350 1.356378 2.973664 0
M  V30 8 C 3.641385 1.602138 2.485113 0
M  V30 9 C 3.766563 1.660125 1.121020 0
M  V30 10 C 2.627729 1.471891 0.434177 0
M  V30 11 O 2.415184 1.468884 -0.992527 0
M  V30 12 C 3.435820 1.677532 -1.902817 0
M  V30 13 C 1.324725 1.235050 0.512491 0
M  V30 14 C -0.075704 0.980506 0.596769 0
M  V30 15 O 0.151757 0.919738 -0.675663 0
M  V30 16 N -1.350097 0.776942 1.052869 0
M  V30 17 C -2.334089 0.497982 0.069020 0
M  V30 18 C -2.914477 1.552516 -0.606135 0
M  V30 19 C -3.905191 1.302683 -1.553163 0
M  V30 20 C -4.240128 -0.024069 -1.747550 0
M  V30 21 C -3.661201 -1.104156 -1.071106 0
M  V30 22 C -4.180486 -2.408968 -1.421158 0
M  V30 23 N -5.477312 -2.622750 -1.055617 0
M  V30 24 N -5.813096 -3.843467 -1.431542 0
M  V30 25 C -4.762905 -4.425259 -2.032817 0
M  V30 26 N -3.758197 -3.526453 -2.019462 0
M  V30 27 C -2.448638 -3.700271 -2.540575 0
M  V30 28 C -1.676313 -4.516406 -1.493150 0
M  V30 29 C -1.655586 -2.468576 -2.786816 0
M  V30 30 N -2.700987 -0.789169 -0.161471 0
M  V30 31 C 1.290970 1.190307 2.018147 0
M  V30 32 H 1.555278 -2.623550 4.364408 0
M  V30 33 H 2.110408 -2.313289 6.087327 0
M  V30 34 H 1.261986 -1.033636 5.144956 0
M  V30 35 H 3.548332 -1.495701 3.528831 0
M  V30 36 H 4.127836 -1.992335 5.170243 0
M  V30 37 H 1.627044 1.909523 4.854647 0
M  V30 38 H 4.625015 1.779186 2.861914 0
M  V30 39 H 4.535570 1.821276 0.365292 0
M  V30 40 H 3.035213 1.959864 -2.880407 0
M  V30 41 H 4.169917 0.829320 -1.973294 0
M  V30 42 H 4.031779 2.552063 -1.516309 0
M  V30 43 H -1.157344 0.909019 2.068586 0
M  V30 44 H -2.596750 2.579290 -0.399646 0
M  V30 45 H -4.376280 2.100818 -2.098745 0
M  V30 46 H -4.999524 -0.176890 -2.480124 0
M  V30 47 H -4.692100 -5.415910 -2.458866 0
M  V30 48 H -2.484114 -4.374953 -3.448440 0
M  V30 49 H -2.201487 -5.450590 -1.245329 0
M  V30 50 H -0.667573 -4.783160 -1.862726 0
M  V30 51 H -1.523019 -3.893307 -0.572591 0
M  V30 52 H -2.355864 -1.686892 -3.161961 0
M  V30 53 H -1.012732 -2.158729 -1.959589 0
M  V30 54 H -0.944316 -2.607356 -3.657817 0
M  V30 55 H 0.562657 1.036138 2.889716 0
M  V30 END ATOM
M  V30 BEGIN BOND
M  V30 1 1 1 2
M  V30 2 1 2 3
M  V30 3 2 3 4
M  V30 4 2 3 5
M  V30 5 1 3 6
M  V30 6 1 6 7
M  V30 7 2 7 8
M  V30 8 1 8 9
M  V30 9 2 9 10
M  V30 10 1 10 11
M  V30 11 1 11 12
M  V30 12 1 10 13
M  V30 13 1 13 14
M  V30 14 2 14 15
M  V30 15 1 14 16
M  V30 16 1 16 17
M  V30 17 2 17 18
M  V30 18 1 18 19
M  V30 19 2 19 20
M  V30 20 1 20 21
M  V30 21 1 21 22
M  V30 22 2 22 23
M  V30 23 1 23 24
M  V30 24 2 24 25
M  V30 25 1 25 26
M  V30 26 1 26 27
M  V30 27 1 27 28
M  V30 28 1 27 29
M  V30 29 2 21 30
M  V30 30 2 13 31
M  V30 31 1 31 7
M  V30 32 1 30 17
M  V30 33 1 26 22
M  V30 34 1 1 32
M  V30 35 1 1 33
M  V30 36 1 1 34
M  V30 37 1 2 35
M  V30 38 1 2 36
M  V30 39 1 6 37
M  V30 40 1 8 38
M  V30 41 1 9 39
M  V30 42 1 12 40
M  V30 43 1 12 41
M  V30 44 1 12 42
M  V30 45 1 16 43
M  V30 46 1 18 44
M  V30 47 1 19 45
M  V30 48 1 20 46
M  V30 49 1 25 47
M  V30 50 1 27 48
M  V30 51 1 28 49
M  V30 52 1 28 50
M  V30 53 1 28 51
M  V30 54 1 29 52
M  V30 55 1 29 53
M  V30 56 1 29 54
M  V30 57 1 31 55
M  V30 END BOND
M  V30 END CTAB
M  END
>  <Dataset>  (503) 
ChEMBL_Kinases

>  <Ligand_Instance>  (503) 
nan

>  <PDB_ID>  (503) 
nan

>  <Standardized_SMILES>  (503) 
CCS(=O)(=O)Nc1ccc(OC)c(C(=O)Nc2cccc(-c3nncn3C(C)C)n2)c1

>  <Name>  (503) 
nan

>  <Pocket>  (503) 
nan

>  <ATP_Site>  (503) 
nan

>  <Peripheral>  (503) 
nan

>  <Num_H_Atoms_ProtBoundConf>  (503) 
nan

>  <Num_Resolved_Atoms>  (503) 
nan

>  <Num_Not_Resolved_Atoms>  (503) 
nan

$$$$
CHEMBL4290414
     RDKit          3D

  0  0  0  0  0  0  0  0  0  0999 V3000
M  V30 BEGIN CTAB
M  V30 COUNTS 44 47 0 0 0
M  V30 BEGIN ATOM
M  V30 1 C 2.950868 -6.216310 4.730783 0
M  V30 2 O 2.028687 -6.002325 3.681159 0
M  V30 3 C 1.662908 -4.758150 3.200864 0
M  V30 4 C 0.744900 -4.642268 2.164127 0
M  V30 5 C 0.381970 -3.401938 1.687882 0
M  V30 6 C 0.884753 -2.219991 2.186076 0
M  V30 7 C 0.539725 -0.889426 1.703769 0
M  V30 8 O 0.780638 0.105750 2.475494 0
M  V30 9 C -0.058511 -0.577088 0.412810 0
M  V30 10 N -0.250916 0.720150 0.120345 0
M  V30 11 C -0.790510 1.134717 -1.046131 0
M  V30 12 N -0.926634 2.548415 -1.208117 0
M  V30 13 C -0.496329 3.386082 -0.139910 0
M  V30 14 C 0.777934 3.899544 0.070341 0
M  V30 15 C 0.675261 4.639031 1.234588 0
M  V30 16 C 1.765835 5.401349 1.908340 0
M  V30 17 N -0.587028 4.578808 1.703747 0
M  V30 18 N -1.274856 3.824453 0.868394 0
M  V30 19 C -1.165249 0.197962 -1.984374 0
M  V30 20 C -1.714465 0.639985 -3.167108 0
M  V30 21 C -2.093550 -0.285013 -4.116585 0
M  V30 22 C -1.917796 -1.625266 -3.865388 0
M  V30 23 Cl -2.357039 -2.899876 -4.984005 0
M  V30 24 C -1.359363 -2.043227 -2.658219 0
M  V30 25 C -0.972224 -1.136677 -1.693755 0
M  V30 26 N -0.428534 -1.471333 -0.512194 0
M  V30 27 C 1.794512 -2.341381 3.214536 0
M  V30 28 C 2.167256 -3.575151 3.701418 0
M  V30 29 H 2.956149 -5.360856 5.466553 0
M  V30 30 H 3.991121 -6.368810 4.377107 0
M  V30 31 H 2.675777 -7.113361 5.330030 0
M  V30 32 H 0.323355 -5.553376 1.741581 0
M  V30 33 H -0.333917 -3.365234 0.887071 0
M  V30 34 H -1.303248 3.075161 -2.012579 0
M  V30 35 H 1.662700 3.745242 -0.555379 0
M  V30 36 H 1.365126 6.349775 2.307632 0
M  V30 37 H 2.270674 4.781618 2.693820 0
M  V30 38 H 2.584859 5.629834 1.163879 0
M  V30 39 H -1.045155 4.994834 2.537426 0
M  V30 40 H -1.855322 1.680493 -3.369680 0
M  V30 41 H -2.530629 -0.052233 -5.075257 0
M  V30 42 H -1.211811 -3.100276 -2.438914 0
M  V30 43 H 2.205506 -1.428008 3.632118 0
M  V30 44 H 2.880460 -3.576447 4.503293 0
M  V30 END ATOM
M  V30 BEGIN BOND
M  V30 1 1 1 2
M  V30 2 1 2 3
M  V30 3 2 3 4
M  V30 4 1 4 5
M  V30 5 2 5 6
M  V30 6 1 6 7
M  V30 7 2 7 8
M  V30 8 1 7 9
M  V30 9 2 9 10
M  V30 10 1 10 11
M  V30 11 1 11 12
M  V30 12 1 12 13
M  V30 13 1 13 14
M  V30 14 2 14 15
M  V30 15 1 15 16
M  V30 16 1 15 17
M  V30 17 1 17 18
M  V30 18 2 11 19
M  V30 19 1 19 20
M  V30 20 2 20 21
M  V30 21 1 21 22
M  V30 22 1 22 23
M  V30 23 2 22 24
M  V30 24 1 24 25
M  V30 25 2 25 26
M  V30 26 1 6 27
M  V30 27 2 27 28
M  V30 28 1 28 3
M  V30 29 1 26 9
M  V30 30 2 18 13
M  V30 31 1 25 19
M  V30 32 1 1 29
M  V30 33 1 1 30
M  V30 34 1 1 31
M  V30 35 1 4 32
M  V30 36 1 5 33
M  V30 37 1 12 34
M  V30 38 1 14 35
M  V30 39 1 16 36
M  V30 40 1 16 37
M  V30 41 1 16 38
M  V30 42 1 17 39
M  V30 43 1 20 40
M  V30 44 1 21 41
M  V30 45 1 24 42
M  V30 46 1 27 43
M  V30 47 1 28 44
M  V30 END BOND
M  V30 END CTAB
M  END
>  <Dataset>  (504) 
ChEMBL_Kinases

>  <Ligand_Instance>  (504) 
nan

>  <PDB_ID>  (504) 
nan

>  <Standardized_SMILES>  (504) 
COc1ccc(C(=O)c2nc(Nc3cc(C)[nH]n3)c3ccc(Cl)cc3n2)cc1

>  <Name>  (504) 
nan

>  <Pocket>  (504) 
nan

>  <ATP_Site>  (504) 
nan

>  <Peripheral>  (504) 
nan

>  <Num_H_Atoms_ProtBoundConf>  (504) 
nan

>  <Num_Resolved_Atoms>  (504) 
nan

>  <Num_Not_Resolved_Atoms>  (504) 
nan

$$$$
CHEMBL4290278
     RDKit          3D

  0  0  0  0  0  0  0  0  0  0999 V3000
M  V30 BEGIN CTAB
M  V30 COUNTS 29 31 0 0 0
M  V30 BEGIN ATOM
M  V30 1 O 2.724921 -1.273491 1.722822 0
M  V30 2 C 1.646091 -1.139053 1.130338 0
M  V30 3 N 0.750626 -2.134639 1.204618 0
M  V30 4 C -0.440969 -2.010229 0.561604 0
M  V30 5 N -1.513755 -2.971032 0.538154 0
M  V30 6 C -2.420097 -2.630942 1.615147 0
M  V30 7 C -1.711851 -2.705788 2.943999 0
M  V30 8 O -1.234906 -4.004882 3.145593 0
M  V30 9 N -0.792103 -0.931187 -0.161080 0
M  V30 10 C 0.091596 0.102046 -0.260012 0
M  V30 11 C -0.231832 1.243580 -1.001246 0
M  V30 12 C 0.664652 2.297205 -1.104753 0
M  V30 13 C 1.867128 2.147712 -0.443835 0
M  V30 14 N 2.904824 2.998979 -0.375036 0
M  V30 15 N 3.856427 2.447419 0.368928 0
M  V30 16 C 3.450050 1.232406 0.793078 0
M  V30 17 C 2.184596 1.025259 0.285145 0
M  V30 18 C 1.300172 -0.025562 0.392853 0
M  V30 19 H 0.877051 -3.011818 1.712449 0
M  V30 20 H -1.739784 -3.812669 -0.073419 0
M  V30 21 H -2.861993 -1.616749 1.486518 0
M  V30 22 H -3.291252 -3.323465 1.619330 0
M  V30 23 H -2.388028 -2.466549 3.771321 0
M  V30 24 H -0.899318 -1.962474 2.964335 0
M  V30 25 H -1.423530 -4.573620 2.359138 0
M  V30 26 H -1.199712 1.298045 -1.499377 0
M  V30 27 H 0.444174 3.191484 -1.666571 0
M  V30 28 H 3.046965 3.957294 -0.795579 0
M  V30 29 H 4.062754 0.600320 1.414231 0
M  V30 END ATOM
M  V30 BEGIN BOND
M  V30 1 2 1 2
M  V30 2 1 2 3
M  V30 3 1 3 4
M  V30 4 1 4 5
M  V30 5 1 5 6
M  V30 6 1 6 7
M  V30 7 1 7 8
M  V30 8 2 4 9
M  V30 9 1 9 10
M  V30 10 2 10 11
M  V30 11 1 11 12
M  V30 12 2 12 13
M  V30 13 1 13 14
M  V30 14 1 14 15
M  V30 15 2 15 16
M  V30 16 1 16 17
M  V30 17 2 17 18
M  V30 18 1 18 2
M  V30 19 1 18 10
M  V30 20 1 17 13
M  V30 21 1 3 19
M  V30 22 1 5 20
M  V30 23 1 6 21
M  V30 24 1 6 22
M  V30 25 1 7 23
M  V30 26 1 7 24
M  V30 27 1 8 25
M  V30 28 1 11 26
M  V30 29 1 12 27
M  V30 30 1 14 28
M  V30 31 1 16 29
M  V30 END BOND
M  V30 END CTAB
M  END
>  <Dataset>  (505) 
ChEMBL_Kinases

>  <Ligand_Instance>  (505) 
nan

>  <PDB_ID>  (505) 
nan

>  <Standardized_SMILES>  (505) 
O=c1[nH]c(NCCO)nc2ccc3[nH]ncc3c12

>  <Name>  (505) 
nan

>  <Pocket>  (505) 
nan

>  <ATP_Site>  (505) 
nan

>  <Peripheral>  (505) 
nan

>  <Num_H_Atoms_ProtBoundConf>  (505) 
nan

>  <Num_Resolved_Atoms>  (505) 
nan

>  <Num_Not_Resolved_Atoms>  (505) 
nan

$$$$
CHEMBL4290268
     RDKit          3D

  0  0  0  0  0  0  0  0  0  0999 V3000
M  V30 BEGIN CTAB
M  V30 COUNTS 28 30 0 0 0
M  V30 BEGIN ATOM
M  V30 1 C -0.700371 -4.436801 4.728079 0
M  V30 2 N -0.215264 -3.564228 3.671007 0
M  V30 3 C -0.410019 -2.217620 3.557875 0
M  V30 4 C 0.251450 -1.895227 2.391957 0
M  V30 5 C 0.359448 -0.567459 1.798119 0
M  V30 6 C 0.389021 0.566638 2.688910 0
M  V30 7 S 0.530734 2.018204 1.478557 0
M  V30 8 C 0.532714 1.025050 0.067711 0
M  V30 9 C 0.623989 1.491091 -1.331322 0
M  V30 10 C 0.616885 0.603097 -2.365367 0
M  V30 11 C 0.707129 1.128668 -3.640728 0
M  V30 12 C 0.801088 2.507529 -3.855043 0
M  V30 13 N 0.802278 3.335991 -2.774146 0
M  V30 14 C 0.715655 2.849025 -1.526284 0
M  V30 15 C 0.438070 -0.236910 0.473607 0
M  V30 16 C 0.827793 -3.028656 1.823866 0
M  V30 17 N 0.504569 -4.045112 2.665627 0
M  V30 18 H -1.237845 -5.267656 4.188183 0
M  V30 19 H 0.111601 -4.793939 5.374062 0
M  V30 20 H -1.491458 -3.891027 5.296690 0
M  V30 21 H -0.956203 -1.581436 4.234688 0
M  V30 22 H 0.335100 0.509293 3.835922 0
M  V30 23 H 0.544776 -0.466416 -2.213851 0
M  V30 24 H 0.703306 0.433256 -4.488148 0
M  V30 25 H 0.867798 2.823487 -4.893774 0
M  V30 26 H 0.725766 3.600246 -0.743304 0
M  V30 27 H 0.419276 -1.071274 -0.247232 0
M  V30 28 H 1.408321 -3.080797 0.906953 0
M  V30 END ATOM
M  V30 BEGIN BOND
M  V30 1 1 1 2
M  V30 2 1 2 3
M  V30 3 2 3 4
M  V30 4 1 4 5
M  V30 5 2 5 6
M  V30 6 1 6 7
M  V30 7 1 7 8
M  V30 8 1 8 9
M  V30 9 2 9 10
M  V30 10 1 10 11
M  V30 11 2 11 12
M  V30 12 1 12 13
M  V30 13 2 13 14
M  V30 14 2 8 15
M  V30 15 1 4 16
M  V30 16 2 16 17
M  V30 17 1 17 2
M  V30 18 1 15 5
M  V30 19 1 14 9
M  V30 20 1 1 18
M  V30 21 1 1 19
M  V30 22 1 1 20
M  V30 23 1 3 21
M  V30 24 1 6 22
M  V30 25 1 10 23
M  V30 26 1 11 24
M  V30 27 1 12 25
M  V30 28 1 14 26
M  V30 29 1 15 27
M  V30 30 1 16 28
M  V30 END BOND
M  V30 END CTAB
M  END
>  <Dataset>  (506) 
ChEMBL_Kinases

>  <Ligand_Instance>  (506) 
nan

>  <PDB_ID>  (506) 
nan

>  <Standardized_SMILES>  (506) 
Cn1cc(-c2csc(-c3cccnc3)c2)cn1

>  <Name>  (506) 
nan

>  <Pocket>  (506) 
nan

>  <ATP_Site>  (506) 
nan

>  <Peripheral>  (506) 
nan

>  <Num_H_Atoms_ProtBoundConf>  (506) 
nan

>  <Num_Resolved_Atoms>  (506) 
nan

>  <Num_Not_Resolved_Atoms>  (506) 
nan

$$$$
CHEMBL4757177
     RDKit          3D

  0  0  0  0  0  0  0  0  0  0999 V3000
M  V30 BEGIN CTAB
M  V30 COUNTS 51 54 0 0 0
M  V30 BEGIN ATOM
M  V30 1 C 1.743204 -5.205717 -0.353698 0
M  V30 2 C 0.473997 -4.396751 -0.162493 0 CFG=1
M  V30 3 O -0.059774 -3.908309 -1.359397 0
M  V30 4 C -0.182525 -2.543994 -1.586793 0
M  V30 5 N 0.195423 -1.604934 -0.691540 0
M  V30 6 C 0.075511 -0.295071 -0.914497 0
M  V30 7 C 0.499975 0.675841 0.086809 0
M  V30 8 C 1.050374 0.436819 1.328421 0
M  V30 9 N 1.291109 1.620678 1.919311 0
M  V30 10 N 0.924153 2.621094 1.122822 0
M  V30 11 C 0.966814 4.063434 1.273175 0
M  V30 12 C 1.990680 4.425809 2.323723 0
M  V30 13 C 1.554703 5.661632 3.119178 0
M  V30 14 N 0.347931 5.389399 3.849697 0
M  V30 15 C -0.401015 4.283989 3.280968 0
M  V30 16 C -0.392267 4.501509 1.780151 0
M  V30 17 C 0.434838 2.050194 -0.010007 0
M  V30 18 C -0.455055 0.157903 -2.103979 0
M  V30 19 N -0.840944 -0.750274 -3.016100 0
M  V30 20 C -0.715665 -2.088688 -2.782036 0
M  V30 21 N -1.152999 -2.994152 -3.810867 0
M  V30 22 C -0.509823 -5.212386 0.605281 0
M  V30 23 C -1.318852 -5.969790 -0.219610 0
M  V30 24 Cl -1.228536 -5.994298 -1.962682 0
M  V30 25 C -2.296460 -6.794523 0.304019 0
M  V30 26 C -2.461240 -6.856709 1.683292 0
M  V30 27 C -1.650109 -6.097484 2.507893 0
M  V30 28 F -1.745684 -6.100665 3.860748 0
M  V30 29 C -0.678126 -5.278359 1.972709 0
M  V30 30 Cl 0.424851 -4.258850 2.877453 0
M  V30 31 H 1.742340 -5.784223 -1.300361 0
M  V30 32 H 1.800551 -5.965509 0.454722 0
M  V30 33 H 2.641484 -4.564214 -0.243823 0
M  V30 34 H 0.741555 -3.531089 0.479392 0
M  V30 35 H 1.254996 -0.544451 1.756816 0
M  V30 36 H 1.202612 4.527148 0.291989 0
M  V30 37 H 2.925255 4.694425 1.797283 0
M  V30 38 H 2.179344 3.611538 3.038579 0
M  V30 39 H 1.444835 6.535896 2.438758 0
M  V30 40 H 2.383593 5.910589 3.800381 0
M  V30 41 H 0.515971 5.279323 4.868669 0
M  V30 42 H -1.405188 4.207867 3.692632 0
M  V30 43 H 0.164723 3.374199 3.519622 0
M  V30 44 H -0.608890 5.556347 1.516463 0
M  V30 45 H -1.138725 3.806433 1.347981 0
M  V30 46 H 0.036502 2.545726 -0.896481 0
M  V30 47 H -0.567076 1.204044 -2.319052 0
M  V30 48 H -2.189125 -3.100866 -3.812475 0
M  V30 49 H -0.569106 -3.513277 -4.502163 0
M  V30 50 H -2.968268 -7.417459 -0.279949 0
M  V30 51 H -3.224166 -7.496503 2.153727 0
M  V30 END ATOM
M  V30 BEGIN BOND
M  V30 1 1 1 2
M  V30 2 1 2 3
M  V30 3 1 3 4
M  V30 4 2 4 5
M  V30 5 1 5 6
M  V30 6 1 6 7
M  V30 7 1 7 8
M  V30 8 2 8 9
M  V30 9 1 9 10
M  V30 10 1 10 11
M  V30 11 1 11 12
M  V30 12 1 12 13
M  V30 13 1 13 14
M  V30 14 1 14 15
M  V30 15 1 15 16
M  V30 16 1 10 17
M  V30 17 2 6 18
M  V30 18 1 18 19
M  V30 19 2 19 20
M  V30 20 1 20 21
M  V30 21 1 2 22
M  V30 22 2 22 23
M  V30 23 1 23 24
M  V30 24 1 23 25
M  V30 25 2 25 26
M  V30 26 1 26 27
M  V30 27 1 27 28
M  V30 28 2 27 29
M  V30 29 1 29 30
M  V30 30 1 20 4
M  V30 31 1 29 22
M  V30 32 2 17 7
M  V30 33 1 16 11
M  V30 34 1 1 31
M  V30 35 1 1 32
M  V30 36 1 1 33
M  V30 37 1 2 34 CFG=1
M  V30 38 1 8 35
M  V30 39 1 11 36
M  V30 40 1 12 37
M  V30 41 1 12 38
M  V30 42 1 13 39
M  V30 43 1 13 40
M  V30 44 1 14 41
M  V30 45 1 15 42
M  V30 46 1 15 43
M  V30 47 1 16 44
M  V30 48 1 16 45
M  V30 49 1 17 46
M  V30 50 1 18 47
M  V30 51 1 21 48
M  V30 52 1 21 49
M  V30 53 1 25 50
M  V30 54 1 26 51
M  V30 END BOND
M  V30 END CTAB
M  END
>  <Dataset>  (507) 
ChEMBL_Kinases

>  <Ligand_Instance>  (507) 
nan

>  <PDB_ID>  (507) 
nan

>  <Standardized_SMILES>  (507) 
C[C@@H](Oc1nc(-c2cnn(C3CCNCC3)c2)cnc1N)c1c(Cl)ccc(F)c1Cl

>  <Name>  (507) 
nan

>  <Pocket>  (507) 
nan

>  <ATP_Site>  (507) 
nan

>  <Peripheral>  (507) 
nan

>  <Num_H_Atoms_ProtBoundConf>  (507) 
nan

>  <Num_Resolved_Atoms>  (507) 
nan

>  <Num_Not_Resolved_Atoms>  (507) 
nan

$$$$
CHEMBL4756720
     RDKit          3D

  0  0  0  0  0  0  0  0  0  0999 V3000
M  V30 BEGIN CTAB
M  V30 COUNTS 55 58 0 0 0
M  V30 BEGIN ATOM
M  V30 1 C 3.215297 -6.731881 1.046046 0
M  V30 2 O 3.444714 -5.359032 0.971160 0
M  V30 3 C 2.446525 -4.412309 1.125947 0
M  V30 4 O 1.658304 -5.338462 1.289551 0
M  V30 5 C 2.649249 -2.995026 1.054725 0
M  V30 6 C 3.933295 -2.590649 0.814252 0
M  V30 7 N 4.220833 -1.283486 0.729638 0
M  V30 8 C 3.267722 -0.361915 0.877478 0
M  V30 9 N 3.587908 1.018513 0.785087 0
M  V30 10 C 2.629161 2.075225 0.930432 0
M  V30 11 C 1.904705 2.623797 -0.111579 0
M  V30 12 N 1.023020 3.611864 0.097512 0
M  V30 13 C 0.828311 4.089198 1.338307 0
M  V30 14 C -0.114830 5.145747 1.560488 0
M  V30 15 N -0.862462 6.002027 1.749441 0
M  V30 16 C 1.536053 3.566517 2.417282 0
M  V30 17 N 2.406865 2.581449 2.168429 0
M  V30 18 C 1.986330 -0.800741 1.118615 0
M  V30 19 C 1.581035 -2.137784 1.224622 0
M  V30 20 N 0.266622 -2.525345 1.496432 0
M  V30 21 C -0.982394 -1.904459 1.692730 0
M  V30 22 C -1.720629 -1.366992 0.540660 0 CFG=1
M  V30 23 C -3.029085 -0.767363 1.100099 0
M  V30 24 C -3.919368 -0.328001 -0.048725 0 CFG=1
M  V30 25 C -3.844502 1.209115 -0.070100 0
M  V30 26 C -2.630311 1.498824 -0.953961 0
M  V30 27 C -2.106423 0.130754 -1.355579 0 CFG=1
M  V30 28 C -1.106463 -0.290968 -0.268725 0
M  V30 29 N -3.265210 -0.621268 -1.260288 0
M  V30 30 C -3.653950 -1.632554 -2.081428 0
M  V30 31 H 4.192735 -7.230502 0.864310 0
M  V30 32 H 2.792009 -6.991538 2.035978 0
M  V30 33 H 2.480912 -7.029545 0.270422 0
M  V30 34 H 4.737375 -3.297433 0.687992 0
M  V30 35 H 4.571151 1.312925 0.601175 0
M  V30 36 H 2.123955 2.180597 -1.074274 0
M  V30 37 H 1.405310 3.923390 3.417943 0
M  V30 38 H 1.274725 0.001634 1.238979 0
M  V30 39 H 0.206352 -3.589104 1.569259 0
M  V30 40 H -0.892314 -1.060625 2.452619 0
M  V30 41 H -1.671717 -2.618471 2.218480 0
M  V30 42 H -2.091686 -2.148059 -0.162825 0
M  V30 43 H -2.677659 0.073700 1.731155 0
M  V30 44 H -3.537322 -1.486426 1.771521 0
M  V30 45 H -4.943464 -0.677048 0.048317 0
M  V30 46 H -4.764569 1.549258 -0.560289 0
M  V30 47 H -3.687660 1.622013 0.942126 0
M  V30 48 H -1.854696 2.072503 -0.412736 0
M  V30 49 H -2.976431 2.057942 -1.848146 0
M  V30 50 H -1.628395 0.162365 -2.341789 0
M  V30 51 H -0.161175 -0.555065 -0.782645 0
M  V30 52 H -0.884311 0.556286 0.407269 0
M  V30 53 H -4.078604 -2.489458 -1.482576 0
M  V30 54 H -4.481916 -1.335600 -2.766666 0
M  V30 55 H -2.857844 -2.049469 -2.696896 0
M  V30 END ATOM
M  V30 BEGIN BOND
M  V30 1 1 1 2
M  V30 2 1 2 3
M  V30 3 2 3 4
M  V30 4 1 3 5
M  V30 5 2 5 6
M  V30 6 1 6 7
M  V30 7 2 7 8
M  V30 8 1 8 9
M  V30 9 1 9 10
M  V30 10 2 10 11
M  V30 11 1 11 12
M  V30 12 2 12 13
M  V30 13 1 13 14
M  V30 14 3 14 15
M  V30 15 1 13 16
M  V30 16 2 16 17
M  V30 17 1 8 18
M  V30 18 2 18 19
M  V30 19 1 19 20
M  V30 20 1 20 21
M  V30 21 1 21 22
M  V30 22 1 22 23
M  V30 23 1 23 24
M  V30 24 1 24 25
M  V30 25 1 25 26
M  V30 26 1 26 27
M  V30 27 1 27 28
M  V30 28 1 27 29
M  V30 29 1 29 30
M  V30 30 1 19 5
M  V30 31 1 28 22
M  V30 32 1 17 10
M  V30 33 1 29 24
M  V30 34 1 1 31
M  V30 35 1 1 32
M  V30 36 1 1 33
M  V30 37 1 6 34
M  V30 38 1 9 35
M  V30 39 1 11 36
M  V30 40 1 16 37
M  V30 41 1 18 38
M  V30 42 1 20 39
M  V30 43 1 21 40
M  V30 44 1 21 41
M  V30 45 1 22 42 CFG=3
M  V30 46 1 23 43
M  V30 47 1 23 44
M  V30 48 1 24 45 CFG=3
M  V30 49 1 25 46
M  V30 50 1 25 47
M  V30 51 1 26 48
M  V30 52 1 26 49
M  V30 53 1 27 50 CFG=3
M  V30 54 1 28 51
M  V30 55 1 28 52
M  V30 56 1 30 53
M  V30 57 1 30 54
M  V30 58 1 30 55
M  V30 END BOND
M  V30 END CTAB
M  END
>  <Dataset>  (508) 
ChEMBL_Kinases

>  <Ligand_Instance>  (508) 
nan

>  <PDB_ID>  (508) 
nan

>  <Standardized_SMILES>  (508) 
COC(=O)c1cnc(Nc2cnc(C#N)cn2)cc1NC[C@H]1C[C@H]2CC[C@@H](C1)N2C

>  <Name>  (508) 
nan

>  <Pocket>  (508) 
nan

>  <ATP_Site>  (508) 
nan

>  <Peripheral>  (508) 
nan

>  <Num_H_Atoms_ProtBoundConf>  (508) 
nan

>  <Num_Resolved_Atoms>  (508) 
nan

>  <Num_Not_Resolved_Atoms>  (508) 
nan

$$$$
CHEMBL4756758
     RDKit          3D

  0  0  0  0  0  0  0  0  0  0999 V3000
M  V30 BEGIN CTAB
M  V30 COUNTS 52 55 0 0 0
M  V30 BEGIN ATOM
M  V30 1 C 0.343788 -3.874773 2.320752 0
M  V30 2 C 0.664519 -5.270013 1.871491 0
M  V30 3 O 0.134049 -5.581142 0.589669 0
M  V30 4 C 0.506178 -4.845054 -0.533983 0
M  V30 5 N 1.372995 -3.817556 -0.443890 0
M  V30 6 C 1.728302 -3.111081 -1.531005 0
M  V30 7 N 2.646299 -2.071090 -1.186750 0
M  V30 8 C 1.991465 -0.838813 -0.827864 0
M  V30 9 C 2.694821 0.267115 -0.404563 0
M  V30 10 C 2.123771 1.468773 -0.043383 0
M  V30 11 C 0.729457 1.570164 -0.112361 0
M  V30 12 C -0.038210 2.769228 0.251711 0
M  V30 13 O 0.061507 3.957827 -0.151354 0
M  V30 14 N -1.117305 2.746029 1.217459 0
M  V30 15 C -1.746096 4.044149 1.435938 0
M  V30 16 C -1.993910 4.217877 2.885432 0
M  V30 17 N -1.393839 3.308683 3.788184 0
M  V30 18 C -0.005125 3.660422 4.011536 0
M  V30 19 C -1.463912 1.927777 3.463205 0
M  V30 20 C -1.682360 1.636859 2.004357 0
M  V30 21 C -0.064037 0.492850 -0.533745 0
M  V30 22 C 0.632041 -0.648789 -0.865578 0
M  V30 23 N 1.206478 -3.438938 -2.733059 0
M  V30 24 C 0.326204 -4.477146 -2.844177 0
M  V30 25 N -0.272465 -4.914254 -3.966126 0
M  V30 26 C -1.056969 -5.956036 -3.595426 0
M  V30 27 C -0.948436 -6.175800 -2.218283 0
M  V30 28 C -0.055852 -5.220952 -1.736110 0
M  V30 29 H 0.276156 -3.815435 3.443967 0
M  V30 30 H 1.069025 -3.126035 1.928114 0
M  V30 31 H -0.654711 -3.594808 1.934946 0
M  V30 32 H 0.443703 -6.033375 2.622083 0
M  V30 33 H 1.784844 -5.280449 1.716389 0
M  V30 34 H 3.681075 -2.064746 -1.152818 0
M  V30 35 H 3.793072 0.240203 -0.333807 0
M  V30 36 H 2.630790 2.339594 0.286959 0
M  V30 37 H -2.719579 4.006416 0.887199 0
M  V30 38 H -1.117322 4.889532 1.072429 0
M  V30 39 H -3.111001 4.123874 3.054751 0
M  V30 40 H -1.810251 5.296333 3.157491 0
M  V30 41 H 0.696869 3.030232 3.399045 0
M  V30 42 H 0.250910 4.700529 3.821919 0
M  V30 43 H 0.200240 3.435676 5.094766 0
M  V30 44 H -2.319536 1.483113 4.015370 0
M  V30 45 H -0.558322 1.384059 3.800371 0
M  V30 46 H -2.788650 1.685422 1.813368 0
M  V30 47 H -1.263510 0.665924 1.755897 0
M  V30 48 H -1.130113 0.516243 -0.610631 0
M  V30 49 H 0.020566 -1.500318 -1.198001 0
M  V30 50 H -0.213904 -4.594709 -4.958248 0
M  V30 51 H -1.717615 -6.618874 -4.124575 0
M  V30 52 H -1.401753 -6.891262 -1.555374 0
M  V30 END ATOM
M  V30 BEGIN BOND
M  V30 1 1 1 2
M  V30 2 1 2 3
M  V30 3 1 3 4
M  V30 4 2 4 5
M  V30 5 1 5 6
M  V30 6 1 6 7
M  V30 7 1 7 8
M  V30 8 2 8 9
M  V30 9 1 9 10
M  V30 10 2 10 11
M  V30 11 1 11 12
M  V30 12 2 12 13
M  V30 13 1 12 14
M  V30 14 1 14 15
M  V30 15 1 15 16
M  V30 16 1 16 17
M  V30 17 1 17 18
M  V30 18 1 17 19
M  V30 19 1 19 20
M  V30 20 1 11 21
M  V30 21 2 21 22
M  V30 22 2 6 23
M  V30 23 1 23 24
M  V30 24 1 24 25
M  V30 25 1 25 26
M  V30 26 2 26 27
M  V30 27 1 27 28
M  V30 28 1 28 4
M  V30 29 1 22 8
M  V30 30 2 28 24
M  V30 31 1 20 14
M  V30 32 1 1 29
M  V30 33 1 1 30
M  V30 34 1 1 31
M  V30 35 1 2 32
M  V30 36 1 2 33
M  V30 37 1 7 34
M  V30 38 1 9 35
M  V30 39 1 10 36
M  V30 40 1 15 37
M  V30 41 1 15 38
M  V30 42 1 16 39
M  V30 43 1 16 40
M  V30 44 1 18 41
M  V30 45 1 18 42
M  V30 46 1 18 43
M  V30 47 1 19 44
M  V30 48 1 19 45
M  V30 49 1 20 46
M  V30 50 1 20 47
M  V30 51 1 21 48
M  V30 52 1 22 49
M  V30 53 1 25 50
M  V30 54 1 26 51
M  V30 55 1 27 52
M  V30 END BOND
M  V30 END CTAB
M  END
>  <Dataset>  (509) 
ChEMBL_Kinases

>  <Ligand_Instance>  (509) 
nan

>  <PDB_ID>  (509) 
nan

>  <Standardized_SMILES>  (509) 
CCOc1nc(Nc2ccc(C(=O)N3CCN(C)CC3)cc2)nc2[nH]ccc12

>  <Name>  (509) 
nan

>  <Pocket>  (509) 
nan

>  <ATP_Site>  (509) 
nan

>  <Peripheral>  (509) 
nan

>  <Num_H_Atoms_ProtBoundConf>  (509) 
nan

>  <Num_Resolved_Atoms>  (509) 
nan

>  <Num_Not_Resolved_Atoms>  (509) 
nan

$$$$
CHEMBL4756781
     RDKit          3D

  0  0  0  0  0  0  0  0  0  0999 V3000
M  V30 BEGIN CTAB
M  V30 COUNTS 54 57 0 0 0
M  V30 BEGIN ATOM
M  V30 1 C -1.734883 -2.884624 6.105362 0
M  V30 2 N -0.605757 -3.228708 5.301960 0
M  V30 3 C -0.667541 -2.521624 4.036618 0
M  V30 4 C 0.663531 -2.808179 3.368099 0
M  V30 5 N 1.586238 -1.829354 3.904463 0
M  V30 6 C 1.463269 -0.546552 3.261848 0
M  V30 7 C 1.926505 -0.635023 1.854256 0
M  V30 8 O 2.371827 -1.689404 1.282512 0
M  V30 9 N 1.924842 0.475098 0.964207 0
M  V30 10 C 2.412972 0.145997 -0.329032 0
M  V30 11 C 2.451452 1.229643 -1.322377 0
M  V30 12 C 1.233986 1.917881 -1.721853 0
M  V30 13 N 0.157065 1.229541 -2.317397 0
M  V30 14 C -0.884224 0.667939 -1.624782 0
M  V30 15 O -0.898381 0.764900 -0.370933 0
M  V30 16 C -1.915883 0.001388 -2.251944 0
M  V30 17 C -2.949868 -0.551612 -1.518131 0
M  V30 18 C -3.954253 -1.205092 -2.187813 0
M  V30 19 F -4.950917 -1.733676 -1.435262 0
M  V30 20 C -3.999454 -1.347696 -3.565303 0
M  V30 21 C -2.940681 -0.778167 -4.279925 0
M  V30 22 C -1.944966 -0.131112 -3.624566 0
M  V30 23 N -0.932434 0.416317 -4.281545 0
M  V30 24 C -0.661981 0.468219 -5.586472 0
M  V30 25 S -1.418549 -0.094274 -6.910893 0
M  V30 26 N 0.486690 1.135877 -5.783458 0
M  V30 27 N 0.929739 1.500081 -4.583695 0
M  V30 28 C 0.065253 1.062596 -3.657059 0
M  V30 29 C 1.402158 -1.780443 5.321781 0
M  V30 30 C 0.675065 -2.984070 5.888478 0
M  V30 31 H -1.554473 -1.862715 6.527014 0
M  V30 32 H -2.621917 -2.848090 5.437957 0
M  V30 33 H -1.906778 -3.614658 6.926676 0
M  V30 34 H -1.527226 -2.806985 3.404630 0
M  V30 35 H -0.790570 -1.440008 4.278185 0
M  V30 36 H 0.594833 -2.835488 2.277459 0
M  V30 37 H 1.047487 -3.818452 3.668342 0
M  V30 38 H 2.127209 0.151748 3.838773 0
M  V30 39 H 0.454487 -0.110599 3.284848 0
M  V30 40 H 1.587936 1.404146 1.291273 0
M  V30 41 H 1.815512 -0.709735 -0.765126 0
M  V30 42 H 3.412553 -0.313925 -0.179060 0
M  V30 43 H 3.034437 0.908115 -2.225368 0
M  V30 44 H 3.131564 2.028813 -0.893090 0
M  V30 45 H 1.534230 2.722342 -2.457418 0
M  V30 46 H 0.818477 2.535223 -0.871049 0
M  V30 47 H -2.936766 -0.452756 -0.437418 0
M  V30 48 H -4.835965 -1.882906 -4.017302 0
M  V30 49 H -3.034732 -0.922809 -5.335252 0
M  V30 50 H 1.048202 1.398859 -6.639867 0
M  V30 51 H 2.431823 -1.831014 5.783339 0
M  V30 52 H 0.956018 -0.856033 5.702805 0
M  V30 53 H 0.490575 -2.748689 6.966048 0
M  V30 54 H 1.323225 -3.883708 5.905154 0
M  V30 END ATOM
M  V30 BEGIN BOND
M  V30 1 1 1 2
M  V30 2 1 2 3
M  V30 3 1 3 4
M  V30 4 1 4 5
M  V30 5 1 5 6
M  V30 6 1 6 7
M  V30 7 2 7 8
M  V30 8 1 7 9
M  V30 9 1 9 10
M  V30 10 1 10 11
M  V30 11 1 11 12
M  V30 12 1 12 13
M  V30 13 1 13 14
M  V30 14 2 14 15
M  V30 15 1 14 16
M  V30 16 2 16 17
M  V30 17 1 17 18
M  V30 18 1 18 19
M  V30 19 2 18 20
M  V30 20 1 20 21
M  V30 21 2 21 22
M  V30 22 1 22 23
M  V30 23 1 23 24
M  V30 24 2 24 25
M  V30 25 1 24 26
M  V30 26 1 26 27
M  V30 27 2 27 28
M  V30 28 1 5 29
M  V30 29 1 29 30
M  V30 30 1 30 2
M  V30 31 1 28 13
M  V30 32 1 22 16
M  V30 33 1 28 23
M  V30 34 1 1 31
M  V30 35 1 1 32
M  V30 36 1 1 33
M  V30 37 1 3 34
M  V30 38 1 3 35
M  V30 39 1 4 36
M  V30 40 1 4 37
M  V30 41 1 6 38
M  V30 42 1 6 39
M  V30 43 1 9 40
M  V30 44 1 10 41
M  V30 45 1 10 42
M  V30 46 1 11 43
M  V30 47 1 11 44
M  V30 48 1 12 45
M  V30 49 1 12 46
M  V30 50 1 17 47
M  V30 51 1 20 48
M  V30 52 1 21 49
M  V30 53 1 26 50
M  V30 54 1 29 51
M  V30 55 1 29 52
M  V30 56 1 30 53
M  V30 57 1 30 54
M  V30 END BOND
M  V30 END CTAB
M  END
>  <Dataset>  (510) 
ChEMBL_Kinases

>  <Ligand_Instance>  (510) 
nan

>  <PDB_ID>  (510) 
nan

>  <Standardized_SMILES>  (510) 
CN1CCN(CC(=O)NCCCn2c(=O)c3cc(F)ccc3n3c(=S)[nH]nc23)CC1

>  <Name>  (510) 
nan

>  <Pocket>  (510) 
nan

>  <ATP_Site>  (510) 
nan

>  <Peripheral>  (510) 
nan

>  <Num_H_Atoms_ProtBoundConf>  (510) 
nan

>  <Num_Resolved_Atoms>  (510) 
nan

>  <Num_Not_Resolved_Atoms>  (510) 
nan

$$$$
CHEMBL4756791
     RDKit          3D

  0  0  0  0  0  0  0  0  0  0999 V3000
M  V30 BEGIN CTAB
M  V30 COUNTS 56 59 0 0 0
M  V30 BEGIN ATOM
M  V30 1 C 4.300910 1.743452 3.284615 0
M  V30 2 C 3.533478 0.537706 2.788553 0
M  V30 3 C 4.247295 -0.716225 3.178578 0
M  V30 4 C 2.189321 0.534752 3.519842 0
M  V30 5 O 3.261462 0.698503 1.436117 0
M  V30 6 C 2.572488 -0.267858 0.715670 0
M  V30 7 O 2.222855 -1.303042 1.380721 0
M  V30 8 N 2.271804 -0.113975 -0.681085 0
M  V30 9 C 2.479271 0.854623 -1.778121 0
M  V30 10 C 1.106894 1.450148 -2.106372 0
M  V30 11 N 0.127411 0.721966 -1.254232 0
M  V30 12 C -1.143505 1.334303 -1.318607 0
M  V30 13 C -2.127307 0.997480 -0.238518 0
M  V30 14 N -2.515651 -0.349512 -0.055352 0
M  V30 15 C -3.566529 -0.772888 -0.776582 0
M  V30 16 O -4.165635 -0.040044 -1.606248 0
M  V30 17 C -4.042509 -2.058515 -0.633121 0
M  V30 18 C -5.123729 -2.506012 -1.355527 0
M  V30 19 C -5.604735 -3.787273 -1.204472 0
M  V30 20 F -6.665231 -4.161178 -1.941603 0
M  V30 21 C -4.990882 -4.644956 -0.310264 0
M  V30 22 C -3.910397 -4.236190 0.427270 0
M  V30 23 C -3.472703 -2.949358 0.238463 0
M  V30 24 N -2.436273 -2.529065 0.947644 0
M  V30 25 C -1.654613 -3.108731 1.862159 0
M  V30 26 S -1.645342 -4.598859 2.503036 0
M  V30 27 N -0.718748 -2.247583 2.292696 0
M  V30 28 N -0.931325 -1.103246 1.622832 0
M  V30 29 C -1.982420 -1.275852 0.799855 0
M  V30 30 C 0.185190 -0.632741 -1.823304 0
M  V30 31 C 1.495097 -1.221835 -1.285701 0
M  V30 32 H 4.032511 2.593421 2.619747 0
M  V30 33 H 3.988635 1.932441 4.335492 0
M  V30 34 H 5.386744 1.580343 3.181198 0
M  V30 35 H 4.790722 -0.516110 4.127403 0
M  V30 36 H 3.546758 -1.553380 3.430787 0
M  V30 37 H 5.007999 -1.029461 2.435911 0
M  V30 38 H 1.984541 1.552798 3.922014 0
M  V30 39 H 2.184924 -0.198041 4.343798 0
M  V30 40 H 1.368533 0.287078 2.824919 0
M  V30 41 H 2.967545 0.385874 -2.628710 0
M  V30 42 H 3.102224 1.697821 -1.397567 0
M  V30 43 H 0.840515 1.311167 -3.152015 0
M  V30 44 H 1.023187 2.506193 -1.808296 0
M  V30 45 H -1.580308 1.102885 -2.335665 0
M  V30 46 H -1.018713 2.447710 -1.332877 0
M  V30 47 H -1.680610 1.347372 0.748938 0
M  V30 48 H -3.042642 1.660025 -0.316571 0
M  V30 49 H -5.600726 -1.828985 -2.055927 0
M  V30 50 H -5.450528 -5.644072 -0.262065 0
M  V30 51 H -3.534980 -4.991026 1.074948 0
M  V30 52 H 0.068858 -2.285548 2.978300 0
M  V30 53 H 0.275619 -0.535975 -2.946358 0
M  V30 54 H -0.676109 -1.214568 -1.590832 0
M  V30 55 H 1.281222 -2.020051 -0.564202 0
M  V30 56 H 2.061636 -1.641773 -2.138470 0
M  V30 END ATOM
M  V30 BEGIN BOND
M  V30 1 1 1 2
M  V30 2 1 2 3
M  V30 3 1 2 4
M  V30 4 1 2 5
M  V30 5 1 5 6
M  V30 6 2 6 7
M  V30 7 1 6 8
M  V30 8 1 8 9
M  V30 9 1 9 10
M  V30 10 1 10 11
M  V30 11 1 11 12
M  V30 12 1 12 13
M  V30 13 1 13 14
M  V30 14 1 14 15
M  V30 15 2 15 16
M  V30 16 1 15 17
M  V30 17 2 17 18
M  V30 18 1 18 19
M  V30 19 1 19 20
M  V30 20 2 19 21
M  V30 21 1 21 22
M  V30 22 2 22 23
M  V30 23 1 23 24
M  V30 24 1 24 25
M  V30 25 2 25 26
M  V30 26 1 25 27
M  V30 27 1 27 28
M  V30 28 2 28 29
M  V30 29 1 11 30
M  V30 30 1 30 31
M  V30 31 1 31 8
M  V30 32 1 29 14
M  V30 33 1 23 17
M  V30 34 1 29 24
M  V30 35 1 1 32
M  V30 36 1 1 33
M  V30 37 1 1 34
M  V30 38 1 3 35
M  V30 39 1 3 36
M  V30 40 1 3 37
M  V30 41 1 4 38
M  V30 42 1 4 39
M  V30 43 1 4 40
M  V30 44 1 9 41
M  V30 45 1 9 42
M  V30 46 1 10 43
M  V30 47 1 10 44
M  V30 48 1 12 45
M  V30 49 1 12 46
M  V30 50 1 13 47
M  V30 51 1 13 48
M  V30 52 1 18 49
M  V30 53 1 21 50
M  V30 54 1 22 51
M  V30 55 1 27 52
M  V30 56 1 30 53
M  V30 57 1 30 54
M  V30 58 1 31 55
M  V30 59 1 31 56
M  V30 END BOND
M  V30 END CTAB
M  END
>  <Dataset>  (511) 
ChEMBL_Kinases

>  <Ligand_Instance>  (511) 
nan

>  <PDB_ID>  (511) 
nan

>  <Standardized_SMILES>  (511) 
CC(C)(C)OC(=O)N1CCN(CCn2c(=O)c3cc(F)ccc3n3c(=S)[nH]nc23)CC1

>  <Name>  (511) 
nan

>  <Pocket>  (511) 
nan

>  <ATP_Site>  (511) 
nan

>  <Peripheral>  (511) 
nan

>  <Num_H_Atoms_ProtBoundConf>  (511) 
nan

>  <Num_Resolved_Atoms>  (511) 
nan

>  <Num_Not_Resolved_Atoms>  (511) 
nan

$$$$
CHEMBL4756863
     RDKit          3D

  0  0  0  0  0  0  0  0  0  0999 V3000
M  V30 BEGIN CTAB
M  V30 COUNTS 54 58 0 0 0
M  V30 BEGIN ATOM
M  V30 1 C 2.600144 -1.698220 2.909161 0
M  V30 2 O 2.759916 -0.335651 2.683256 0
M  V30 3 C 3.691793 0.505396 3.221809 0
M  V30 4 C 4.605408 -0.021100 4.102576 0
M  V30 5 C 5.564842 0.778670 4.674263 0
M  V30 6 N 5.543972 2.070829 4.319846 0
M  V30 7 C 4.651532 2.580677 3.460661 0
M  V30 8 C 3.666382 1.828604 2.855596 0
M  V30 9 C 2.759460 2.496115 1.943596 0
M  V30 10 C 1.713711 1.971005 1.230066 0
M  V30 11 C 0.908298 2.681302 0.389566 0
M  V30 12 C 1.122829 4.030980 0.211793 0
M  V30 13 C 2.167726 4.540278 0.928761 0
M  V30 14 N 2.941437 3.813031 1.747887 0
M  V30 15 C 0.183030 4.492529 -0.673059 0
M  V30 16 N -0.553482 3.437030 -0.996626 0
M  V30 17 N -0.143503 2.339869 -0.376798 0
M  V30 18 C -0.706584 1.017050 -0.489504 0
M  V30 19 C 0.107478 -0.063524 -0.804271 0
M  V30 20 C -0.449855 -1.324587 -0.908131 0
M  V30 21 C -1.785507 -1.542338 -0.709432 0
M  V30 22 N -2.380315 -2.828080 -0.811010 0
M  V30 23 C -1.685153 -4.056194 -1.133768 0
M  V30 24 C -2.556037 -4.791336 -2.152177 0
M  V30 25 N -3.715422 -5.303060 -1.456572 0
M  V30 26 C -4.848617 -5.470674 -2.346436 0
M  V30 27 C -4.107535 -4.467870 -0.344530 0
M  V30 28 C -3.801413 -3.009304 -0.586068 0
M  V30 29 C -2.581901 -0.465425 -0.398331 0
M  V30 30 C -2.062063 0.807405 -0.286033 0
M  V30 31 H 1.624871 -2.025688 2.492501 0
M  V30 32 H 3.378415 -2.333142 2.445558 0
M  V30 33 H 2.597773 -1.936417 4.007706 0
M  V30 34 H 4.574537 -1.070453 4.351492 0
M  V30 35 H 6.269120 0.333775 5.363437 0
M  V30 36 H 4.790921 3.638191 3.297868 0
M  V30 37 H 1.506158 0.934766 1.331690 0
M  V30 38 H 2.398341 5.602654 0.839076 0
M  V30 39 H 0.129727 5.528402 -0.986776 0
M  V30 40 H 1.165424 0.098663 -0.963310 0
M  V30 41 H 0.221364 -2.134704 -1.154602 0
M  V30 42 H -0.661774 -3.937247 -1.478486 0
M  V30 43 H -1.746344 -4.698963 -0.209363 0
M  V30 44 H -2.009546 -5.573502 -2.693512 0
M  V30 45 H -2.892827 -4.038782 -2.893775 0
M  V30 46 H -5.624300 -6.036921 -1.774319 0
M  V30 47 H -5.237427 -4.452736 -2.594628 0
M  V30 48 H -4.553430 -6.049764 -3.221095 0
M  V30 49 H -5.207095 -4.565141 -0.230032 0
M  V30 50 H -3.665130 -4.800719 0.618486 0
M  V30 51 H -4.025652 -2.463485 0.353917 0
M  V30 52 H -4.411767 -2.663604 -1.433700 0
M  V30 53 H -3.662467 -0.540464 -0.221464 0
M  V30 54 H -2.678505 1.648421 -0.044062 0
M  V30 END ATOM
M  V30 BEGIN BOND
M  V30 1 1 1 2
M  V30 2 1 2 3
M  V30 3 2 3 4
M  V30 4 1 4 5
M  V30 5 2 5 6
M  V30 6 1 6 7
M  V30 7 2 7 8
M  V30 8 1 8 9
M  V30 9 2 9 10
M  V30 10 1 10 11
M  V30 11 2 11 12
M  V30 12 1 12 13
M  V30 13 2 13 14
M  V30 14 1 12 15
M  V30 15 2 15 16
M  V30 16 1 16 17
M  V30 17 1 17 18
M  V30 18 2 18 19
M  V30 19 1 19 20
M  V30 20 2 20 21
M  V30 21 1 21 22
M  V30 22 1 22 23
M  V30 23 1 23 24
M  V30 24 1 24 25
M  V30 25 1 25 26
M  V30 26 1 25 27
M  V30 27 1 27 28
M  V30 28 1 21 29
M  V30 29 2 29 30
M  V30 30 1 8 3
M  V30 31 1 14 9
M  V30 32 1 30 18
M  V30 33 1 17 11
M  V30 34 1 28 22
M  V30 35 1 1 31
M  V30 36 1 1 32
M  V30 37 1 1 33
M  V30 38 1 4 34
M  V30 39 1 5 35
M  V30 40 1 7 36
M  V30 41 1 10 37
M  V30 42 1 13 38
M  V30 43 1 15 39
M  V30 44 1 19 40
M  V30 45 1 20 41
M  V30 46 1 23 42
M  V30 47 1 23 43
M  V30 48 1 24 44
M  V30 49 1 24 45
M  V30 50 1 26 46
M  V30 51 1 26 47
M  V30 52 1 26 48
M  V30 53 1 27 49
M  V30 54 1 27 50
M  V30 55 1 28 51
M  V30 56 1 28 52
M  V30 57 1 29 53
M  V30 58 1 30 54
M  V30 END BOND
M  V30 END CTAB
M  END
>  <Dataset>  (512) 
ChEMBL_Kinases

>  <Ligand_Instance>  (512) 
nan

>  <PDB_ID>  (512) 
nan

>  <Standardized_SMILES>  (512) 
COc1ccncc1-c1cc2c(cn1)cnn2-c1ccc(N2CCN(C)CC2)cc1

>  <Name>  (512) 
nan

>  <Pocket>  (512) 
nan

>  <ATP_Site>  (512) 
nan

>  <Peripheral>  (512) 
nan

>  <Num_H_Atoms_ProtBoundConf>  (512) 
nan

>  <Num_Resolved_Atoms>  (512) 
nan

>  <Num_Not_Resolved_Atoms>  (512) 
nan

$$$$
CHEMBL4756997
     RDKit          3D

  0  0  0  0  0  0  0  0  0  0999 V3000
M  V30 BEGIN CTAB
M  V30 COUNTS 83 88 0 0 0
M  V30 BEGIN ATOM
M  V30 1 C 2.874306 -3.158108 5.636014 0
M  V30 2 N 2.568805 -2.019423 4.797019 0
M  V30 3 C 3.488414 -1.656768 3.785843 0
M  V30 4 O 4.557271 -2.318237 3.623764 0
M  V30 5 C 3.223493 -0.511299 2.907075 0
M  V30 6 S 1.682847 0.464655 3.116859 0
M  V30 7 C 2.115525 1.603661 1.734125 0
M  V30 8 C 1.207856 2.716305 1.329430 0
M  V30 9 C 1.568137 3.562855 0.306899 0
M  V30 10 C 0.737032 4.582907 -0.102348 0
M  V30 11 N -0.437175 4.694852 0.556945 0
M  V30 12 C -0.792271 3.874316 1.552598 0
M  V30 13 N -2.107348 4.192645 2.070484 0
M  V30 14 C -2.869160 3.297981 1.223097 0
M  V30 15 O -1.898171 2.784674 0.558918 0
M  V30 16 C -4.379400 3.190795 1.300561 0
M  V30 17 N -4.898122 2.228246 0.414138 0
M  V30 18 C -4.761352 0.862727 0.665472 0
M  V30 19 C -3.414563 0.228447 0.676848 0
M  V30 20 C -3.655226 -1.256817 0.934377 0
M  V30 21 C -2.455638 -2.097911 1.019979 0
M  V30 22 N -1.594806 -2.244858 -0.109265 0
M  V30 23 C -1.554567 -2.771380 -1.403726 0
M  V30 24 C -1.808516 -2.310663 -2.668943 0
M  V30 25 C -1.728772 -3.101756 -3.787667 0
M  V30 26 N -1.387797 -4.391975 -3.680309 0
M  V30 27 C -1.114071 -4.949673 -2.478326 0
M  V30 28 C -0.772388 -6.279072 -2.501350 0
M  V30 29 C -0.483841 -6.865010 -1.292066 0
M  V30 30 C -0.533129 -6.160098 -0.113074 0
M  V30 31 C -0.886165 -4.836907 -0.199811 0
M  V30 32 C -1.201744 -4.126777 -1.354553 0
M  V30 33 C -2.009147 -2.587946 -5.129408 0
M  V30 34 C -2.490403 -1.172096 -5.099071 0
M  V30 35 C -1.738124 -0.347197 -4.085437 0
M  V30 36 C -2.143101 -0.863523 -2.697815 0
M  V30 37 C 0.020153 2.851105 1.977822 0
M  V30 38 N 3.142027 1.173534 1.388719 0
M  V30 39 C 3.820517 0.152853 1.849957 0
M  V30 40 O 4.996471 -0.487730 1.591307 0
M  V30 41 C 5.992070 -0.283446 0.676661 0
M  V30 42 C 6.733197 1.008499 0.705806 0
M  V30 43 C 6.140856 2.329107 0.506379 0
M  V30 44 C 7.034824 1.711914 -0.595334 0
M  V30 45 H 2.596091 -4.119116 5.157499 0
M  V30 46 H 2.247294 -3.062503 6.568436 0
M  V30 47 H 3.919651 -3.101472 5.967832 0
M  V30 48 H 1.668174 -1.475132 4.947483 0
M  V30 49 H 2.532083 3.368865 -0.138883 0
M  V30 50 H 1.085531 5.207965 -0.911902 0
M  V30 51 H -2.612707 4.799875 2.786236 0
M  V30 52 H -4.682243 3.037948 2.360289 0
M  V30 53 H -4.756469 4.191290 1.007599 0
M  V30 54 H -5.063023 2.564961 -0.534147 0
M  V30 55 H -5.329641 0.321318 -0.165669 0
M  V30 56 H -5.254047 0.601826 1.646330 0
M  V30 57 H -2.805898 0.534083 1.573305 0
M  V30 58 H -2.833864 0.330588 -0.224223 0
M  V30 59 H -4.287701 -1.602242 0.066639 0
M  V30 60 H -4.238403 -1.374438 1.871589 0
M  V30 61 H -2.828223 -3.130183 1.330110 0
M  V30 62 H -1.835960 -1.706935 1.883424 0
M  V30 63 H -0.612277 -1.864792 -0.094805 0
M  V30 64 H -0.733979 -6.829630 -3.425563 0
M  V30 65 H -0.208595 -7.908049 -1.249925 0
M  V30 66 H -0.308673 -6.614672 0.835630 0
M  V30 67 H -0.904773 -4.303530 0.740462 0
M  V30 68 H -1.036952 -2.644728 -5.694203 0
M  V30 69 H -2.795575 -3.216372 -5.628085 0
M  V30 70 H -2.346398 -0.756457 -6.140055 0
M  V30 71 H -3.587991 -1.155750 -4.897187 0
M  V30 72 H -0.658177 -0.585961 -4.185201 0
M  V30 73 H -1.947226 0.716203 -4.227118 0
M  V30 74 H -1.462427 -0.293979 -1.995628 0
M  V30 75 H -3.186613 -0.642538 -2.451586 0
M  V30 76 H -0.343225 2.238162 2.786233 0
M  V30 77 H 6.758700 -1.114113 0.780718 0
M  V30 78 H 5.581003 -0.478616 -0.363120 0
M  V30 79 H 7.625478 1.000119 1.416306 0
M  V30 80 H 5.134861 2.546873 0.129753 0
M  V30 81 H 6.596112 3.208761 1.024964 0
M  V30 82 H 8.050203 2.181881 -0.714507 0
M  V30 83 H 6.553529 1.398420 -1.538220 0
M  V30 END ATOM
M  V30 BEGIN BOND
M  V30 1 1 1 2
M  V30 2 1 2 3
M  V30 3 2 3 4
M  V30 4 1 3 5
M  V30 5 1 5 6
M  V30 6 1 6 7
M  V30 7 1 7 8
M  V30 8 2 8 9
M  V30 9 1 9 10
M  V30 10 2 10 11
M  V30 11 1 11 12
M  V30 12 1 12 13
M  V30 13 1 13 14
M  V30 14 2 14 15
M  V30 15 1 14 16
M  V30 16 1 16 17
M  V30 17 1 17 18
M  V30 18 1 18 19
M  V30 19 1 19 20
M  V30 20 1 20 21
M  V30 21 1 21 22
M  V30 22 1 22 23
M  V30 23 2 23 24
M  V30 24 1 24 25
M  V30 25 2 25 26
M  V30 26 1 26 27
M  V30 27 2 27 28
M  V30 28 1 28 29
M  V30 29 2 29 30
M  V30 30 1 30 31
M  V30 31 2 31 32
M  V30 32 1 25 33
M  V30 33 1 33 34
M  V30 34 1 34 35
M  V30 35 1 35 36
M  V30 36 2 12 37
M  V30 37 2 7 38
M  V30 38 1 38 39
M  V30 39 1 39 40
M  V30 40 1 40 41
M  V30 41 1 41 42
M  V30 42 1 42 43
M  V30 43 1 43 44
M  V30 44 2 39 5
M  V30 45 1 44 42
M  V30 46 1 37 8
M  V30 47 1 32 23
M  V30 48 1 36 24
M  V30 49 1 32 27
M  V30 50 1 1 45
M  V30 51 1 1 46
M  V30 52 1 1 47
M  V30 53 1 2 48
M  V30 54 1 9 49
M  V30 55 1 10 50
M  V30 56 1 13 51
M  V30 57 1 16 52
M  V30 58 1 16 53
M  V30 59 1 17 54
M  V30 60 1 18 55
M  V30 61 1 18 56
M  V30 62 1 19 57
M  V30 63 1 19 58
M  V30 64 1 20 59
M  V30 65 1 20 60
M  V30 66 1 21 61
M  V30 67 1 21 62
M  V30 68 1 22 63
M  V30 69 1 28 64
M  V30 70 1 29 65
M  V30 71 1 30 66
M  V30 72 1 31 67
M  V30 73 1 33 68
M  V30 74 1 33 69
M  V30 75 1 34 70
M  V30 76 1 34 71
M  V30 77 1 35 72
M  V30 78 1 35 73
M  V30 79 1 36 74
M  V30 80 1 36 75
M  V30 81 1 37 76
M  V30 82 1 41 77
M  V30 83 1 41 78
M  V30 84 1 42 79
M  V30 85 1 43 80
M  V30 86 1 43 81
M  V30 87 1 44 82
M  V30 88 1 44 83
M  V30 END BOND
M  V30 END CTAB
M  END
>  <Dataset>  (513) 
ChEMBL_Kinases

>  <Ligand_Instance>  (513) 
nan

>  <PDB_ID>  (513) 
nan

>  <Standardized_SMILES>  (513) 
CNC(=O)c1sc(-c2ccnc(NC(=O)CNCCCCNc3c4c(nc5ccccc35)CCCC4)c2)nc1OCC1CC1

>  <Name>  (513) 
nan

>  <Pocket>  (513) 
nan

>  <ATP_Site>  (513) 
nan

>  <Peripheral>  (513) 
nan

>  <Num_H_Atoms_ProtBoundConf>  (513) 
nan

>  <Num_Resolved_Atoms>  (513) 
nan

>  <Num_Not_Resolved_Atoms>  (513) 
nan

$$$$
CHEMBL4757004
     RDKit          3D

  0  0  0  0  0  0  0  0  0  0999 V3000
M  V30 BEGIN CTAB
M  V30 COUNTS 56 62 0 0 0
M  V30 BEGIN ATOM
M  V30 1 C 0.388127 2.916657 3.201169 0
M  V30 2 C -0.122341 2.340415 1.879966 0 CFG=2
M  V30 3 O 0.535275 1.158370 1.685665 0
M  V30 4 C 1.021567 0.935287 0.425708 0 CFG=1
M  V30 5 N 1.359890 -0.453701 0.199280 0
M  V30 6 C 2.618668 -0.932919 -0.061360 0
M  V30 7 C 3.804647 -0.183741 -0.164387 0
M  V30 8 C 5.016194 -0.775243 -0.431272 0
M  V30 9 C 5.021351 -2.146260 -0.595443 0
M  V30 10 C 3.820092 -2.815551 -0.480448 0
M  V30 11 C 2.588456 -2.285550 -0.217646 0
M  V30 12 C 1.316565 -2.707202 -0.062462 0
M  V30 13 C 0.751852 -3.954852 -0.119106 0
M  V30 14 C -0.600567 -4.101622 0.082479 0
M  V30 15 C -1.349022 -2.980812 0.336332 0
M  V30 16 C -2.690628 -2.821115 0.569595 0
M  V30 17 C -3.809591 -3.599920 0.657030 0
M  V30 18 C -5.091659 -3.166222 0.912974 0
M  V30 19 C -5.316042 -1.820255 1.106962 0
M  V30 20 C -4.221986 -0.987590 1.029831 0
M  V30 21 C -2.943038 -1.476054 0.767950 0
M  V30 22 N -1.741109 -0.844836 0.649862 0
M  V30 23 C -0.770506 -1.738410 0.389958 0
M  V30 24 C 0.583340 -1.567570 0.191624 0
M  V30 25 C -0.930461 -5.510264 -0.030925 0
M  V30 26 O -1.991308 -6.161005 0.063798 0
M  V30 27 N 0.259123 -6.264877 -0.312913 0
M  V30 28 C 1.297865 -5.275430 -0.363920 0
M  V30 29 O 2.443086 -5.710512 -0.600873 0
M  V30 30 C 0.302752 1.512912 -0.728951 0
M  V30 31 C -0.355131 2.836303 -0.476330 0 CFG=1
M  V30 32 N -1.779733 2.662059 -0.535086 0
M  V30 33 C 0.062267 3.391221 0.848141 0 CFG=1
M  V30 34 O -0.811871 4.447698 1.182263 0
M  V30 35 H -0.438773 3.290848 3.835332 0
M  V30 36 H 0.915897 2.149052 3.798940 0
M  V30 37 H 1.105041 3.752441 3.010607 0
M  V30 38 H -1.192234 2.145030 2.045076 0
M  V30 39 H 2.002637 1.515996 0.455592 0
M  V30 40 H 3.861497 0.894111 -0.045401 0
M  V30 41 H 5.930279 -0.214257 -0.512624 0
M  V30 42 H 5.959753 -2.633062 -0.805558 0
M  V30 43 H 3.923823 -3.866605 -0.622568 0
M  V30 44 H -3.739644 -4.635570 0.524193 0
M  V30 45 H -5.943595 -3.817581 0.972674 0
M  V30 46 H -6.298195 -1.425608 1.310361 0
M  V30 47 H -4.427694 0.071208 1.187095 0
M  V30 48 H -1.733968 0.193915 0.766574 0
M  V30 49 H 0.339514 -7.315201 -0.450328 0
M  V30 50 H -0.405865 0.779271 -1.158642 0
M  V30 51 H 1.042989 1.683577 -1.569170 0
M  V30 52 H -0.058180 3.611185 -1.240059 0
M  V30 53 H -2.221649 3.404693 -1.130486 0
M  V30 54 H -2.017719 1.762272 -1.049948 0
M  V30 55 H 1.084996 3.804191 0.841695 0
M  V30 56 H -1.731531 4.124818 0.960025 0
M  V30 END ATOM
M  V30 BEGIN BOND
M  V30 1 1 1 2
M  V30 2 1 2 3
M  V30 3 1 3 4
M  V30 4 1 4 5
M  V30 5 1 5 6
M  V30 6 2 6 7
M  V30 7 1 7 8
M  V30 8 2 8 9
M  V30 9 1 9 10
M  V30 10 2 10 11
M  V30 11 1 11 12
M  V30 12 2 12 13
M  V30 13 1 13 14
M  V30 14 2 14 15
M  V30 15 1 15 16
M  V30 16 2 16 17
M  V30 17 1 17 18
M  V30 18 2 18 19
M  V30 19 1 19 20
M  V30 20 2 20 21
M  V30 21 1 21 22
M  V30 22 1 22 23
M  V30 23 2 23 24
M  V30 24 1 14 25
M  V30 25 2 25 26
M  V30 26 1 25 27
M  V30 27 1 27 28
M  V30 28 2 28 29
M  V30 29 1 4 30
M  V30 30 1 30 31
M  V30 31 1 31 32
M  V30 32 1 31 33
M  V30 33 1 33 34
M  V30 34 1 33 2
M  V30 35 1 24 5
M  V30 36 1 11 6
M  V30 37 1 24 12
M  V30 38 1 28 13
M  V30 39 1 23 15
M  V30 40 1 21 16
M  V30 41 1 1 35
M  V30 42 1 1 36
M  V30 43 1 1 37
M  V30 44 1 2 38 CFG=1
M  V30 45 1 4 39 CFG=1
M  V30 46 1 7 40
M  V30 47 1 8 41
M  V30 48 1 9 42
M  V30 49 1 10 43
M  V30 50 1 17 44
M  V30 51 1 18 45
M  V30 52 1 19 46
M  V30 53 1 20 47
M  V30 54 1 22 48
M  V30 55 1 27 49
M  V30 56 1 30 50
M  V30 57 1 30 51
M  V30 58 1 31 52 CFG=3
M  V30 59 1 32 53
M  V30 60 1 32 54
M  V30 61 1 33 55 CFG=3
M  V30 62 1 34 56
M  V30 END BOND
M  V30 END CTAB
M  END
>  <Dataset>  (514) 
ChEMBL_Kinases

>  <Ligand_Instance>  (514) 
nan

>  <PDB_ID>  (514) 
nan

>  <Standardized_SMILES>  (514) 
C[C@@H]1O[C@@H](n2c3ccccc3c3c4c(c5c6ccccc6[nH]c5c32)C(=O)NC4=O)C[C@@H](N)[C@H]1O

>  <Name>  (514) 
nan

>  <Pocket>  (514) 
nan

>  <ATP_Site>  (514) 
nan

>  <Peripheral>  (514) 
nan

>  <Num_H_Atoms_ProtBoundConf>  (514) 
nan

>  <Num_Resolved_Atoms>  (514) 
nan

>  <Num_Not_Resolved_Atoms>  (514) 
nan

$$$$
CHEMBL4757014
     RDKit          3D

  0  0  0  0  0  0  0  0  0  0999 V3000
M  V30 BEGIN CTAB
M  V30 COUNTS 53 56 0 0 0
M  V30 BEGIN ATOM
M  V30 1 C 5.675969 -2.591407 3.633041 0
M  V30 2 O 4.779217 -2.786501 2.558276 0
M  V30 3 C 4.375731 -1.735587 1.774742 0
M  V30 4 C 4.871233 -0.463136 2.061599 0
M  V30 5 C 4.544523 0.671783 1.352413 0
M  V30 6 C 3.671776 0.523744 0.295541 0
M  V30 7 C 3.177383 -0.727804 0.004366 0
M  V30 8 C 3.488036 -1.879165 0.697749 0
M  V30 9 C 3.049884 -3.261458 0.496361 0
M  V30 10 O 2.111215 -3.748364 1.409317 0
M  V30 11 C 0.853187 -3.289850 1.656436 0
M  V30 12 C 0.033290 -2.284726 1.190181 0
M  V30 13 C -1.236336 -2.116916 1.700501 0
M  V30 14 C -1.991712 -1.012929 1.113409 0
M  V30 15 C -2.942311 -0.255558 1.769288 0
M  V30 16 N -3.397429 0.650146 0.883146 0
M  V30 17 N -2.784062 0.499384 -0.286886 0
M  V30 18 C -3.039228 1.320737 -1.479029 0
M  V30 19 C -4.310143 0.803742 -2.113378 0
M  V30 20 C -5.401367 1.827667 -1.803068 0
M  V30 21 N -5.130891 3.085297 -2.430782 0
M  V30 22 C -3.762678 3.511387 -2.277475 0
M  V30 23 C -3.091915 2.764924 -1.116013 0
M  V30 24 C -1.912559 -0.518509 -0.173077 0
M  V30 25 C -1.722340 -2.947426 2.689617 0
M  V30 26 N -0.937007 -3.955904 3.176476 0
M  V30 27 C 0.324570 -4.116562 2.664137 0
M  V30 28 N 0.924966 -5.236831 3.346041 0
M  V30 29 H 6.671764 -2.313835 3.197643 0
M  V30 30 H 5.762820 -3.526544 4.241410 0
M  V30 31 H 5.377788 -1.745714 4.279872 0
M  V30 32 H 5.570285 -0.263960 2.886403 0
M  V30 33 H 4.936938 1.649034 1.588011 0
M  V30 34 H 3.342967 1.334188 -0.330703 0
M  V30 35 H 2.485229 -0.918600 -0.814315 0
M  V30 36 H 2.591637 -3.351986 -0.535028 0
M  V30 37 H 3.957077 -3.898483 0.433148 0
M  V30 38 H 0.544146 -1.735149 0.431530 0
M  V30 39 H -3.240507 -0.392063 2.801773 0
M  V30 40 H -2.182776 1.161923 -2.153504 0
M  V30 41 H -4.599141 -0.191393 -1.719456 0
M  V30 42 H -4.210177 0.683134 -3.209624 0
M  V30 43 H -6.327706 1.428211 -2.278997 0
M  V30 44 H -5.487581 1.975621 -0.725135 0
M  V30 45 H -5.403706 3.009278 -3.453099 0
M  V30 46 H -3.249558 3.291463 -3.243377 0
M  V30 47 H -3.643743 4.602006 -2.099647 0
M  V30 48 H -3.740735 2.977140 -0.241367 0
M  V30 49 H -2.063451 3.137399 -0.986929 0
M  V30 50 H -1.262397 -0.883266 -0.960242 0
M  V30 51 H -2.728253 -2.721915 3.011720 0
M  V30 52 H 0.673940 -6.238459 3.120273 0
M  V30 53 H 1.590203 -4.812188 4.034313 0
M  V30 END ATOM
M  V30 BEGIN BOND
M  V30 1 1 1 2
M  V30 2 1 2 3
M  V30 3 2 3 4
M  V30 4 1 4 5
M  V30 5 2 5 6
M  V30 6 1 6 7
M  V30 7 2 7 8
M  V30 8 1 8 9
M  V30 9 1 9 10
M  V30 10 1 10 11
M  V30 11 2 11 12
M  V30 12 1 12 13
M  V30 13 1 13 14
M  V30 14 1 14 15
M  V30 15 2 15 16
M  V30 16 1 16 17
M  V30 17 1 17 18
M  V30 18 1 18 19
M  V30 19 1 19 20
M  V30 20 1 20 21
M  V30 21 1 21 22
M  V30 22 1 22 23
M  V30 23 1 17 24
M  V30 24 2 13 25
M  V30 25 1 25 26
M  V30 26 2 26 27
M  V30 27 1 27 28
M  V30 28 1 8 3
M  V30 29 1 27 11
M  V30 30 2 24 14
M  V30 31 1 23 18
M  V30 32 1 1 29
M  V30 33 1 1 30
M  V30 34 1 1 31
M  V30 35 1 4 32
M  V30 36 1 5 33
M  V30 37 1 6 34
M  V30 38 1 7 35
M  V30 39 1 9 36
M  V30 40 1 9 37
M  V30 41 1 12 38
M  V30 42 1 15 39
M  V30 43 1 18 40
M  V30 44 1 19 41
M  V30 45 1 19 42
M  V30 46 1 20 43
M  V30 47 1 20 44
M  V30 48 1 21 45
M  V30 49 1 22 46
M  V30 50 1 22 47
M  V30 51 1 23 48
M  V30 52 1 23 49
M  V30 53 1 24 50
M  V30 54 1 25 51
M  V30 55 1 28 52
M  V30 56 1 28 53
M  V30 END BOND
M  V30 END CTAB
M  END
>  <Dataset>  (515) 
ChEMBL_Kinases

>  <Ligand_Instance>  (515) 
nan

>  <PDB_ID>  (515) 
nan

>  <Standardized_SMILES>  (515) 
COc1ccccc1COc1cc(-c2cnn(C3CCNCC3)c2)cnc1N

>  <Name>  (515) 
nan

>  <Pocket>  (515) 
nan

>  <ATP_Site>  (515) 
nan

>  <Peripheral>  (515) 
nan

>  <Num_H_Atoms_ProtBoundConf>  (515) 
nan

>  <Num_Resolved_Atoms>  (515) 
nan

>  <Num_Not_Resolved_Atoms>  (515) 
nan

$$$$
CHEMBL4757059
     RDKit          3D

  0  0  0  0  0  0  0  0  0  0999 V3000
M  V30 BEGIN CTAB
M  V30 COUNTS 69 73 0 0 0
M  V30 BEGIN ATOM
M  V30 1 C 0.035789 -4.672779 3.619233 0
M  V30 2 O 0.186034 -3.909459 4.801061 0
M  V30 3 C 0.974867 -2.770348 4.736187 0
M  V30 4 C 1.093552 -2.046162 5.925529 0
M  V30 5 C 1.837523 -0.890848 6.039377 0
M  V30 6 C 2.508352 -0.400058 4.947056 0
M  V30 7 N 3.285050 0.786199 5.003564 0
M  V30 8 C 4.034438 1.338742 3.928226 0
M  V30 9 C 3.371689 2.213004 3.067349 0
M  V30 10 C 4.014420 2.814019 1.978421 0
M  V30 11 C 3.193206 3.705251 1.157724 0
M  V30 12 N 3.000831 4.979266 0.778540 0
M  V30 13 O 2.002254 5.068881 -0.046105 0
M  V30 14 C 1.478512 3.860184 -0.258498 0
M  V30 15 C 0.344460 3.462606 -1.107466 0
M  V30 16 C -0.023668 2.132556 -1.167687 0
M  V30 17 C -1.093535 1.772426 -1.972260 0
M  V30 18 C -1.825528 2.662739 -2.726603 0
M  V30 19 N -2.886780 2.177395 -3.508224 0
M  V30 20 S -4.203473 1.110960 -3.209936 0
M  V30 21 O -4.961796 0.981699 -4.517566 0
M  V30 22 O -5.166639 1.692883 -2.213904 0
M  V30 23 C -3.709973 -0.493792 -2.769503 0
M  V30 24 C -3.569328 -0.935453 -1.449353 0
M  V30 25 C -3.174109 -2.200921 -1.081076 0
M  V30 26 C -2.890878 -3.116995 -2.070768 0
M  V30 27 C -2.463624 -4.472622 -1.651010 0
M  V30 28 C -0.936206 -4.516048 -1.502607 0
M  V30 29 C -2.901133 -5.473549 -2.703392 0
M  V30 30 C -3.032936 -4.896357 -0.320242 0
M  V30 31 C -3.006136 -2.757921 -3.397197 0
M  V30 32 C -3.409116 -1.467265 -3.717730 0
M  V30 33 C -1.420386 3.999837 -2.637746 0
M  V30 34 C -0.360561 4.386153 -1.846164 0
M  V30 35 N 2.222233 3.026124 0.490120 0
M  V30 36 C 5.345763 2.539241 1.741107 0
M  V30 37 C 5.962239 1.674597 2.610181 0
M  V30 38 N 5.327160 1.113368 3.642519 0
M  V30 39 C 2.396605 -1.111045 3.764525 0
M  V30 40 C 1.653275 -2.267143 3.646553 0
M  V30 41 H -0.795246 -5.395375 3.702852 0
M  V30 42 H 0.968790 -5.181147 3.362169 0
M  V30 43 H -0.204530 -3.921407 2.810512 0
M  V30 44 H 0.584922 -2.383807 6.828420 0
M  V30 45 H 1.889040 -0.376225 6.990958 0
M  V30 46 H 3.315932 1.310748 5.916658 0
M  V30 47 H 2.318179 2.429533 3.257097 0
M  V30 48 H 0.556835 1.442278 -0.572319 0
M  V30 49 H -1.271901 0.707628 -1.931094 0
M  V30 50 H -2.735367 2.630799 -4.453147 0
M  V30 51 H -3.797936 -0.197025 -0.686368 0
M  V30 52 H -3.110091 -2.398601 -0.024759 0
M  V30 53 H -0.716947 -4.053770 -0.507116 0
M  V30 54 H -0.617382 -5.576209 -1.410544 0
M  V30 55 H -0.421895 -3.966874 -2.293811 0
M  V30 56 H -2.258717 -5.458203 -3.591555 0
M  V30 57 H -2.791650 -6.512610 -2.283557 0
M  V30 58 H -3.953841 -5.292424 -2.940260 0
M  V30 59 H -2.374754 -4.619328 0.536328 0
M  V30 60 H -3.115561 -6.018990 -0.280686 0
M  V30 61 H -4.007648 -4.418456 -0.123674 0
M  V30 62 H -2.786559 -3.468068 -4.181254 0
M  V30 63 H -3.504915 -1.169364 -4.761413 0
M  V30 64 H -1.995844 4.699889 -3.231354 0
M  V30 65 H -0.089128 5.432782 -1.813836 0
M  V30 66 H 5.818089 3.012200 0.899815 0
M  V30 67 H 7.016196 1.431587 2.455856 0
M  V30 68 H 2.913564 -0.749250 2.887696 0
M  V30 69 H 1.544759 -2.845455 2.740478 0
M  V30 END ATOM
M  V30 BEGIN BOND
M  V30 1 1 1 2
M  V30 2 1 2 3
M  V30 3 2 3 4
M  V30 4 1 4 5
M  V30 5 2 5 6
M  V30 6 1 6 7
M  V30 7 1 7 8
M  V30 8 2 8 9
M  V30 9 1 9 10
M  V30 10 1 10 11
M  V30 11 2 11 12
M  V30 12 1 12 13
M  V30 13 1 13 14
M  V30 14 1 14 15
M  V30 15 2 15 16
M  V30 16 1 16 17
M  V30 17 2 17 18
M  V30 18 1 18 19
M  V30 19 1 19 20
M  V30 20 2 20 21
M  V30 21 2 20 22
M  V30 22 1 20 23
M  V30 23 2 23 24
M  V30 24 1 24 25
M  V30 25 2 25 26
M  V30 26 1 26 27
M  V30 27 1 27 28
M  V30 28 1 27 29
M  V30 29 1 27 30
M  V30 30 1 26 31
M  V30 31 2 31 32
M  V30 32 1 18 33
M  V30 33 2 33 34
M  V30 34 2 14 35
M  V30 35 2 10 36
M  V30 36 1 36 37
M  V30 37 2 37 38
M  V30 38 1 6 39
M  V30 39 2 39 40
M  V30 40 1 40 3
M  V30 41 1 38 8
M  V30 42 1 35 11
M  V30 43 1 34 15
M  V30 44 1 32 23
M  V30 45 1 1 41
M  V30 46 1 1 42
M  V30 47 1 1 43
M  V30 48 1 4 44
M  V30 49 1 5 45
M  V30 50 1 7 46
M  V30 51 1 9 47
M  V30 52 1 16 48
M  V30 53 1 17 49
M  V30 54 1 19 50
M  V30 55 1 24 51
M  V30 56 1 25 52
M  V30 57 1 28 53
M  V30 58 1 28 54
M  V30 59 1 28 55
M  V30 60 1 29 56
M  V30 61 1 29 57
M  V30 62 1 29 58
M  V30 63 1 30 59
M  V30 64 1 30 60
M  V30 65 1 30 61
M  V30 66 1 31 62
M  V30 67 1 32 63
M  V30 68 1 33 64
M  V30 69 1 34 65
M  V30 70 1 36 66
M  V30 71 1 37 67
M  V30 72 1 39 68
M  V30 73 1 40 69
M  V30 END BOND
M  V30 END CTAB
M  END
>  <Dataset>  (516) 
ChEMBL_Kinases

>  <Ligand_Instance>  (516) 
nan

>  <PDB_ID>  (516) 
nan

>  <Standardized_SMILES>  (516) 
COc1ccc(Nc2cc(-c3noc(-c4ccc(NS(=O)(=O)c5ccc(C(C)(C)C)cc5)cc4)n3)ccn2)cc1

>  <Name>  (516) 
nan

>  <Pocket>  (516) 
nan

>  <ATP_Site>  (516) 
nan

>  <Peripheral>  (516) 
nan

>  <Num_H_Atoms_ProtBoundConf>  (516) 
nan

>  <Num_Resolved_Atoms>  (516) 
nan

>  <Num_Not_Resolved_Atoms>  (516) 
nan

$$$$
CHEMBL4757062
     RDKit          3D

  0  0  0  0  0  0  0  0  0  0999 V3000
M  V30 BEGIN CTAB
M  V30 COUNTS 48 51 0 0 0
M  V30 BEGIN ATOM
M  V30 1 O -4.467810 -0.354702 2.980204 0
M  V30 2 C -4.135202 -1.518585 2.573432 0
M  V30 3 N -2.862210 -1.553950 1.984943 0
M  V30 4 C -1.919640 -0.557764 1.775416 0
M  V30 5 C -0.772406 -0.870376 1.043553 0
M  V30 6 C 0.250227 0.002480 0.756161 0
M  V30 7 C 0.120088 1.282402 1.234408 0
M  V30 8 O 1.109894 2.268437 0.997402 0
M  V30 9 C 2.209429 1.899281 0.233142 0
M  V30 10 C 1.876001 2.231618 -1.089458 0
M  V30 11 C 2.758677 2.000965 -2.153340 0
M  V30 12 C 3.963653 1.431382 -1.816652 0
M  V30 13 C 4.330279 1.090933 -0.537444 0
M  V30 14 C 3.428462 1.332241 0.510674 0
M  V30 15 C 5.581765 0.477207 -0.007335 0
M  V30 16 C 6.506700 -0.023162 -1.059147 0
M  V30 17 C 5.740020 -0.210381 -2.361409 0
M  V30 18 C 5.068246 1.089675 -2.766992 0
M  V30 19 C -0.966100 1.763930 1.987971 0
M  V30 20 Cl -1.174365 3.373174 2.616879 0
M  V30 21 C -1.908037 0.742652 2.182521 0
M  V30 22 C -5.131820 -2.549950 2.805599 0
M  V30 23 C -6.350514 -2.200188 3.388518 0
M  V30 24 C -7.353206 -3.115090 3.616302 0
M  V30 25 Cl -8.850972 -2.608437 4.355504 0
M  V30 26 C -7.179427 -4.438520 3.265684 0
M  V30 27 C -5.991112 -4.795514 2.693432 0
M  V30 28 Cl -5.812830 -6.494372 2.256512 0
M  V30 29 C -5.003691 -3.879619 2.472500 0
M  V30 30 O -3.866515 -4.356774 1.899261 0
M  V30 31 H -2.629645 -2.516403 1.659188 0
M  V30 32 H -0.621291 -1.884611 0.638375 0
M  V30 33 H 1.123099 -0.280825 0.187417 0
M  V30 34 H 0.965625 2.689392 -1.511573 0
M  V30 35 H 2.605158 2.219531 -3.195467 0
M  V30 36 H 3.500845 1.150315 1.571415 0
M  V30 37 H 5.268920 -0.404283 0.631306 0
M  V30 38 H 6.075294 1.165185 0.722333 0
M  V30 39 H 6.882971 -1.024335 -0.767249 0
M  V30 40 H 7.365241 0.679692 -1.227276 0
M  V30 41 H 4.999953 -1.001366 -2.188675 0
M  V30 42 H 6.486027 -0.482462 -3.125369 0
M  V30 43 H 4.719905 0.959587 -3.811031 0
M  V30 44 H 5.832140 1.906739 -2.790348 0
M  V30 45 H -2.763513 1.093225 2.768680 0
M  V30 46 H -6.561193 -1.189690 3.689992 0
M  V30 47 H -8.003333 -5.105943 3.466367 0
M  V30 48 H -3.699761 -4.599951 0.938399 0
M  V30 END ATOM
M  V30 BEGIN BOND
M  V30 1 2 1 2
M  V30 2 1 2 3
M  V30 3 1 3 4
M  V30 4 2 4 5
M  V30 5 1 5 6
M  V30 6 2 6 7
M  V30 7 1 7 8
M  V30 8 1 8 9
M  V30 9 2 9 10
M  V30 10 1 10 11
M  V30 11 2 11 12
M  V30 12 1 12 13
M  V30 13 2 13 14
M  V30 14 1 13 15
M  V30 15 1 15 16
M  V30 16 1 16 17
M  V30 17 1 17 18
M  V30 18 1 7 19
M  V30 19 1 19 20
M  V30 20 2 19 21
M  V30 21 1 2 22
M  V30 22 2 22 23
M  V30 23 1 23 24
M  V30 24 1 24 25
M  V30 25 2 24 26
M  V30 26 1 26 27
M  V30 27 1 27 28
M  V30 28 2 27 29
M  V30 29 1 29 30
M  V30 30 1 21 4
M  V30 31 1 29 22
M  V30 32 1 14 9
M  V30 33 1 18 12
M  V30 34 1 3 31
M  V30 35 1 5 32
M  V30 36 1 6 33
M  V30 37 1 10 34
M  V30 38 1 11 35
M  V30 39 1 14 36
M  V30 40 1 15 37
M  V30 41 1 15 38
M  V30 42 1 16 39
M  V30 43 1 16 40
M  V30 44 1 17 41
M  V30 45 1 17 42
M  V30 46 1 18 43
M  V30 47 1 18 44
M  V30 48 1 21 45
M  V30 49 1 23 46
M  V30 50 1 26 47
M  V30 51 1 30 48
M  V30 END BOND
M  V30 END CTAB
M  END
>  <Dataset>  (517) 
ChEMBL_Kinases

>  <Ligand_Instance>  (517) 
nan

>  <PDB_ID>  (517) 
nan

>  <Standardized_SMILES>  (517) 
O=C(Nc1ccc(Oc2ccc3c(c2)CCCC3)c(Cl)c1)c1cc(Cl)cc(Cl)c1O

>  <Name>  (517) 
nan

>  <Pocket>  (517) 
nan

>  <ATP_Site>  (517) 
nan

>  <Peripheral>  (517) 
nan

>  <Num_H_Atoms_ProtBoundConf>  (517) 
nan

>  <Num_Resolved_Atoms>  (517) 
nan

>  <Num_Not_Resolved_Atoms>  (517) 
nan

$$$$
CHEMBL4290223
     RDKit          3D

  0  0  0  0  0  0  0  0  0  0999 V3000
M  V30 BEGIN CTAB
M  V30 COUNTS 41 44 0 0 0
M  V30 BEGIN ATOM
M  V30 1 O 0.928729 -1.873980 3.360243 0
M  V30 2 C 0.011535 -2.730567 3.122832 0
M  V30 3 N 0.320486 -3.345124 1.878633 0
M  V30 4 C 1.544416 -2.741807 1.403254 0
M  V30 5 C 2.759361 -3.293698 1.753643 0
M  V30 6 N 3.874185 -2.701435 1.292056 0
M  V30 7 C 3.841604 -1.604804 0.511602 0
M  V30 8 C 2.616827 -1.068146 0.172350 0
M  V30 9 C 2.628205 0.128197 -0.679989 0
M  V30 10 C 1.566757 0.863285 -1.172655 0
M  V30 11 C 1.864460 1.944949 -1.952185 0
M  V30 12 C 0.800603 2.796303 -2.529064 0
M  V30 13 C -0.442560 2.271521 -2.895026 0
M  V30 14 C -1.399574 3.111044 -3.426214 0
M  V30 15 C -1.121957 4.448717 -3.589192 0
M  V30 16 N 0.082299 4.954184 -3.234125 0
M  V30 17 C 1.033993 4.140411 -2.710140 0
M  V30 18 C 3.200510 2.226254 -2.191901 0
M  V30 19 S 4.047271 0.891244 -1.265534 0
M  V30 20 C 1.452335 -1.619251 0.606209 0
M  V30 21 C -1.124154 -2.995264 3.995976 0
M  V30 22 C -1.109796 -2.234092 5.147563 0
M  V30 23 C -2.078308 -2.314286 6.120634 0
M  V30 24 C -3.112691 -3.204567 5.924967 0
M  V30 25 C -3.168325 -3.983282 4.793046 0
M  V30 26 C -2.176305 -3.871382 3.842238 0
M  V30 27 F -2.152967 -4.590019 2.711553 0
M  V30 28 H -0.333451 -4.074296 1.536166 0
M  V30 29 H 2.774592 -4.184537 2.388770 0
M  V30 30 H 4.813976 -1.235736 0.214115 0
M  V30 31 H 0.573585 0.531105 -0.906144 0
M  V30 32 H -0.609831 1.218105 -2.746658 0
M  V30 33 H -2.351870 2.719385 -3.708318 0
M  V30 34 H -1.823805 5.149393 -3.995910 0
M  V30 35 H 1.969857 4.561964 -2.439930 0
M  V30 36 H 3.595902 3.029425 -2.775485 0
M  V30 37 H 0.501262 -1.197482 0.339454 0
M  V30 38 H -0.327707 -1.499858 5.389020 0
M  V30 39 H -2.069755 -1.726618 7.012711 0
M  V30 40 H -3.894811 -3.292624 6.674562 0
M  V30 41 H -3.952048 -4.698683 4.581955 0
M  V30 END ATOM
M  V30 BEGIN BOND
M  V30 1 2 1 2
M  V30 2 1 2 3
M  V30 3 1 3 4
M  V30 4 2 4 5
M  V30 5 1 5 6
M  V30 6 2 6 7
M  V30 7 1 7 8
M  V30 8 1 8 9
M  V30 9 2 9 10
M  V30 10 1 10 11
M  V30 11 1 11 12
M  V30 12 2 12 13
M  V30 13 1 13 14
M  V30 14 2 14 15
M  V30 15 1 15 16
M  V30 16 2 16 17
M  V30 17 2 11 18
M  V30 18 1 18 19
M  V30 19 2 8 20
M  V30 20 1 2 21
M  V30 21 2 21 22
M  V30 22 1 22 23
M  V30 23 2 23 24
M  V30 24 1 24 25
M  V30 25 2 25 26
M  V30 26 1 26 27
M  V30 27 1 20 4
M  V30 28 1 26 21
M  V30 29 1 19 9
M  V30 30 1 17 12
M  V30 31 1 3 28
M  V30 32 1 5 29
M  V30 33 1 7 30
M  V30 34 1 10 31
M  V30 35 1 13 32
M  V30 36 1 14 33
M  V30 37 1 15 34
M  V30 38 1 17 35
M  V30 39 1 18 36
M  V30 40 1 20 37
M  V30 41 1 22 38
M  V30 42 1 23 39
M  V30 43 1 24 40
M  V30 44 1 25 41
M  V30 END BOND
M  V30 END CTAB
M  END
>  <Dataset>  (518) 
ChEMBL_Kinases

>  <Ligand_Instance>  (518) 
nan

>  <PDB_ID>  (518) 
nan

>  <Standardized_SMILES>  (518) 
O=C(Nc1cncc(-c2cc(-c3cccnc3)cs2)c1)c1ccccc1F

>  <Name>  (518) 
nan

>  <Pocket>  (518) 
nan

>  <ATP_Site>  (518) 
nan

>  <Peripheral>  (518) 
nan

>  <Num_H_Atoms_ProtBoundConf>  (518) 
nan

>  <Num_Resolved_Atoms>  (518) 
nan

>  <Num_Not_Resolved_Atoms>  (518) 
nan

$$$$
CHEMBL4757082
     RDKit          3D

  0  0  0  0  0  0  0  0  0  0999 V3000
M  V30 BEGIN CTAB
M  V30 COUNTS 36 38 0 0 0
M  V30 BEGIN ATOM
M  V30 1 N -1.690210 -2.813366 3.463309 0
M  V30 2 C -0.722256 -2.366042 2.522019 0
M  V30 3 N 0.400700 -3.064650 2.268297 0
M  V30 4 C 1.322652 -2.637025 1.370676 0
M  V30 5 C 1.147068 -1.458038 0.673886 0
M  V30 6 C 2.087252 -0.924217 -0.309725 0
M  V30 7 C 2.863997 -1.741004 -1.106653 0
M  V30 8 C 3.756612 -1.252762 -2.040178 0
M  V30 9 C 3.831561 0.121514 -2.135100 0
M  V30 10 C 4.733689 0.813704 -3.080522 0
M  V30 11 O 4.906109 2.044839 -3.275541 0
M  V30 12 O 5.552325 0.034555 -3.919787 0
M  V30 13 C 3.062985 0.968874 -1.347015 0
M  V30 14 C 2.175761 0.449870 -0.418753 0
M  V30 15 C -0.018388 -0.762718 0.957690 0
M  V30 16 C -0.993003 -1.169999 1.875771 0
M  V30 17 C -2.181202 -0.346205 2.085893 0
M  V30 18 C -2.646658 -0.079209 3.344767 0
M  V30 19 C -3.775122 0.708444 3.440794 0
M  V30 20 C -4.435829 1.224278 2.346953 0
M  V30 21 Cl -5.862394 2.217280 2.538690 0
M  V30 22 C -3.955763 0.948103 1.064641 0
M  V30 23 C -2.832425 0.164440 0.959606 0
M  V30 24 H -2.344737 -3.400408 2.865931 0
M  V30 25 H -2.442411 -3.429017 3.031719 0
M  V30 26 H 2.214685 -3.199972 1.174684 0
M  V30 27 H 2.789200 -2.820863 -1.015053 0
M  V30 28 H 4.375548 -1.858298 -2.676419 0
M  V30 29 H 5.673359 0.340118 -4.884605 0
M  V30 30 H 3.127253 2.057841 -1.426747 0
M  V30 31 H 1.593459 1.128184 0.178124 0
M  V30 32 H -0.212549 0.180160 0.435648 0
M  V30 33 H -2.169201 -0.455721 4.219439 0
M  V30 34 H -4.150952 0.923880 4.451077 0
M  V30 35 H -4.483071 1.359266 0.204079 0
M  V30 36 H -2.484376 -0.032706 -0.042609 0
M  V30 END ATOM
M  V30 BEGIN BOND
M  V30 1 1 1 2
M  V30 2 2 2 3
M  V30 3 1 3 4
M  V30 4 2 4 5
M  V30 5 1 5 6
M  V30 6 2 6 7
M  V30 7 1 7 8
M  V30 8 2 8 9
M  V30 9 1 9 10
M  V30 10 2 10 11
M  V30 11 1 10 12
M  V30 12 1 9 13
M  V30 13 2 13 14
M  V30 14 1 5 15
M  V30 15 2 15 16
M  V30 16 1 16 17
M  V30 17 2 17 18
M  V30 18 1 18 19
M  V30 19 2 19 20
M  V30 20 1 20 21
M  V30 21 1 20 22
M  V30 22 2 22 23
M  V30 23 1 16 2
M  V30 24 1 23 17
M  V30 25 1 14 6
M  V30 26 1 1 24
M  V30 27 1 1 25
M  V30 28 1 4 26
M  V30 29 1 7 27
M  V30 30 1 8 28
M  V30 31 1 12 29
M  V30 32 1 13 30
M  V30 33 1 14 31
M  V30 34 1 15 32
M  V30 35 1 18 33
M  V30 36 1 19 34
M  V30 37 1 22 35
M  V30 38 1 23 36
M  V30 END BOND
M  V30 END CTAB
M  END
>  <Dataset>  (519) 
ChEMBL_Kinases

>  <Ligand_Instance>  (519) 
nan

>  <PDB_ID>  (519) 
nan

>  <Standardized_SMILES>  (519) 
Nc1ncc(-c2ccc(C(=O)O)cc2)cc1-c1ccc(Cl)cc1

>  <Name>  (519) 
nan

>  <Pocket>  (519) 
nan

>  <ATP_Site>  (519) 
nan

>  <Peripheral>  (519) 
nan

>  <Num_H_Atoms_ProtBoundConf>  (519) 
nan

>  <Num_Resolved_Atoms>  (519) 
nan

>  <Num_Not_Resolved_Atoms>  (519) 
nan

$$$$
CHEMBL4290266
     RDKit          3D

  0  0  0  0  0  0  0  0  0  0999 V3000
M  V30 BEGIN CTAB
M  V30 COUNTS 36 37 0 0 0
M  V30 BEGIN ATOM
M  V30 1 C 1.986043 -3.597970 0.890164 0
M  V30 2 C 0.875480 -3.483497 1.858338 0
M  V30 3 C 0.084080 -2.362915 1.910135 0
M  V30 4 C 0.007205 -1.097245 1.203741 0
M  V30 5 O -0.873120 -0.210162 1.485364 0
M  V30 6 N 0.795090 -0.599035 0.156707 0
M  V30 7 C 0.445013 0.709659 -0.319305 0
M  V30 8 C 0.985796 1.861114 0.202314 0
M  V30 9 C 0.585755 3.072648 -0.322508 0
M  V30 10 C 1.155308 4.340043 0.223192 0
M  V30 11 F 2.423036 4.542226 -0.315955 0
M  V30 12 F 1.238207 4.230395 1.591557 0
M  V30 13 F 0.384066 5.421291 -0.172151 0
M  V30 14 C -0.345331 3.129679 -1.357955 0
M  V30 15 C -0.892187 1.960986 -1.885143 0
M  V30 16 C -1.881784 2.107826 -2.991460 0
M  V30 17 F -3.048892 2.613097 -2.443545 0
M  V30 18 F -2.071821 0.820906 -3.495409 0
M  V30 19 F -1.356194 2.925759 -3.976242 0
M  V30 20 C -0.486989 0.751537 -1.354748 0
M  V30 21 C -0.809922 -2.662015 2.930354 0
M  V30 22 O -1.878810 -1.982685 3.512940 0
M  V30 23 N -0.505989 -3.866514 3.386172 0
M  V30 24 N 0.518356 -4.409321 2.761373 0
M  V30 25 C 1.167078 -5.693876 2.943782 0
M  V30 26 H 2.536477 -4.574632 1.027466 0
M  V30 27 H 1.682007 -3.571860 -0.165471 0
M  V30 28 H 2.754492 -2.822330 1.065225 0
M  V30 29 H 1.562990 -1.213452 -0.187275 0
M  V30 30 H 1.712135 1.800986 1.011128 0
M  V30 31 H -0.611570 4.103030 -1.718489 0
M  V30 32 H -0.949469 -0.107205 -1.809332 0
M  V30 33 H -2.815574 -2.007418 3.134275 0
M  V30 34 H 1.574038 -6.092639 1.992216 0
M  V30 35 H 1.886828 -5.712617 3.786102 0
M  V30 36 H 0.381839 -6.450662 3.237427 0
M  V30 END ATOM
M  V30 BEGIN BOND
M  V30 1 1 1 2
M  V30 2 2 2 3
M  V30 3 1 3 4
M  V30 4 2 4 5
M  V30 5 1 4 6
M  V30 6 1 6 7
M  V30 7 2 7 8
M  V30 8 1 8 9
M  V30 9 1 9 10
M  V30 10 1 10 11
M  V30 11 1 10 12
M  V30 12 1 10 13
M  V30 13 2 9 14
M  V30 14 1 14 15
M  V30 15 1 15 16
M  V30 16 1 16 17
M  V30 17 1 16 18
M  V30 18 1 16 19
M  V30 19 2 15 20
M  V30 20 1 3 21
M  V30 21 1 21 22
M  V30 22 2 21 23
M  V30 23 1 23 24
M  V30 24 1 24 25
M  V30 25 1 24 2
M  V30 26 1 20 7
M  V30 27 1 1 26
M  V30 28 1 1 27
M  V30 29 1 1 28
M  V30 30 1 6 29
M  V30 31 1 8 30
M  V30 32 1 14 31
M  V30 33 1 20 32
M  V30 34 1 22 33
M  V30 35 1 25 34
M  V30 36 1 25 35
M  V30 37 1 25 36
M  V30 END BOND
M  V30 END CTAB
M  END
>  <Dataset>  (520) 
ChEMBL_Kinases

>  <Ligand_Instance>  (520) 
nan

>  <PDB_ID>  (520) 
nan

>  <Standardized_SMILES>  (520) 
Cc1c(C(=O)Nc2cc(C(F)(F)F)cc(C(F)(F)F)c2)c(O)nn1C

>  <Name>  (520) 
nan

>  <Pocket>  (520) 
nan

>  <ATP_Site>  (520) 
nan

>  <Peripheral>  (520) 
nan

>  <Num_H_Atoms_ProtBoundConf>  (520) 
nan

>  <Num_Resolved_Atoms>  (520) 
nan

>  <Num_Not_Resolved_Atoms>  (520) 
nan

$$$$
CHEMBL4757583
     RDKit          3D

  0  0  0  0  0  0  0  0  0  0999 V3000
M  V30 BEGIN CTAB
M  V30 COUNTS 39 41 0 0 0
M  V30 BEGIN ATOM
M  V30 1 C 0.756046 -9.179152 0.600134 0
M  V30 2 N 1.260337 -7.842993 0.372067 0
M  V30 3 C 0.382559 -6.753884 0.193037 0
M  V30 4 O -0.856262 -7.050286 0.249631 0
M  V30 5 C 1.043902 -5.404758 -0.038048 0
M  V30 6 C 0.412929 -4.264660 -0.226972 0
M  V30 7 C 1.133098 -3.122222 -0.423486 0
M  V30 8 N 0.628412 -1.785779 -0.646180 0
M  V30 9 C 1.058081 -0.639573 -0.097416 0
M  V30 10 C 0.301194 0.419357 -0.580051 0
M  V30 11 N 0.398197 1.807312 -0.278629 0
M  V30 12 C -0.283588 2.481499 0.758335 0
M  V30 13 O -1.072735 1.956966 1.563825 0
M  V30 14 N 0.030958 3.849568 0.787905 0
M  V30 15 C -0.493860 4.796957 1.715766 0
M  V30 16 C 0.323083 4.874720 2.849160 0
M  V30 17 C 0.000616 5.740228 3.889848 0
M  V30 18 C -1.135177 6.516842 3.783104 0
M  V30 19 C -1.923513 6.420230 2.653580 0
M  V30 20 C -1.614909 5.568642 1.618965 0
M  V30 21 Cl -2.510024 5.344509 0.146444 0
M  V30 22 C -0.601398 -0.174033 -1.447495 0
M  V30 23 N -0.384396 -1.520561 -1.473130 0
M  V30 24 C 2.526967 -3.264318 -0.406949 0
M  V30 25 S 2.751697 -5.088444 -0.100498 0
M  V30 26 H 1.275250 -9.694038 1.432591 0
M  V30 27 H 0.772431 -9.811764 -0.318411 0
M  V30 28 H -0.303560 -9.089263 0.920322 0
M  V30 29 H 2.307985 -7.754948 0.351632 0
M  V30 30 H -0.688100 -4.195480 -0.232771 0
M  V30 31 H 1.858547 -0.547654 0.603579 0
M  V30 32 H 1.055863 2.193581 -0.965266 0
M  V30 33 H 0.678009 4.371621 0.155255 0
M  V30 34 H 1.229014 4.317308 3.037283 0
M  V30 35 H 0.603306 5.837771 4.792691 0
M  V30 36 H -1.465484 7.216800 4.539275 0
M  V30 37 H -2.822799 7.005808 2.520366 0
M  V30 38 H -1.358035 0.338290 -2.015880 0
M  V30 39 H 3.312323 -2.515004 -0.537499 0
M  V30 END ATOM
M  V30 BEGIN BOND
M  V30 1 1 1 2
M  V30 2 1 2 3
M  V30 3 2 3 4
M  V30 4 1 3 5
M  V30 5 2 5 6
M  V30 6 1 6 7
M  V30 7 1 7 8
M  V30 8 1 8 9
M  V30 9 2 9 10
M  V30 10 1 10 11
M  V30 11 1 11 12
M  V30 12 2 12 13
M  V30 13 1 12 14
M  V30 14 1 14 15
M  V30 15 2 15 16
M  V30 16 1 16 17
M  V30 17 2 17 18
M  V30 18 1 18 19
M  V30 19 2 19 20
M  V30 20 1 20 21
M  V30 21 1 10 22
M  V30 22 2 22 23
M  V30 23 2 7 24
M  V30 24 1 24 25
M  V30 25 1 25 5
M  V30 26 1 23 8
M  V30 27 1 20 15
M  V30 28 1 1 26
M  V30 29 1 1 27
M  V30 30 1 1 28
M  V30 31 1 2 29
M  V30 32 1 6 30
M  V30 33 1 9 31
M  V30 34 1 11 32
M  V30 35 1 14 33
M  V30 36 1 16 34
M  V30 37 1 17 35
M  V30 38 1 18 36
M  V30 39 1 19 37
M  V30 40 1 22 38
M  V30 41 1 24 39
M  V30 END BOND
M  V30 END CTAB
M  END
>  <Dataset>  (521) 
ChEMBL_Kinases

>  <Ligand_Instance>  (521) 
nan

>  <PDB_ID>  (521) 
nan

>  <Standardized_SMILES>  (521) 
CNC(=O)c1cc(-n2cc(NC(=O)Nc3ccccc3Cl)cn2)cs1

>  <Name>  (521) 
nan

>  <Pocket>  (521) 
nan

>  <ATP_Site>  (521) 
nan

>  <Peripheral>  (521) 
nan

>  <Num_H_Atoms_ProtBoundConf>  (521) 
nan

>  <Num_Resolved_Atoms>  (521) 
nan

>  <Num_Not_Resolved_Atoms>  (521) 
nan

$$$$
CHEMBL4757622
     RDKit          3D

  0  0  0  0  0  0  0  0  0  0999 V3000
M  V30 BEGIN CTAB
M  V30 COUNTS 40 43 0 0 0
M  V30 BEGIN ATOM
M  V30 1 O 3.427122 -1.658447 3.022357 0
M  V30 2 C 2.891672 -1.319953 1.911867 0
M  V30 3 N 3.661537 -1.355967 0.772256 0
M  V30 4 C 3.131796 -1.019186 -0.337399 0
M  V30 5 N 3.818601 -1.013444 -1.583967 0
M  V30 6 C 4.910446 -1.943174 -1.781645 0
M  V30 7 C 4.379565 -3.376579 -1.628830 0
M  V30 8 C 3.481068 -3.413757 -2.853731 0
M  V30 9 O 4.133753 -2.706516 -3.843515 0
M  V30 10 C 5.174168 -1.987959 -3.287171 0
M  V30 11 S 1.399396 -0.561779 -0.055813 0
M  V30 12 C 1.513603 -0.885661 1.706286 0
M  V30 13 C 0.570338 -0.762964 2.624038 0
M  V30 14 C -0.765042 -0.312076 2.243136 0
M  V30 15 C -1.414547 -0.645618 1.052841 0
M  V30 16 C -2.646846 0.009205 1.135357 0
M  V30 17 C -2.668906 0.682530 2.339642 0
M  V30 18 C -3.758390 1.505287 2.856106 0
M  V30 19 C -3.621335 2.115120 4.085874 0
M  V30 20 C -4.622853 2.907444 4.626593 0
M  V30 21 C -5.795391 3.085376 3.898625 0
M  V30 22 C -5.944126 2.476407 2.659829 0
M  V30 23 Cl -7.431073 2.705249 1.743186 0
M  V30 24 C -4.924417 1.683664 2.134764 0
M  V30 25 O -1.539677 0.464536 2.958503 0
M  V30 26 H 3.498220 -0.320687 -2.325024 0
M  V30 27 H 5.803209 -1.748167 -1.196772 0
M  V30 28 H 3.754604 -3.467038 -0.724708 0
M  V30 29 H 5.202073 -4.097055 -1.695074 0
M  V30 30 H 2.535855 -2.871706 -2.585582 0
M  V30 31 H 3.198814 -4.437294 -3.117218 0
M  V30 32 H 5.314661 -0.980343 -3.682772 0
M  V30 33 H 6.090243 -2.636916 -3.406379 0
M  V30 34 H 0.850683 -1.011935 3.639186 0
M  V30 35 H -1.040394 -1.276599 0.242551 0
M  V30 36 H -3.433216 -0.018801 0.377382 0
M  V30 37 H -2.760059 2.033824 4.709786 0
M  V30 38 H -4.565641 3.407225 5.585041 0
M  V30 39 H -6.606719 3.706713 4.299534 0
M  V30 40 H -4.999314 1.198597 1.186687 0
M  V30 END ATOM
M  V30 BEGIN BOND
M  V30 1 2 1 2
M  V30 2 1 2 3
M  V30 3 2 3 4
M  V30 4 1 4 5
M  V30 5 1 5 6
M  V30 6 1 6 7
M  V30 7 1 7 8
M  V30 8 1 8 9
M  V30 9 1 9 10
M  V30 10 1 4 11
M  V30 11 1 11 12
M  V30 12 2 12 13
M  V30 13 1 13 14
M  V30 14 2 14 15
M  V30 15 1 15 16
M  V30 16 2 16 17
M  V30 17 1 17 18
M  V30 18 2 18 19
M  V30 19 1 19 20
M  V30 20 2 20 21
M  V30 21 1 21 22
M  V30 22 1 22 23
M  V30 23 2 22 24
M  V30 24 1 17 25
M  V30 25 1 12 2
M  V30 26 1 25 14
M  V30 27 1 10 6
M  V30 28 1 24 18
M  V30 29 1 5 26
M  V30 30 1 6 27
M  V30 31 1 7 28
M  V30 32 1 7 29
M  V30 33 1 8 30
M  V30 34 1 8 31
M  V30 35 1 10 32
M  V30 36 1 10 33
M  V30 37 1 13 34
M  V30 38 1 15 35
M  V30 39 1 16 36
M  V30 40 1 19 37
M  V30 41 1 20 38
M  V30 42 1 21 39
M  V30 43 1 24 40
M  V30 END BOND
M  V30 END CTAB
M  END
>  <Dataset>  (522) 
ChEMBL_Kinases

>  <Ligand_Instance>  (522) 
nan

>  <PDB_ID>  (522) 
nan

>  <Standardized_SMILES>  (522) 
O=C1N=C(NC2CCOC2)S/C1=C\c1ccc(-c2cccc(Cl)c2)o1

>  <Name>  (522) 
nan

>  <Pocket>  (522) 
nan

>  <ATP_Site>  (522) 
nan

>  <Peripheral>  (522) 
nan

>  <Num_H_Atoms_ProtBoundConf>  (522) 
nan

>  <Num_Resolved_Atoms>  (522) 
nan

>  <Num_Not_Resolved_Atoms>  (522) 
nan

$$$$
CHEMBL4757625
     RDKit          3D

  0  0  0  0  0  0  0  0  0  0999 V3000
M  V30 BEGIN CTAB
M  V30 COUNTS 46 49 0 0 0
M  V30 BEGIN ATOM
M  V30 1 C 3.732446 -2.675485 3.538527 0
M  V30 2 S 4.700178 -1.374670 4.265927 0
M  V30 3 O 3.871506 -0.427801 5.080311 0
M  V30 4 O 5.770392 -2.006613 5.140334 0
M  V30 5 N 5.418115 -0.482570 2.978293 0
M  V30 6 C 4.537466 0.161219 2.067346 0
M  V30 7 C 4.939401 -0.042794 0.744196 0
M  V30 8 C 4.232816 0.491150 -0.324913 0
M  V30 9 C 3.118976 1.231621 -0.049827 0
M  V30 10 C 2.706287 1.444173 1.249064 0
M  V30 11 C 1.511954 2.233101 1.641782 0
M  V30 12 C 0.372869 1.270877 1.690927 0
M  V30 13 O 1.229544 0.386527 1.348710 0
M  V30 14 N -0.982505 1.463196 2.003285 0
M  V30 15 C -1.764701 0.256587 1.933473 0
M  V30 16 N -2.348690 -0.169408 0.956324 0
M  V30 17 C -3.055978 -1.276081 0.923792 0
M  V30 18 C -3.764728 -1.794954 -0.258009 0
M  V30 19 C -4.533786 -2.950238 -0.387060 0
M  V30 20 N -5.029026 -3.099997 -1.626760 0
M  V30 21 C -4.609625 -2.055870 -2.362444 0
M  V30 22 N -4.837328 -1.755000 -3.651996 0
M  V30 23 C -4.318397 -0.646325 -4.205437 0
M  V30 24 C -3.544135 0.187765 -3.435101 0
M  V30 25 C -3.329342 -0.147500 -2.118515 0
M  V30 26 F -2.561867 0.710301 -1.415337 0
M  V30 27 C -3.845020 -1.269658 -1.528755 0
M  V30 28 C -3.129812 -1.995147 2.096237 0
M  V30 29 S -2.124950 -0.980362 3.228579 0
M  V30 30 C 3.415245 0.908875 2.313353 0
M  V30 31 H 4.243496 -3.670973 3.605334 0
M  V30 32 H 3.482218 -2.474458 2.491978 0
M  V30 33 H 2.802345 -2.776832 4.157733 0
M  V30 34 H 6.454101 -0.425966 2.883734 0
M  V30 35 H 5.818947 -0.622318 0.426312 0
M  V30 36 H 4.531267 0.342140 -1.355626 0
M  V30 37 H 2.488506 1.696824 -0.786589 0
M  V30 38 H 1.309867 2.942415 0.796428 0
M  V30 39 H 1.660500 2.762713 2.599252 0
M  V30 40 H -1.185750 2.460361 2.233897 0
M  V30 41 H -4.720550 -3.665406 0.427537 0
M  V30 42 H -5.629986 -3.892939 -1.941346 0
M  V30 43 H -4.540641 -0.466006 -5.243447 0
M  V30 44 H -3.153876 1.058438 -3.923118 0
M  V30 45 H -3.639650 -2.916424 2.313406 0
M  V30 46 H 3.190197 1.007044 3.366110 0
M  V30 END ATOM
M  V30 BEGIN BOND
M  V30 1 1 1 2
M  V30 2 2 2 3
M  V30 3 2 2 4
M  V30 4 1 2 5
M  V30 5 1 5 6
M  V30 6 2 6 7
M  V30 7 1 7 8
M  V30 8 2 8 9
M  V30 9 1 9 10
M  V30 10 1 10 11
M  V30 11 1 11 12
M  V30 12 2 12 13
M  V30 13 1 12 14
M  V30 14 1 14 15
M  V30 15 2 15 16
M  V30 16 1 16 17
M  V30 17 1 17 18
M  V30 18 2 18 19
M  V30 19 1 19 20
M  V30 20 1 20 21
M  V30 21 2 21 22
M  V30 22 1 22 23
M  V30 23 2 23 24
M  V30 24 1 24 25
M  V30 25 1 25 26
M  V30 26 2 25 27
M  V30 27 2 17 28
M  V30 28 1 28 29
M  V30 29 2 10 30
M  V30 30 1 30 6
M  V30 31 1 29 15
M  V30 32 1 27 18
M  V30 33 1 27 21
M  V30 34 1 1 31
M  V30 35 1 1 32
M  V30 36 1 1 33
M  V30 37 1 5 34
M  V30 38 1 7 35
M  V30 39 1 8 36
M  V30 40 1 9 37
M  V30 41 1 11 38
M  V30 42 1 11 39
M  V30 43 1 14 40
M  V30 44 1 19 41
M  V30 45 1 20 42
M  V30 46 1 23 43
M  V30 47 1 24 44
M  V30 48 1 28 45
M  V30 49 1 30 46
M  V30 END BOND
M  V30 END CTAB
M  END
>  <Dataset>  (523) 
ChEMBL_Kinases

>  <Ligand_Instance>  (523) 
nan

>  <PDB_ID>  (523) 
nan

>  <Standardized_SMILES>  (523) 
CS(=O)(=O)Nc1cccc(CC(=O)Nc2nc(-c3c[nH]c4nccc(F)c34)cs2)c1

>  <Name>  (523) 
nan

>  <Pocket>  (523) 
nan

>  <ATP_Site>  (523) 
nan

>  <Peripheral>  (523) 
nan

>  <Num_H_Atoms_ProtBoundConf>  (523) 
nan

>  <Num_Resolved_Atoms>  (523) 
nan

>  <Num_Not_Resolved_Atoms>  (523) 
nan

$$$$
CHEMBL4757681
     RDKit          3D

  0  0  0  0  0  0  0  0  0  0999 V3000
M  V30 BEGIN CTAB
M  V30 COUNTS 60 64 0 0 0
M  V30 BEGIN ATOM
M  V30 1 C 1.856719 -2.798729 3.414479 0
M  V30 2 C 2.934234 -2.869792 2.330482 0
M  V30 3 C 2.903969 -1.593057 1.494458 0 CFG=2
M  V30 4 C 3.155479 -0.405366 2.323428 0
M  V30 5 N 4.357591 -0.088838 2.855946 0
M  V30 6 N 4.207217 1.005636 3.581940 0
M  V30 7 C 2.909634 1.432359 3.543152 0
M  V30 8 C 2.409161 2.625036 4.245632 0
M  V30 9 N 2.299470 0.536000 2.757079 0
M  V30 10 C 0.992023 0.425333 2.280166 0
M  V30 11 C 0.072986 1.338082 2.717225 0
M  V30 12 N -1.192241 1.232963 2.284651 0
M  V30 13 C -1.586644 0.254829 1.432386 0
M  V30 14 N -2.977783 0.263673 1.046057 0
M  V30 15 C -3.660654 -0.700828 0.307032 0
M  V30 16 C -3.149780 -1.908272 -0.128569 0
M  V30 17 C -3.828615 -2.868192 -0.845115 0
M  V30 18 C -5.131967 -2.646006 -1.177311 0
M  V30 19 C -5.698557 -1.460958 -0.771752 0
M  V30 20 C -5.002732 -0.517482 -0.057883 0
M  V30 21 O -5.620209 0.662117 0.327688 0
M  V30 22 C -6.955470 0.883447 -0.015745 0
M  V30 23 N -0.662162 -0.621110 1.022906 0
M  V30 24 C 0.598489 -0.567836 1.413415 0
M  V30 25 N 1.550849 -1.546734 0.948531 0
M  V30 26 C 1.263066 -2.498153 -0.096462 0
M  V30 27 C 1.189884 -1.804358 -1.382701 0
M  V30 28 C 0.189237 -1.222673 -2.112666 0
M  V30 29 C 0.300800 -0.608132 -3.313195 0
M  V30 30 C 1.528869 -0.539614 -3.894323 0
M  V30 31 C 2.619723 -1.099834 -3.238907 0
M  V30 32 C 3.909364 -0.970262 -3.956799 0
M  V30 33 F 4.120895 -2.086142 -4.725919 0
M  V30 34 F 3.937438 0.186316 -4.673958 0
M  V30 35 F 4.902538 -0.949315 -2.988795 0
M  V30 36 C 2.445099 -1.723232 -1.998361 0
M  V30 37 H 0.872750 -2.689479 2.929645 0
M  V30 38 H 2.095398 -1.965696 4.102971 0
M  V30 39 H 1.855870 -3.733809 3.989921 0
M  V30 40 H 3.938638 -2.961898 2.792032 0
M  V30 41 H 2.770787 -3.782514 1.729939 0
M  V30 42 H 3.604933 -1.700623 0.662612 0
M  V30 43 H 3.296315 3.115607 4.761226 0
M  V30 44 H 2.086271 3.456367 3.554205 0
M  V30 45 H 1.720259 2.434965 5.079581 0
M  V30 46 H 0.181162 2.169533 3.381126 0
M  V30 47 H -3.550969 1.091531 1.352884 0
M  V30 48 H -2.139278 -2.164983 0.095591 0
M  V30 49 H -3.381724 -3.790170 -1.158410 0
M  V30 50 H -5.737119 -3.326361 -1.727394 0
M  V30 51 H -6.735192 -1.246361 -1.016811 0
M  V30 52 H -7.617255 0.189890 0.515083 0
M  V30 53 H -7.128176 0.755154 -1.123074 0
M  V30 54 H -7.259477 1.942015 0.203484 0
M  V30 55 H 1.987504 -3.327299 -0.081499 0
M  V30 56 H 0.245764 -2.922471 0.180139 0
M  V30 57 H -0.771740 -1.297352 -1.634570 0
M  V30 58 H -0.591224 -0.198964 -3.756628 0
M  V30 59 H 1.620310 -0.049417 -4.852877 0
M  V30 60 H 3.404946 -2.093505 -1.662498 0
M  V30 END ATOM
M  V30 BEGIN BOND
M  V30 1 1 1 2
M  V30 2 1 2 3
M  V30 3 1 3 4
M  V30 4 2 4 5
M  V30 5 1 5 6
M  V30 6 2 6 7
M  V30 7 1 7 8
M  V30 8 1 7 9
M  V30 9 1 9 10
M  V30 10 2 10 11
M  V30 11 1 11 12
M  V30 12 2 12 13
M  V30 13 1 13 14
M  V30 14 1 14 15
M  V30 15 2 15 16
M  V30 16 1 16 17
M  V30 17 2 17 18
M  V30 18 1 18 19
M  V30 19 2 19 20
M  V30 20 1 20 21
M  V30 21 1 21 22
M  V30 22 1 13 23
M  V30 23 2 23 24
M  V30 24 1 24 25
M  V30 25 1 25 26
M  V30 26 1 26 27
M  V30 27 2 27 28
M  V30 28 1 28 29
M  V30 29 2 29 30
M  V30 30 1 30 31
M  V30 31 1 31 32
M  V30 32 1 32 33
M  V30 33 1 32 34
M  V30 34 1 32 35
M  V30 35 2 31 36
M  V30 36 1 25 3
M  V30 37 1 36 27
M  V30 38 1 9 4
M  V30 39 1 24 10
M  V30 40 1 20 15
M  V30 41 1 1 37
M  V30 42 1 1 38
M  V30 43 1 1 39
M  V30 44 1 2 40
M  V30 45 1 2 41
M  V30 46 1 3 42 CFG=3
M  V30 47 1 8 43
M  V30 48 1 8 44
M  V30 49 1 8 45
M  V30 50 1 11 46
M  V30 51 1 14 47
M  V30 52 1 16 48
M  V30 53 1 17 49
M  V30 54 1 18 50
M  V30 55 1 19 51
M  V30 56 1 22 52
M  V30 57 1 22 53
M  V30 58 1 22 54
M  V30 59 1 26 55
M  V30 60 1 26 56
M  V30 61 1 28 57
M  V30 62 1 29 58
M  V30 63 1 30 59
M  V30 64 1 36 60
M  V30 END BOND
M  V30 END CTAB
M  END
>  <Dataset>  (524) 
ChEMBL_Kinases

>  <Ligand_Instance>  (524) 
nan

>  <PDB_ID>  (524) 
nan

>  <Standardized_SMILES>  (524) 
CC[C@@H]1c2nnc(C)n2-c2cnc(Nc3ccccc3OC)nc2N1Cc1cccc(C(F)(F)F)c1

>  <Name>  (524) 
nan

>  <Pocket>  (524) 
nan

>  <ATP_Site>  (524) 
nan

>  <Peripheral>  (524) 
nan

>  <Num_H_Atoms_ProtBoundConf>  (524) 
nan

>  <Num_Resolved_Atoms>  (524) 
nan

>  <Num_Not_Resolved_Atoms>  (524) 
nan

$$$$
CHEMBL4287654
     RDKit          3D

  0  0  0  0  0  0  0  0  0  0999 V3000
M  V30 BEGIN CTAB
M  V30 COUNTS 51 54 0 0 0
M  V30 BEGIN ATOM
M  V30 1 C 2.484052 -6.540301 2.196975 0
M  V30 2 C 1.524757 -5.539126 1.641067 0
M  V30 3 C 2.128349 -4.227220 1.312511 0
M  V30 4 C 3.415628 -3.775471 1.430589 0
M  V30 5 C 3.750657 -2.492983 1.052943 0
M  V30 6 C 2.767446 -1.659063 0.549657 0
M  V30 7 C 1.495880 -2.118477 0.437736 0
M  V30 8 C 0.520636 -1.176767 -0.102556 0
M  V30 9 N -0.136325 -1.447381 -1.246268 0
M  V30 10 N -0.969425 -0.434420 -1.523439 0
M  V30 11 C -0.852978 0.509350 -0.545975 0
M  V30 12 C 0.084818 0.049595 0.354766 0
M  V30 13 C 0.577878 0.668938 1.569702 0
M  V30 14 C 1.201675 1.902953 1.435784 0
M  V30 15 C 1.725559 2.625305 2.484196 0
M  V30 16 C 1.609319 2.063368 3.736623 0
M  V30 17 O 2.111756 2.721494 4.869242 0
M  V30 18 C 0.993873 0.828805 3.931679 0
M  V30 19 C 0.477939 0.129457 2.854242 0
M  V30 20 C -1.769468 1.603096 -0.869943 0
M  V30 21 C -2.458118 2.224159 0.316979 0
M  V30 22 C -2.849578 0.846587 -1.655020 0
M  V30 23 C -3.727985 1.755760 -2.447870 0
M  V30 24 C -3.580854 -0.079571 -0.728992 0
M  V30 25 C -1.949142 -0.026831 -2.526126 0
M  V30 26 N 1.176712 -3.389447 0.814675 0
M  V30 27 H 2.082897 -7.551600 1.897989 0
M  V30 28 H 3.445012 -6.450782 1.687692 0
M  V30 29 H 2.534104 -6.488485 3.311710 0
M  V30 30 H 0.953208 -5.950372 0.781510 0
M  V30 31 H 0.749071 -5.374278 2.444170 0
M  V30 32 H 4.078205 -4.526671 1.837039 0
M  V30 33 H 4.770934 -2.199770 1.169648 0
M  V30 34 H 3.053031 -0.639433 0.252956 0
M  V30 35 H 1.306559 2.368737 0.455835 0
M  V30 36 H 2.205729 3.587348 2.339428 0
M  V30 37 H 2.712816 3.520058 4.790383 0
M  V30 38 H 0.904127 0.389458 4.920106 0
M  V30 39 H -0.016896 -0.840927 2.925566 0
M  V30 40 H -1.275984 2.352353 -1.506115 0
M  V30 41 H -2.454459 1.596137 1.224081 0
M  V30 42 H -3.542676 2.436537 0.092364 0
M  V30 43 H -2.000255 3.209145 0.563199 0
M  V30 44 H -3.365541 2.789464 -2.405439 0
M  V30 45 H -4.802729 1.627564 -2.203437 0
M  V30 46 H -3.636132 1.448794 -3.526536 0
M  V30 47 H -4.598319 0.269371 -0.458637 0
M  V30 48 H -3.729350 -1.086589 -1.210549 0
M  V30 49 H -2.998243 -0.313189 0.199943 0
M  V30 50 H -1.432351 0.591936 -3.281709 0
M  V30 51 H -2.448120 -0.913325 -2.919716 0
M  V30 END ATOM
M  V30 BEGIN BOND
M  V30 1 1 1 2
M  V30 2 1 2 3
M  V30 3 2 3 4
M  V30 4 1 4 5
M  V30 5 2 5 6
M  V30 6 1 6 7
M  V30 7 1 7 8
M  V30 8 2 8 9
M  V30 9 1 9 10
M  V30 10 1 10 11
M  V30 11 2 11 12
M  V30 12 1 12 13
M  V30 13 2 13 14
M  V30 14 1 14 15
M  V30 15 2 15 16
M  V30 16 1 16 17
M  V30 17 1 16 18
M  V30 18 2 18 19
M  V30 19 1 11 20
M  V30 20 1 20 21
M  V30 21 1 20 22
M  V30 22 1 22 23
M  V30 23 1 22 24
M  V30 24 1 22 25
M  V30 25 2 7 26
M  V30 26 1 26 3
M  V30 27 1 12 8
M  V30 28 1 19 13
M  V30 29 1 25 10
M  V30 30 1 1 27
M  V30 31 1 1 28
M  V30 32 1 1 29
M  V30 33 1 2 30
M  V30 34 1 2 31
M  V30 35 1 4 32
M  V30 36 1 5 33
M  V30 37 1 6 34
M  V30 38 1 14 35
M  V30 39 1 15 36
M  V30 40 1 17 37
M  V30 41 1 18 38
M  V30 42 1 19 39
M  V30 43 1 20 40
M  V30 44 1 21 41
M  V30 45 1 21 42
M  V30 46 1 21 43
M  V30 47 1 23 44
M  V30 48 1 23 45
M  V30 49 1 23 46
M  V30 50 1 24 47
M  V30 51 1 24 48
M  V30 52 1 24 49
M  V30 53 1 25 50
M  V30 54 1 25 51
M  V30 END BOND
M  V30 END CTAB
M  END
>  <Dataset>  (525) 
ChEMBL_Kinases

>  <Ligand_Instance>  (525) 
nan

>  <PDB_ID>  (525) 
nan

>  <Standardized_SMILES>  (525) 
CCc1cccc(-c2nn3c(c2-c2ccc(O)cc2)C(C)C(C)(C)C3)n1

>  <Name>  (525) 
nan

>  <Pocket>  (525) 
nan

>  <ATP_Site>  (525) 
nan

>  <Peripheral>  (525) 
nan

>  <Num_H_Atoms_ProtBoundConf>  (525) 
nan

>  <Num_Resolved_Atoms>  (525) 
nan

>  <Num_Not_Resolved_Atoms>  (525) 
nan

$$$$
CHEMBL4757692
     RDKit          3D

  0  0  0  0  0  0  0  0  0  0999 V3000
M  V30 BEGIN CTAB
M  V30 COUNTS 79 83 0 0 0
M  V30 BEGIN ATOM
M  V30 1 C 8.828881 -3.233830 6.287493 0
M  V30 2 O 8.969992 -2.398075 5.160778 0
M  V30 3 C 8.262670 -1.224558 4.992049 0
M  V30 4 C 7.368111 -0.825740 5.957318 0
M  V30 5 C 6.652411 0.346790 5.803185 0
M  V30 6 C 6.829757 1.138157 4.667365 0
M  V30 7 O 6.247675 2.319521 4.295247 0
M  V30 8 C 5.097449 2.463742 3.540569 0
M  V30 9 C 5.206208 2.551914 2.164747 0
M  V30 10 C 3.990590 2.695081 1.487360 0
M  V30 11 C 2.728095 2.753503 2.067025 0
M  V30 12 C 1.568232 2.907192 1.201965 0
M  V30 13 C 0.449957 2.283361 1.405560 0
M  V30 14 S 0.166321 1.137735 2.782865 0
M  V30 15 C -1.601701 0.926998 2.429640 0
M  V30 16 O -2.172743 0.258943 3.323259 0
M  V30 17 N -1.861602 1.595741 1.203889 0
M  V30 18 C -3.206901 1.365103 0.805652 0
M  V30 19 C -4.313374 2.107062 1.120648 0
M  V30 20 C -5.570768 1.749160 0.660240 0
M  V30 21 C -5.679861 0.614302 -0.132156 0
M  V30 22 C -4.599638 -0.173984 -0.483394 0
M  V30 23 O -4.717747 -1.309498 -1.275430 0
M  V30 24 C -5.940271 -1.728897 -1.763281 0
M  V30 25 C -5.988586 -2.948470 -2.599242 0
M  V30 26 C -5.486587 -4.193013 -2.029280 0
M  V30 27 C -4.064564 -4.383059 -1.697226 0
M  V30 28 C -3.123760 -4.374693 -2.844075 0
M  V30 29 N -2.956023 -3.267537 -3.656678 0
M  V30 30 C -2.274242 -2.111587 -3.225526 0
M  V30 31 C -2.848920 -0.968568 -4.076346 0
M  V30 32 N -2.490191 -1.189569 -5.432488 0
M  V30 33 C -1.479150 -0.295031 -5.951527 0
M  V30 34 C -2.425976 -2.504030 -5.924895 0
M  V30 35 C -2.385299 -3.627783 -4.934910 0
M  V30 36 C -3.376783 0.235749 0.006079 0
M  V30 37 C -0.796957 2.310797 0.654578 0
M  V30 38 O -0.975725 2.930627 -0.445500 0
M  V30 39 C 2.737396 2.656854 3.441533 0
M  V30 40 C 3.879530 2.513605 4.199026 0
M  V30 41 C 7.748659 0.701238 3.705220 0
M  V30 42 C 8.474981 -0.482228 3.854508 0
M  V30 43 H 9.584370 -4.023936 6.330216 0
M  V30 44 H 8.887733 -2.654701 7.221957 0
M  V30 45 H 7.837445 -3.732962 6.300896 0
M  V30 46 H 7.163708 -1.367080 6.863562 0
M  V30 47 H 5.917170 0.788115 6.474560 0
M  V30 48 H 6.125404 2.518443 1.615313 0
M  V30 49 H 4.065879 2.765418 0.402008 0
M  V30 50 H 1.648517 3.572947 0.354690 0
M  V30 51 H -4.127755 2.979188 1.747534 0
M  V30 52 H -6.422621 2.342618 0.918762 0
M  V30 53 H -6.658688 0.334020 -0.490940 0
M  V30 54 H -6.558235 -1.975116 -0.840780 0
M  V30 55 H -6.548136 -0.877645 -2.202249 0
M  V30 56 H -7.076258 -3.075949 -2.894020 0
M  V30 57 H -5.501267 -2.720302 -3.585324 0
M  V30 58 H -5.748151 -5.023528 -2.765443 0
M  V30 59 H -6.160679 -4.465744 -1.153420 0
M  V30 60 H -3.800608 -3.688524 -0.879899 0
M  V30 61 H -3.968459 -5.399499 -1.226439 0
M  V30 62 H -2.094539 -4.750537 -2.535533 0
M  V30 63 H -3.460465 -5.235130 -3.519441 0
M  V30 64 H -1.165520 -2.177945 -3.502491 0
M  V30 65 H -2.300506 -1.809123 -2.197671 0
M  V30 66 H -3.936531 -0.938424 -3.873859 0
M  V30 67 H -2.430000 0.014532 -3.744128 0
M  V30 68 H -1.971992 0.359970 -6.702847 0
M  V30 69 H -1.160807 0.362693 -5.117739 0
M  V30 70 H -0.593539 -0.823194 -6.351635 0
M  V30 71 H -3.261893 -2.731801 -6.650814 0
M  V30 72 H -1.500835 -2.587312 -6.558095 0
M  V30 73 H -2.828686 -4.535403 -5.373688 0
M  V30 74 H -1.302354 -3.876574 -4.738575 0
M  V30 75 H -2.533745 -0.398337 -0.281601 0
M  V30 76 H 1.777487 2.702828 3.935768 0
M  V30 77 H 3.787677 2.443726 5.277481 0
M  V30 78 H 7.988878 1.219448 2.767314 0
M  V30 79 H 9.178910 -0.834486 3.134531 0
M  V30 END ATOM
M  V30 BEGIN BOND
M  V30 1 1 1 2
M  V30 2 1 2 3
M  V30 3 2 3 4
M  V30 4 1 4 5
M  V30 5 2 5 6
M  V30 6 1 6 7
M  V30 7 1 7 8
M  V30 8 2 8 9
M  V30 9 1 9 10
M  V30 10 2 10 11
M  V30 11 1 11 12
M  V30 12 2 12 13
M  V30 13 1 13 14
M  V30 14 1 14 15
M  V30 15 2 15 16
M  V30 16 1 15 17
M  V30 17 1 17 18
M  V30 18 2 18 19
M  V30 19 1 19 20
M  V30 20 2 20 21
M  V30 21 1 21 22
M  V30 22 1 22 23
M  V30 23 1 23 24
M  V30 24 1 24 25
M  V30 25 1 25 26
M  V30 26 1 26 27
M  V30 27 1 27 28
M  V30 28 1 28 29
M  V30 29 1 29 30
M  V30 30 1 30 31
M  V30 31 1 31 32
M  V30 32 1 32 33
M  V30 33 1 32 34
M  V30 34 1 34 35
M  V30 35 2 22 36
M  V30 36 1 17 37
M  V30 37 2 37 38
M  V30 38 1 11 39
M  V30 39 2 39 40
M  V30 40 1 6 41
M  V30 41 2 41 42
M  V30 42 1 42 3
M  V30 43 1 40 8
M  V30 44 1 37 13
M  V30 45 1 36 18
M  V30 46 1 35 29
M  V30 47 1 1 43
M  V30 48 1 1 44
M  V30 49 1 1 45
M  V30 50 1 4 46
M  V30 51 1 5 47
M  V30 52 1 9 48
M  V30 53 1 10 49
M  V30 54 1 12 50
M  V30 55 1 19 51
M  V30 56 1 20 52
M  V30 57 1 21 53
M  V30 58 1 24 54
M  V30 59 1 24 55
M  V30 60 1 25 56
M  V30 61 1 25 57
M  V30 62 1 26 58
M  V30 63 1 26 59
M  V30 64 1 27 60
M  V30 65 1 27 61
M  V30 66 1 28 62
M  V30 67 1 28 63
M  V30 68 1 30 64
M  V30 69 1 30 65
M  V30 70 1 31 66
M  V30 71 1 31 67
M  V30 72 1 33 68
M  V30 73 1 33 69
M  V30 74 1 33 70
M  V30 75 1 34 71
M  V30 76 1 34 72
M  V30 77 1 35 73
M  V30 78 1 35 74
M  V30 79 1 36 75
M  V30 80 1 39 76
M  V30 81 1 40 77
M  V30 82 1 41 78
M  V30 83 1 42 79
M  V30 END BOND
M  V30 END CTAB
M  END
>  <Dataset>  (526) 
ChEMBL_Kinases

>  <Ligand_Instance>  (526) 
nan

>  <PDB_ID>  (526) 
nan

>  <Standardized_SMILES>  (526) 
COc1ccc(Oc2ccc(/C=C3\SC(=O)N(c4cccc(OCCCCCN5CCN(C)CC5)c4)C3=O)cc2)cc1

>  <Name>  (526) 
nan

>  <Pocket>  (526) 
nan

>  <ATP_Site>  (526) 
nan

>  <Peripheral>  (526) 
nan

>  <Num_H_Atoms_ProtBoundConf>  (526) 
nan

>  <Num_Resolved_Atoms>  (526) 
nan

>  <Num_Not_Resolved_Atoms>  (526) 
nan

$$$$
CHEMBL4757719
     RDKit          3D

  0  0  0  0  0  0  0  0  0  0999 V3000
M  V30 BEGIN CTAB
M  V30 COUNTS 55 59 0 0 0
M  V30 BEGIN ATOM
M  V30 1 C -0.754341 -0.139525 4.569274 0
M  V30 2 N 0.178578 -1.090688 5.084328 0
M  V30 3 C 1.434583 -0.563069 5.508830 0
M  V30 4 C 2.500784 -0.616836 4.415962 0
M  V30 5 N 2.535274 -1.916837 3.924828 0
M  V30 6 C 3.308329 -2.239990 2.791462 0
M  V30 7 C 2.832263 -1.445548 1.627288 0
M  V30 8 C 3.273064 -0.198103 1.233029 0
M  V30 9 C 2.731336 0.417705 0.121942 0
M  V30 10 C 1.738841 -0.164762 -0.643521 0
M  V30 11 C 1.155766 0.473433 -1.820222 0
M  V30 12 C 1.790123 1.327118 -2.698727 0
M  V30 13 N 1.132043 1.850860 -3.750340 0
M  V30 14 C -0.161219 1.573375 -3.997106 0
M  V30 15 N -1.044587 1.947459 -4.950246 0
M  V30 16 C -2.252484 1.373614 -4.742405 0
M  V30 17 C -2.179667 0.578708 -3.600007 0
M  V30 18 C -3.240217 -0.223509 -3.004841 0
M  V30 19 C -4.492281 0.384203 -2.882273 0
M  V30 20 C -5.507232 -0.375939 -2.315879 0
M  V30 21 C -5.384510 -1.672424 -1.866793 0
M  V30 22 Cl -6.735671 -2.535837 -1.169032 0
M  V30 23 C -4.136547 -2.237505 -2.004106 0
M  V30 24 C -3.095223 -1.518325 -2.562500 0
M  V30 25 C -0.880066 0.717574 -3.157310 0
M  V30 26 C -0.179337 0.208581 -2.105165 0
M  V30 27 C 1.279628 -1.412903 -0.270869 0
M  V30 28 C 1.826311 -2.029067 0.846508 0
M  V30 29 C 1.641338 -2.883753 4.424117 0
M  V30 30 C 0.234928 -2.335936 4.400140 0
M  V30 31 H -0.371560 0.898565 4.654544 0
M  V30 32 H -1.043330 -0.316030 3.512313 0
M  V30 33 H -1.659602 -0.156696 5.232727 0
M  V30 34 H 1.816652 -1.256244 6.303858 0
M  V30 35 H 1.379677 0.419988 5.976049 0
M  V30 36 H 2.273812 0.129516 3.628877 0
M  V30 37 H 3.448970 -0.364058 4.932402 0
M  V30 38 H 4.381058 -1.962995 2.977825 0
M  V30 39 H 3.207198 -3.304640 2.567849 0
M  V30 40 H 4.043846 0.230227 1.846472 0
M  V30 41 H 3.097668 1.391254 -0.159858 0
M  V30 42 H 2.841576 1.533277 -2.470698 0
M  V30 43 H -0.812419 2.590160 -5.730850 0
M  V30 44 H -3.138333 1.484005 -5.329632 0
M  V30 45 H -4.705337 1.389184 -3.197365 0
M  V30 46 H -6.483964 0.083331 -2.214957 0
M  V30 47 H -3.979920 -3.263708 -1.665956 0
M  V30 48 H -2.112164 -1.984192 -2.663728 0
M  V30 49 H -0.724415 -0.456682 -1.444522 0
M  V30 50 H 0.494411 -1.961604 -0.811369 0
M  V30 51 H 1.442520 -3.022705 1.121229 0
M  V30 52 H 1.890813 -3.115994 5.479922 0
M  V30 53 H 1.725775 -3.813030 3.807396 0
M  V30 54 H -0.430539 -3.045775 4.973339 0
M  V30 55 H -0.187117 -2.318160 3.375018 0
M  V30 END ATOM
M  V30 BEGIN BOND
M  V30 1 1 1 2
M  V30 2 1 2 3
M  V30 3 1 3 4
M  V30 4 1 4 5
M  V30 5 1 5 6
M  V30 6 1 6 7
M  V30 7 2 7 8
M  V30 8 1 8 9
M  V30 9 2 9 10
M  V30 10 1 10 11
M  V30 11 2 11 12
M  V30 12 1 12 13
M  V30 13 2 13 14
M  V30 14 1 14 15
M  V30 15 1 15 16
M  V30 16 2 16 17
M  V30 17 1 17 18
M  V30 18 2 18 19
M  V30 19 1 19 20
M  V30 20 2 20 21
M  V30 21 1 21 22
M  V30 22 1 21 23
M  V30 23 2 23 24
M  V30 24 1 17 25
M  V30 25 2 25 26
M  V30 26 1 10 27
M  V30 27 2 27 28
M  V30 28 1 5 29
M  V30 29 1 29 30
M  V30 30 1 30 2
M  V30 31 1 28 7
M  V30 32 1 26 11
M  V30 33 1 25 14
M  V30 34 1 24 18
M  V30 35 1 1 31
M  V30 36 1 1 32
M  V30 37 1 1 33
M  V30 38 1 3 34
M  V30 39 1 3 35
M  V30 40 1 4 36
M  V30 41 1 4 37
M  V30 42 1 6 38
M  V30 43 1 6 39
M  V30 44 1 8 40
M  V30 45 1 9 41
M  V30 46 1 12 42
M  V30 47 1 15 43
M  V30 48 1 16 44
M  V30 49 1 19 45
M  V30 50 1 20 46
M  V30 51 1 23 47
M  V30 52 1 24 48
M  V30 53 1 26 49
M  V30 54 1 27 50
M  V30 55 1 28 51
M  V30 56 1 29 52
M  V30 57 1 29 53
M  V30 58 1 30 54
M  V30 59 1 30 55
M  V30 END BOND
M  V30 END CTAB
M  END
>  <Dataset>  (527) 
ChEMBL_Kinases

>  <Ligand_Instance>  (527) 
nan

>  <PDB_ID>  (527) 
nan

>  <Standardized_SMILES>  (527) 
CN1CCN(Cc2ccc(-c3cnc4[nH]cc(-c5ccc(Cl)cc5)c4c3)cc2)CC1

>  <Name>  (527) 
nan

>  <Pocket>  (527) 
nan

>  <ATP_Site>  (527) 
nan

>  <Peripheral>  (527) 
nan

>  <Num_H_Atoms_ProtBoundConf>  (527) 
nan

>  <Num_Resolved_Atoms>  (527) 
nan

>  <Num_Not_Resolved_Atoms>  (527) 
nan

$$$$
CHEMBL4757777
     RDKit          3D

  0  0  0  0  0  0  0  0  0  0999 V3000
M  V30 BEGIN CTAB
M  V30 COUNTS 43 46 0 0 0
M  V30 BEGIN ATOM
M  V30 1 C -0.581454 -4.767596 0.478377 0
M  V30 2 C -0.078808 -3.386505 0.697435 0
M  V30 3 C 1.280205 -3.169630 0.598372 0
M  V30 4 C 1.740507 -1.885469 0.803054 0
M  V30 5 N 3.138667 -1.664655 0.704624 0
M  V30 6 C 3.835254 -0.814660 -0.194066 0
M  V30 7 C 3.213157 -0.062837 -1.165963 0
M  V30 8 N 3.909120 0.736684 -2.001176 0
M  V30 9 C 5.258725 0.801852 -1.880451 0
M  V30 10 C 5.891580 0.046152 -0.902606 0
M  V30 11 N 5.172142 -0.747826 -0.077282 0
M  V30 12 C 0.802815 -0.916290 1.091701 0
M  V30 13 O 1.242034 0.242486 1.274690 0
M  V30 14 N -0.524892 -1.106473 1.192675 0
M  V30 15 C -0.964282 -2.364825 0.990773 0
M  V30 16 C -2.415971 -2.431798 1.128754 0
M  V30 17 O -3.241479 -3.348540 1.034494 0
M  V30 18 N -2.761045 -1.084628 1.429629 0
M  V30 19 C -1.604552 -0.169160 1.489968 0
M  V30 20 C -1.807904 0.885497 0.475111 0
M  V30 21 C -1.179524 2.209541 0.710557 0
M  V30 22 C -0.933788 2.588803 2.128116 0
M  V30 23 C -1.820578 1.794293 3.027702 0
M  V30 24 C -1.538636 0.314408 2.900808 0
M  V30 25 H -1.456904 -4.994016 1.124477 0
M  V30 26 H -0.877726 -4.968971 -0.562668 0
M  V30 27 H 0.183759 -5.527158 0.762684 0
M  V30 28 H 1.936238 -3.991634 0.368435 0
M  V30 29 H 3.618295 -2.231235 1.409015 0
M  V30 30 H 2.141705 -0.099510 -1.283480 0
M  V30 31 H 5.838448 1.422972 -2.523504 0
M  V30 32 H 6.963425 0.040524 -0.739328 0
M  V30 33 H -3.676354 -0.617457 1.616580 0
M  V30 34 H -1.546184 0.455285 -0.517198 0
M  V30 35 H -2.920427 1.065149 0.400698 0
M  V30 36 H -1.783266 3.043455 0.234916 0
M  V30 37 H -0.188840 2.308662 0.167414 0
M  V30 38 H -1.151172 3.667510 2.266285 0
M  V30 39 H 0.123327 2.455994 2.447358 0
M  V30 40 H -2.893632 1.989475 2.839563 0
M  V30 41 H -1.619893 2.071865 4.099263 0
M  V30 42 H -0.518217 0.066402 3.274536 0
M  V30 43 H -2.228908 -0.235516 3.568449 0
M  V30 END ATOM
M  V30 BEGIN BOND
M  V30 1 1 1 2
M  V30 2 1 2 3
M  V30 3 2 3 4
M  V30 4 1 4 5
M  V30 5 1 5 6
M  V30 6 2 6 7
M  V30 7 1 7 8
M  V30 8 2 8 9
M  V30 9 1 9 10
M  V30 10 2 10 11
M  V30 11 1 4 12
M  V30 12 2 12 13
M  V30 13 1 12 14
M  V30 14 1 14 15
M  V30 15 1 15 16
M  V30 16 2 16 17
M  V30 17 1 16 18
M  V30 18 1 18 19
M  V30 19 1 19 20
M  V30 20 1 20 21
M  V30 21 1 21 22
M  V30 22 1 22 23
M  V30 23 1 23 24
M  V30 24 2 15 2
M  V30 25 1 24 19
M  V30 26 1 11 6
M  V30 27 1 19 14
M  V30 28 1 1 25
M  V30 29 1 1 26
M  V30 30 1 1 27
M  V30 31 1 3 28
M  V30 32 1 5 29
M  V30 33 1 7 30
M  V30 34 1 9 31
M  V30 35 1 10 32
M  V30 36 1 18 33
M  V30 37 1 20 34
M  V30 38 1 20 35
M  V30 39 1 21 36
M  V30 40 1 21 37
M  V30 41 1 22 38
M  V30 42 1 22 39
M  V30 43 1 23 40
M  V30 44 1 23 41
M  V30 45 1 24 42
M  V30 46 1 24 43
M  V30 END BOND
M  V30 END CTAB
M  END
>  <Dataset>  (528) 
ChEMBL_Kinases

>  <Ligand_Instance>  (528) 
nan

>  <PDB_ID>  (528) 
nan

>  <Standardized_SMILES>  (528) 
Cc1cc(Nc2cnccn2)c(=O)n2c1C(=O)NC21CCCCC1

>  <Name>  (528) 
nan

>  <Pocket>  (528) 
nan

>  <ATP_Site>  (528) 
nan

>  <Peripheral>  (528) 
nan

>  <Num_H_Atoms_ProtBoundConf>  (528) 
nan

>  <Num_Resolved_Atoms>  (528) 
nan

>  <Num_Not_Resolved_Atoms>  (528) 
nan

$$$$
CHEMBL4757805
     RDKit          3D

  0  0  0  0  0  0  0  0  0  0999 V3000
M  V30 BEGIN CTAB
M  V30 COUNTS 88 93 0 0 0
M  V30 BEGIN ATOM
M  V30 1 C 4.029931 -6.627398 -0.786581 0
M  V30 2 C 3.269645 -5.422436 -0.206621 0
M  V30 3 C 3.543034 -4.246136 -1.071428 0 CFG=2
M  V30 4 C 4.972774 -3.893695 -1.172369 0
M  V30 5 N 5.947821 -4.793202 -1.353387 0
M  V30 6 N 7.112638 -4.183188 -1.455136 0
M  V30 7 C 6.918661 -2.835947 -1.338461 0
M  V30 8 N 5.603038 -2.684555 -1.165116 0
M  V30 9 C 4.719819 -1.588324 -0.939795 0
M  V30 10 C 5.305726 -0.338917 -0.938898 0
M  V30 11 N 4.525450 0.713439 -0.735835 0
M  V30 12 C 3.187908 0.597202 -0.533179 0
M  V30 13 N 2.468931 1.798981 -0.299753 0
M  V30 14 C 1.073328 2.056321 -0.306852 0
M  V30 15 C 0.175786 1.081637 -0.769872 0
M  V30 16 C -1.185987 1.293324 -0.842351 0
M  V30 17 C -1.721715 2.501225 -0.451173 0
M  V30 18 C -3.135267 2.907587 -0.500533 0
M  V30 19 O -3.586311 3.970455 -0.019055 0
M  V30 20 N -4.088758 2.064255 -1.133027 0
M  V30 21 C -5.490482 2.077769 -1.394387 0
M  V30 22 C -5.774848 2.138100 -2.884524 0
M  V30 23 C -5.514041 0.816788 -3.552972 0
M  V30 24 N -5.999905 -0.327260 -2.860667 0
M  V30 25 C -7.278483 -0.816546 -3.271233 0
M  V30 26 C -5.785477 -0.362937 -1.444203 0
M  V30 27 C -6.142962 0.904368 -0.743659 0
M  V30 28 C -0.853541 3.469544 0.008056 0
M  V30 29 C 0.487476 3.244988 0.073161 0
M  V30 30 O 1.314046 4.267219 0.546859 0
M  V30 31 C 0.849029 5.501678 0.972053 0
M  V30 32 N 2.615215 -0.611223 -0.532951 0
M  V30 33 C 3.353403 -1.707417 -0.731493 0
M  V30 34 N 2.808750 -3.038878 -0.735930 0
M  V30 35 C 1.425418 -3.066988 -0.323494 0
M  V30 36 C 1.220813 -2.455651 1.016632 0
M  V30 37 C 2.309944 -2.600149 1.864545 0
M  V30 38 C 2.390920 -2.094892 3.151275 0
M  V30 39 C 1.281621 -1.385257 3.623988 0
M  V30 40 O 1.284890 -0.845871 4.901811 0
M  V30 41 C 2.373558 -0.967141 5.768280 0
M  V30 42 C 0.193161 -1.237262 2.785377 0
M  V30 43 O -0.912100 -0.527425 3.267523 0
M  V30 44 C -1.028220 0.873172 3.105315 0
M  V30 45 C 0.143180 -1.751632 1.508847 0
M  V30 46 O -0.918248 -1.634378 0.628307 0
M  V30 47 C -1.949062 -2.624678 0.613773 0
M  V30 48 H 3.436992 -7.563539 -0.577238 0
M  V30 49 H 5.040713 -6.704215 -0.308762 0
M  V30 50 H 4.120886 -6.524932 -1.864905 0
M  V30 51 H 2.211988 -5.721187 -0.280179 0
M  V30 52 H 3.644298 -5.330447 0.821505 0
M  V30 53 H 3.218183 -4.549859 -2.116899 0
M  V30 54 H 7.653805 -2.070841 -1.377479 0
M  V30 55 H 6.358461 -0.136580 -1.091272 0
M  V30 56 H 3.020200 2.684943 -0.077179 0
M  V30 57 H 0.466388 0.116237 -1.101144 0
M  V30 58 H -1.887600 0.557124 -1.196363 0
M  V30 59 H -3.785451 1.145288 -1.572274 0
M  V30 60 H -5.957682 3.004098 -0.952157 0
M  V30 61 H -5.040332 2.867224 -3.298941 0
M  V30 62 H -6.770225 2.542234 -3.113951 0
M  V30 63 H -6.054149 0.847937 -4.544801 0
M  V30 64 H -4.435121 0.697104 -3.842937 0
M  V30 65 H -8.118818 -0.585817 -2.595738 0
M  V30 66 H -7.183335 -1.942579 -3.310577 0
M  V30 67 H -7.466985 -0.529624 -4.334374 0
M  V30 68 H -6.404213 -1.223868 -1.067559 0
M  V30 69 H -4.736210 -0.683384 -1.248727 0
M  V30 70 H -7.252083 0.996431 -0.693898 0
M  V30 71 H -5.744706 0.840328 0.290563 0
M  V30 72 H -1.223611 4.444458 0.330012 0
M  V30 73 H -0.032283 5.368301 1.662004 0
M  V30 74 H 0.501563 6.189157 0.170750 0
M  V30 75 H 1.597708 6.023862 1.645630 0
M  V30 76 H 1.087546 -4.106356 -0.276535 0
M  V30 77 H 0.829807 -2.503445 -1.084145 0
M  V30 78 H 3.226520 -3.132716 1.577762 0
M  V30 79 H 3.267392 -2.233352 3.772359 0
M  V30 80 H 2.766883 -1.987921 5.715856 0
M  V30 81 H 2.070293 -0.754559 6.836903 0
M  V30 82 H 3.142429 -0.183252 5.532665 0
M  V30 83 H -0.839728 1.345985 4.110564 0
M  V30 84 H -2.082933 1.096693 2.858302 0
M  V30 85 H -0.367528 1.266006 2.333052 0
M  V30 86 H -1.804501 -3.372261 -0.193733 0
M  V30 87 H -2.916233 -2.137969 0.401055 0
M  V30 88 H -1.974301 -3.205237 1.566567 0
M  V30 END ATOM
M  V30 BEGIN BOND
M  V30 1 1 1 2
M  V30 2 1 2 3
M  V30 3 1 3 4
M  V30 4 2 4 5
M  V30 5 1 5 6
M  V30 6 2 6 7
M  V30 7 1 7 8
M  V30 8 1 8 9
M  V30 9 2 9 10
M  V30 10 1 10 11
M  V30 11 2 11 12
M  V30 12 1 12 13
M  V30 13 1 13 14
M  V30 14 2 14 15
M  V30 15 1 15 16
M  V30 16 2 16 17
M  V30 17 1 17 18
M  V30 18 2 18 19
M  V30 19 1 18 20
M  V30 20 1 20 21
M  V30 21 1 21 22
M  V30 22 1 22 23
M  V30 23 1 23 24
M  V30 24 1 24 25
M  V30 25 1 24 26
M  V30 26 1 26 27
M  V30 27 1 17 28
M  V30 28 2 28 29
M  V30 29 1 29 30
M  V30 30 1 30 31
M  V30 31 1 12 32
M  V30 32 2 32 33
M  V30 33 1 33 34
M  V30 34 1 34 35
M  V30 35 1 35 36
M  V30 36 2 36 37
M  V30 37 1 37 38
M  V30 38 2 38 39
M  V30 39 1 39 40
M  V30 40 1 40 41
M  V30 41 1 39 42
M  V30 42 1 42 43
M  V30 43 1 43 44
M  V30 44 2 42 45
M  V30 45 1 45 46
M  V30 46 1 46 47
M  V30 47 1 34 3
M  V30 48 1 45 36
M  V30 49 1 8 4
M  V30 50 1 33 9
M  V30 51 1 29 14
M  V30 52 1 27 21
M  V30 53 1 1 48
M  V30 54 1 1 49
M  V30 55 1 1 50
M  V30 56 1 2 51
M  V30 57 1 2 52
M  V30 58 1 3 53 CFG=3
M  V30 59 1 7 54
M  V30 60 1 10 55
M  V30 61 1 13 56
M  V30 62 1 15 57
M  V30 63 1 16 58
M  V30 64 1 20 59
M  V30 65 1 21 60
M  V30 66 1 22 61
M  V30 67 1 22 62
M  V30 68 1 23 63
M  V30 69 1 23 64
M  V30 70 1 25 65
M  V30 71 1 25 66
M  V30 72 1 25 67
M  V30 73 1 26 68
M  V30 74 1 26 69
M  V30 75 1 27 70
M  V30 76 1 27 71
M  V30 77 1 28 72
M  V30 78 1 31 73
M  V30 79 1 31 74
M  V30 80 1 31 75
M  V30 81 1 35 76
M  V30 82 1 35 77
M  V30 83 1 37 78
M  V30 84 1 38 79
M  V30 85 1 41 80
M  V30 86 1 41 81
M  V30 87 1 41 82
M  V30 88 1 44 83
M  V30 89 1 44 84
M  V30 90 1 44 85
M  V30 91 1 47 86
M  V30 92 1 47 87
M  V30 93 1 47 88
M  V30 END BOND
M  V30 END CTAB
M  END
>  <Dataset>  (529) 
ChEMBL_Kinases

>  <Ligand_Instance>  (529) 
nan

>  <PDB_ID>  (529) 
nan

>  <Standardized_SMILES>  (529) 
CC[C@@H]1c2nncn2-c2cnc(Nc3ccc(C(=O)NC4CCN(C)CC4)cc3OC)nc2N1Cc1ccc(OC)c(OC)c1OC

>  <Name>  (529) 
nan

>  <Pocket>  (529) 
nan

>  <ATP_Site>  (529) 
nan

>  <Peripheral>  (529) 
nan

>  <Num_H_Atoms_ProtBoundConf>  (529) 
nan

>  <Num_Resolved_Atoms>  (529) 
nan

>  <Num_Not_Resolved_Atoms>  (529) 
nan

$$$$
CHEMBL4757830
     RDKit          3D

  0  0  0  0  0  0  0  0  0  0999 V3000
M  V30 BEGIN CTAB
M  V30 COUNTS 57 64 0 0 0
M  V30 BEGIN ATOM
M  V30 1 C -3.895471 -1.068710 -2.847444 0
M  V30 2 O -3.193873 -0.759660 -1.688624 0
M  V30 3 C -1.840902 -0.916583 -1.811901 0 CFG=2
M  V30 4 C -1.309959 -2.117278 -1.064210 0 CFG=1
M  V30 5 O -2.241893 -3.143389 -1.217624 0
M  V30 6 C 0.001972 -2.481672 -1.701149 0 CFG=1
M  V30 7 O -0.270025 -3.149013 -2.892655 0
M  V30 8 C 0.846539 -1.279438 -2.041533 0 CFG=1
M  V30 9 O 0.261326 -0.097321 -2.189407 0
M  V30 10 C -0.956548 0.238779 -1.644022 0 CFG=1
M  V30 11 C -1.346592 1.420306 -2.530756 0
M  V30 12 N -0.718142 0.693249 -0.269643 0
M  V30 13 C -1.413822 1.515408 0.521962 0
M  V30 14 C -2.630641 2.110671 0.199674 0
M  V30 15 C -3.301118 2.948326 1.068897 0
M  V30 16 C -2.696902 3.177080 2.307253 0
M  V30 17 C -1.493808 2.560669 2.570496 0
M  V30 18 C -0.803470 1.728554 1.737843 0
M  V30 19 C 0.334957 1.013022 1.738425 0
M  V30 20 C 1.319884 0.848318 2.656981 0
M  V30 21 C 2.414628 0.047410 2.424088 0
M  V30 22 C 2.443439 -0.574037 1.207688 0
M  V30 23 C 3.315403 -1.440600 0.616967 0
M  V30 24 C 4.496534 -2.050404 0.911145 0
M  V30 25 C 5.205062 -2.918903 0.113962 0
M  V30 26 C 4.671735 -3.224202 -1.143504 0
M  V30 27 C 3.478917 -2.641262 -1.504302 0
M  V30 28 C 2.837705 -1.777578 -0.632359 0
M  V30 29 N 1.691896 -1.144410 -0.836860 0
M  V30 30 C 1.452984 -0.414717 0.271802 0
M  V30 31 C 0.362563 0.399172 0.524408 0
M  V30 32 C 3.322991 0.023616 3.524850 0
M  V30 33 O 4.410792 -0.535336 3.771480 0
M  V30 34 N 2.748621 0.875604 4.519296 0
M  V30 35 C 1.520897 1.376838 3.978807 0
M  V30 36 O 0.877132 2.146724 4.719478 0
M  V30 37 H -3.679496 -2.139456 -3.087023 0
M  V30 38 H -4.981965 -1.012272 -2.720192 0
M  V30 39 H -3.614676 -0.435776 -3.706900 0
M  V30 40 H -1.755350 -1.256937 -2.891802 0
M  V30 41 H -1.254999 -1.868447 -0.001373 0
M  V30 42 H -3.094453 -2.877694 -0.813639 0
M  V30 43 H 0.497425 -3.210260 -1.030165 0
M  V30 44 H -0.267697 -4.118307 -2.834792 0
M  V30 45 H 1.534280 -1.515268 -2.904749 0
M  V30 46 H -0.630326 1.462093 -3.373766 0
M  V30 47 H -1.153643 2.336828 -1.940884 0
M  V30 48 H -2.386243 1.431289 -2.863301 0
M  V30 49 H -3.143789 1.958100 -0.735064 0
M  V30 50 H -4.229254 3.408279 0.834229 0
M  V30 51 H -3.193342 3.827741 3.012958 0
M  V30 52 H -1.098954 2.779445 3.524203 0
M  V30 53 H 4.944533 -1.853680 1.852141 0
M  V30 54 H 6.140273 -3.363714 0.420548 0
M  V30 55 H 5.172789 -3.888103 -1.803562 0
M  V30 56 H 3.074863 -2.881432 -2.474143 0
M  V30 57 H 3.173489 1.075407 5.460303 0
M  V30 END ATOM
M  V30 BEGIN BOND
M  V30 1 1 1 2
M  V30 2 1 2 3
M  V30 3 1 3 4
M  V30 4 1 4 5
M  V30 5 1 4 6
M  V30 6 1 6 7
M  V30 7 1 6 8
M  V30 8 1 8 9
M  V30 9 1 9 10
M  V30 10 1 10 11 CFG=3
M  V30 11 1 10 12
M  V30 12 1 12 13
M  V30 13 2 13 14
M  V30 14 1 14 15
M  V30 15 2 15 16
M  V30 16 1 16 17
M  V30 17 2 17 18
M  V30 18 1 18 19
M  V30 19 2 19 20
M  V30 20 1 20 21
M  V30 21 2 21 22
M  V30 22 1 22 23
M  V30 23 2 23 24
M  V30 24 1 24 25
M  V30 25 2 25 26
M  V30 26 1 26 27
M  V30 27 2 27 28
M  V30 28 1 28 29
M  V30 29 1 29 30
M  V30 30 2 30 31
M  V30 31 1 21 32
M  V30 32 2 32 33
M  V30 33 1 32 34
M  V30 34 1 34 35
M  V30 35 2 35 36
M  V30 36 1 10 3
M  V30 37 1 31 12
M  V30 38 1 29 8
M  V30 39 1 18 13
M  V30 40 1 31 19
M  V30 41 1 35 20
M  V30 42 1 30 22
M  V30 43 1 28 23
M  V30 44 1 1 37
M  V30 45 1 1 38
M  V30 46 1 1 39
M  V30 47 1 3 40 CFG=3
M  V30 48 1 4 41 CFG=1
M  V30 49 1 5 42
M  V30 50 1 6 43 CFG=1
M  V30 51 1 7 44
M  V30 52 1 8 45 CFG=3
M  V30 53 1 11 46
M  V30 54 1 11 47
M  V30 55 1 11 48
M  V30 56 1 14 49
M  V30 57 1 15 50
M  V30 58 1 16 51
M  V30 59 1 17 52
M  V30 60 1 24 53
M  V30 61 1 25 54
M  V30 62 1 26 55
M  V30 63 1 27 56
M  V30 64 1 34 57
M  V30 END BOND
M  V30 END CTAB
M  END
>  <Dataset>  (530) 
ChEMBL_Kinases

>  <Ligand_Instance>  (530) 
nan

>  <PDB_ID>  (530) 
nan

>  <Standardized_SMILES>  (530) 
CO[C@@H]1[C@@H](O)[C@@H](O)[C@H]2O[C@]1(C)n1c3ccccc3c3c4c(c5c6ccccc6n2c5c31)C(=O)NC4=O

>  <Name>  (530) 
nan

>  <Pocket>  (530) 
nan

>  <ATP_Site>  (530) 
nan

>  <Peripheral>  (530) 
nan

>  <Num_H_Atoms_ProtBoundConf>  (530) 
nan

>  <Num_Resolved_Atoms>  (530) 
nan

>  <Num_Not_Resolved_Atoms>  (530) 
nan

$$$$
CHEMBL428754
     RDKit          3D

  0  0  0  0  0  0  0  0  0  0999 V3000
M  V30 BEGIN CTAB
M  V30 COUNTS 47 50 0 0 0
M  V30 BEGIN ATOM
M  V30 1 C -0.176447 -5.259412 3.844419 0
M  V30 2 N -1.334015 -5.163352 2.978119 0
M  V30 3 C -1.557190 -4.127520 2.029291 0
M  V30 4 N -0.637322 -3.155731 1.914307 0
M  V30 5 C -0.783107 -2.141757 1.035772 0
M  V30 6 C 0.048987 -1.104468 0.812511 0
M  V30 7 C -0.291231 -0.185872 -0.123792 0
M  V30 8 C 0.368311 1.036188 -0.602474 0
M  V30 9 C -0.236428 1.777591 -1.576284 0
M  V30 10 C 0.441374 2.929988 -1.985683 0
M  V30 11 C 1.668252 3.337149 -1.456451 0
M  V30 12 C 2.211601 2.531024 -0.475679 0
M  V30 13 C 3.532482 2.950520 0.108310 0
M  V30 14 N 3.417401 3.782917 1.226149 0
M  V30 15 C 2.776055 3.271112 2.380638 0
M  V30 16 C 3.542065 2.190736 3.085067 0
M  V30 17 N 4.822004 1.597276 2.779242 0
M  V30 18 O 2.902486 1.773457 4.112242 0
M  V30 19 C 1.585944 1.377525 -0.029729 0
M  V30 20 S -1.822792 -0.726937 -0.760165 0
M  V30 21 C -1.939281 -2.225930 0.307377 0
M  V30 22 N -2.896345 -3.189685 0.390695 0
M  V30 23 C -4.036057 -3.315998 -0.294118 0
M  V30 24 C -4.624239 -2.460956 -1.354308 0
M  V30 25 C -4.609977 -4.460672 0.191009 0
M  V30 26 N -3.788408 -4.971547 1.146682 0
M  V30 27 C -2.711763 -4.178792 1.276544 0
M  V30 28 H 0.202218 -6.298161 3.916956 0
M  V30 29 H -0.371958 -4.795680 4.813477 0
M  V30 30 H 0.627915 -4.661220 3.343245 0
M  V30 31 H -2.021006 -5.933717 3.099639 0
M  V30 32 H 0.987827 -0.923347 1.318289 0
M  V30 33 H -1.170582 1.533318 -2.027948 0
M  V30 34 H -0.034582 3.518992 -2.756100 0
M  V30 35 H 2.132114 4.240795 -1.823600 0
M  V30 36 H 4.093716 2.021533 0.382347 0
M  V30 37 H 4.091609 3.447066 -0.703504 0
M  V30 38 H 3.357382 4.798024 1.076730 0
M  V30 39 H 2.695940 4.137996 3.099581 0
M  V30 40 H 1.740073 2.909844 2.247662 0
M  V30 41 H 5.341441 2.407109 2.374193 0
M  V30 42 H 4.904285 0.586599 3.020581 0
M  V30 43 H 2.048378 0.782883 0.736084 0
M  V30 44 H -3.842436 -1.972946 -1.941742 0
M  V30 45 H -5.240672 -1.626743 -0.916676 0
M  V30 46 H -5.277347 -3.078601 -2.002280 0
M  V30 47 H -5.546587 -4.924868 -0.095028 0
M  V30 END ATOM
M  V30 BEGIN BOND
M  V30 1 1 1 2
M  V30 2 1 2 3
M  V30 3 2 3 4
M  V30 4 1 4 5
M  V30 5 1 5 6
M  V30 6 2 6 7
M  V30 7 1 7 8
M  V30 8 2 8 9
M  V30 9 1 9 10
M  V30 10 2 10 11
M  V30 11 1 11 12
M  V30 12 1 12 13
M  V30 13 1 13 14
M  V30 14 1 14 15
M  V30 15 1 15 16
M  V30 16 1 16 17
M  V30 17 2 16 18
M  V30 18 2 12 19
M  V30 19 1 7 20
M  V30 20 1 20 21
M  V30 21 1 21 22
M  V30 22 1 22 23
M  V30 23 1 23 24
M  V30 24 2 23 25
M  V30 25 1 25 26
M  V30 26 2 26 27
M  V30 27 1 27 3
M  V30 28 2 21 5
M  V30 29 1 27 22
M  V30 30 1 19 8
M  V30 31 1 1 28
M  V30 32 1 1 29
M  V30 33 1 1 30
M  V30 34 1 2 31
M  V30 35 1 6 32
M  V30 36 1 9 33
M  V30 37 1 10 34
M  V30 38 1 11 35
M  V30 39 1 13 36
M  V30 40 1 13 37
M  V30 41 1 14 38
M  V30 42 1 15 39
M  V30 43 1 15 40
M  V30 44 1 17 41
M  V30 45 1 17 42
M  V30 46 1 19 43
M  V30 47 1 24 44
M  V30 48 1 24 45
M  V30 49 1 24 46
M  V30 50 1 25 47
M  V30 END BOND
M  V30 END CTAB
M  END
>  <Dataset>  (531) 
ChEMBL_Kinases

>  <Ligand_Instance>  (531) 
nan

>  <PDB_ID>  (531) 
nan

>  <Standardized_SMILES>  (531) 
CNc1nc2cc(-c3cccc(CNCC(N)=O)c3)sc2n2c(C)cnc12

>  <Name>  (531) 
nan

>  <Pocket>  (531) 
nan

>  <ATP_Site>  (531) 
nan

>  <Peripheral>  (531) 
nan

>  <Num_H_Atoms_ProtBoundConf>  (531) 
nan

>  <Num_Resolved_Atoms>  (531) 
nan

>  <Num_Not_Resolved_Atoms>  (531) 
nan

$$$$
CHEMBL4288885
     RDKit          3D

  0  0  0  0  0  0  0  0  0  0999 V3000
M  V30 BEGIN CTAB
M  V30 COUNTS 33 35 0 0 0
M  V30 BEGIN ATOM
M  V30 1 O 0.734278 -1.428959 1.226296 0
M  V30 2 C 0.934243 -0.427182 1.962057 0
M  V30 3 C 2.120895 -0.944281 2.694158 0
M  V30 4 C 2.355291 -2.318416 2.123360 0
M  V30 5 C 1.685235 -3.325150 2.789108 0
M  V30 6 C 1.788378 -4.662607 2.394537 0
M  V30 7 C 2.592942 -4.933441 1.305552 0
M  V30 8 C 3.260837 -3.924346 0.643046 0
M  V30 9 O 4.080687 -4.192253 -0.465052 0
M  V30 10 C 3.158324 -2.598410 1.034550 0
M  V30 11 N 0.339504 0.835981 2.159771 0
M  V30 12 C -0.850475 1.128488 1.298505 0
M  V30 13 N -0.747775 1.648704 0.228931 0
M  V30 14 C -1.718284 1.949858 -0.604761 0
M  V30 15 C -1.687807 2.546289 -1.849198 0
M  V30 16 C -2.826656 2.771569 -2.558822 0
M  V30 17 C -4.105496 2.429075 -2.106918 0
M  V30 18 O -5.313509 2.618354 -2.755454 0
M  V30 19 C -4.220368 1.828682 -0.871749 0
M  V30 20 C -3.007917 1.627811 -0.197985 0
M  V30 21 S -2.657759 0.857099 1.491229 0
M  V30 22 H 3.006676 -0.334146 2.411290 0
M  V30 23 H 2.000541 -0.989889 3.780318 0
M  V30 24 H 1.042392 -3.146468 3.651818 0
M  V30 25 H 1.278197 -5.476544 2.892164 0
M  V30 26 H 2.691146 -5.973046 0.975637 0
M  V30 27 H 4.035283 -3.603181 -1.301361 0
M  V30 28 H 3.648530 -1.757808 0.567863 0
M  V30 29 H 0.752227 1.453388 2.862738 0
M  V30 30 H -0.771119 2.861791 -2.319923 0
M  V30 31 H -2.822062 3.245568 -3.551890 0
M  V30 32 H -5.748234 1.768419 -3.147404 0
M  V30 33 H -5.087167 1.482980 -0.327304 0
M  V30 END ATOM
M  V30 BEGIN BOND
M  V30 1 2 1 2
M  V30 2 1 2 3
M  V30 3 1 3 4
M  V30 4 2 4 5
M  V30 5 1 5 6
M  V30 6 2 6 7
M  V30 7 1 7 8
M  V30 8 1 8 9
M  V30 9 2 8 10
M  V30 10 1 2 11
M  V30 11 1 11 12
M  V30 12 2 12 13
M  V30 13 1 13 14
M  V30 14 2 14 15
M  V30 15 1 15 16
M  V30 16 2 16 17
M  V30 17 1 17 18
M  V30 18 1 17 19
M  V30 19 2 19 20
M  V30 20 1 20 21
M  V30 21 1 10 4
M  V30 22 1 21 12
M  V30 23 1 20 14
M  V30 24 1 3 22
M  V30 25 1 3 23
M  V30 26 1 5 24
M  V30 27 1 6 25
M  V30 28 1 7 26
M  V30 29 1 9 27
M  V30 30 1 10 28
M  V30 31 1 11 29
M  V30 32 1 15 30
M  V30 33 1 16 31
M  V30 34 1 18 32
M  V30 35 1 19 33
M  V30 END BOND
M  V30 END CTAB
M  END
>  <Dataset>  (532) 
ChEMBL_Kinases

>  <Ligand_Instance>  (532) 
nan

>  <PDB_ID>  (532) 
nan

>  <Standardized_SMILES>  (532) 
O=C(Cc1cccc(O)c1)Nc1nc2ccc(O)cc2s1

>  <Name>  (532) 
nan

>  <Pocket>  (532) 
nan

>  <ATP_Site>  (532) 
nan

>  <Peripheral>  (532) 
nan

>  <Num_H_Atoms_ProtBoundConf>  (532) 
nan

>  <Num_Resolved_Atoms>  (532) 
nan

>  <Num_Not_Resolved_Atoms>  (532) 
nan

$$$$
CHEMBL4757835
     RDKit          3D

  0  0  0  0  0  0  0  0  0  0999 V3000
M  V30 BEGIN CTAB
M  V30 COUNTS 76 80 0 0 0
M  V30 BEGIN ATOM
M  V30 1 C 3.858881 -0.441380 4.341011 0
M  V30 2 C 4.178150 -0.431974 2.890693 0
M  V30 3 C 5.505075 -0.654871 2.553313 0
M  V30 4 C 5.817268 -0.650434 1.197471 0
M  V30 5 C 4.856119 -0.434341 0.212102 0
M  V30 6 C 5.298347 -0.450994 -1.178596 0
M  V30 7 O 6.524345 -0.617786 -1.388454 0
M  V30 8 N 4.349000 -0.281903 -2.243212 0
M  V30 9 C 4.824215 -0.305000 -3.599728 0
M  V30 10 C 4.071206 0.397055 -4.651907 0
M  V30 11 C 3.987963 -1.099570 -4.604682 0
M  V30 12 C 3.563156 -0.220857 0.626511 0
M  V30 13 C 3.189157 -0.212801 1.954605 0
M  V30 14 N 1.831090 0.018294 2.324771 0
M  V30 15 C 1.368582 0.890889 3.228380 0
M  V30 16 C 0.032540 1.027087 3.501268 0
M  V30 17 N -0.751158 0.220299 2.792237 0
M  V30 18 C -0.356600 -0.670798 1.877549 0
M  V30 19 N -1.440742 -1.350639 1.284213 0
M  V30 20 C -2.821257 -1.643411 1.135284 0 CFG=1
M  V30 21 C -3.326961 -2.440260 2.330977 0
M  V30 22 C -4.328429 -3.404942 2.111897 0
M  V30 23 C -4.910732 -4.234964 3.041194 0
M  V30 24 C -4.453228 -4.097175 4.330747 0
M  V30 25 C -3.473037 -3.179926 4.647830 0
M  V30 26 C -2.965397 -2.408523 3.650030 0
M  V30 27 C -3.740826 -0.491192 0.919180 0 CFG=1
M  V30 28 C -3.754597 0.511477 2.073301 0
M  V30 29 C -3.614882 0.209447 -0.376111 0
M  V30 30 N -3.833992 -0.391215 -1.621925 0
M  V30 31 C -3.825961 0.690515 -2.676949 0
M  V30 32 C -2.426536 1.140839 -2.915643 0
M  V30 33 N -1.490745 0.113482 -3.257270 0
M  V30 34 C -0.185323 0.690259 -3.404515 0
M  V30 35 C -1.539607 -0.903843 -2.201014 0
M  V30 36 C -2.957608 -1.387665 -2.136512 0
M  V30 37 C 0.997812 -0.767419 1.641800 0
M  V30 38 O 1.324446 -1.625036 0.767368 0
M  V30 39 H 4.098437 0.572310 4.737899 0
M  V30 40 H 2.788835 -0.684837 4.521019 0
M  V30 41 H 4.423414 -1.231558 4.885853 0
M  V30 42 H 6.251550 -0.823038 3.322011 0
M  V30 43 H 6.879845 -0.830915 0.974667 0
M  V30 44 H 3.330711 -0.143535 -2.075411 0
M  V30 45 H 5.933430 -0.396124 -3.757667 0
M  V30 46 H 3.130833 0.948200 -4.478134 0
M  V30 47 H 4.592817 0.787349 -5.567741 0
M  V30 48 H 4.543835 -1.708417 -5.334455 0
M  V30 49 H 3.065779 -1.597215 -4.241900 0
M  V30 50 H 2.809213 -0.052309 -0.113966 0
M  V30 51 H 2.121023 1.478097 3.725307 0
M  V30 52 H -0.310654 1.740590 4.236862 0
M  V30 53 H -0.950917 -1.977546 0.565467 0
M  V30 54 H -3.031101 -2.349192 0.302205 0
M  V30 55 H -4.707600 -3.529546 1.088517 0
M  V30 56 H -5.672915 -4.939995 2.762270 0
M  V30 57 H -4.863919 -4.715648 5.114437 0
M  V30 58 H -3.108217 -3.063836 5.649411 0
M  V30 59 H -2.202769 -1.715561 3.919182 0
M  V30 60 H -4.785934 -0.952896 0.917926 0
M  V30 61 H -4.819712 0.881105 2.197404 0
M  V30 62 H -3.507720 0.026173 3.021636 0
M  V30 63 H -3.097658 1.362629 1.898210 0
M  V30 64 H -2.592199 0.732791 -0.457505 0
M  V30 65 H -4.318832 1.128856 -0.301334 0
M  V30 66 H -4.323334 0.295585 -3.551635 0
M  V30 67 H -4.406632 1.509138 -2.229145 0
M  V30 68 H -2.467325 1.828938 -3.808805 0
M  V30 69 H -2.066723 1.824855 -2.092539 0
M  V30 70 H 0.287096 1.026361 -2.470116 0
M  V30 71 H -0.285967 1.494786 -4.172398 0
M  V30 72 H 0.492156 -0.065999 -3.872149 0
M  V30 73 H -0.817932 -1.722593 -2.413947 0
M  V30 74 H -1.173143 -0.390778 -1.297781 0
M  V30 75 H -3.124768 -2.404446 -1.821715 0
M  V30 76 H -3.260133 -1.432329 -3.271696 0
M  V30 END ATOM
M  V30 BEGIN BOND
M  V30 1 1 1 2
M  V30 2 2 2 3
M  V30 3 1 3 4
M  V30 4 2 4 5
M  V30 5 1 5 6
M  V30 6 2 6 7
M  V30 7 1 6 8
M  V30 8 1 8 9
M  V30 9 1 9 10
M  V30 10 1 10 11
M  V30 11 1 5 12
M  V30 12 2 12 13
M  V30 13 1 13 14
M  V30 14 1 14 15
M  V30 15 2 15 16
M  V30 16 1 16 17
M  V30 17 2 17 18
M  V30 18 1 18 19
M  V30 19 1 19 20
M  V30 20 1 20 21
M  V30 21 2 21 22
M  V30 22 1 22 23
M  V30 23 2 23 24
M  V30 24 1 24 25
M  V30 25 2 25 26
M  V30 26 1 20 27
M  V30 27 1 27 28
M  V30 28 1 27 29
M  V30 29 1 29 30
M  V30 30 1 30 31
M  V30 31 1 31 32
M  V30 32 1 32 33
M  V30 33 1 33 34
M  V30 34 1 33 35
M  V30 35 1 35 36
M  V30 36 1 18 37
M  V30 37 2 37 38
M  V30 38 1 13 2
M  V30 39 1 37 14
M  V30 40 1 11 9
M  V30 41 1 26 21
M  V30 42 1 36 30
M  V30 43 1 1 39
M  V30 44 1 1 40
M  V30 45 1 1 41
M  V30 46 1 3 42
M  V30 47 1 4 43
M  V30 48 1 8 44
M  V30 49 1 9 45
M  V30 50 1 10 46
M  V30 51 1 10 47
M  V30 52 1 11 48
M  V30 53 1 11 49
M  V30 54 1 12 50
M  V30 55 1 15 51
M  V30 56 1 16 52
M  V30 57 1 19 53
M  V30 58 1 20 54 CFG=3
M  V30 59 1 22 55
M  V30 60 1 23 56
M  V30 61 1 24 57
M  V30 62 1 25 58
M  V30 63 1 26 59
M  V30 64 1 27 60 CFG=3
M  V30 65 1 28 61
M  V30 66 1 28 62
M  V30 67 1 28 63
M  V30 68 1 29 64
M  V30 69 1 29 65
M  V30 70 1 31 66
M  V30 71 1 31 67
M  V30 72 1 32 68
M  V30 73 1 32 69
M  V30 74 1 34 70
M  V30 75 1 34 71
M  V30 76 1 34 72
M  V30 77 1 35 73
M  V30 78 1 35 74
M  V30 79 1 36 75
M  V30 80 1 36 76
M  V30 END BOND
M  V30 END CTAB
M  END
>  <Dataset>  (533) 
ChEMBL_Kinases

>  <Ligand_Instance>  (533) 
nan

>  <PDB_ID>  (533) 
nan

>  <Standardized_SMILES>  (533) 
Cc1ccc(C(=O)NC2CC2)cc1-n1ccnc(N[C@@H](c2ccccc2)[C@@H](C)CN2CCN(C)CC2)c1=O

>  <Name>  (533) 
nan

>  <Pocket>  (533) 
nan

>  <ATP_Site>  (533) 
nan

>  <Peripheral>  (533) 
nan

>  <Num_H_Atoms_ProtBoundConf>  (533) 
nan

>  <Num_Resolved_Atoms>  (533) 
nan

>  <Num_Not_Resolved_Atoms>  (533) 
nan

$$$$
CHEMBL4287412
     RDKit          3D

  0  0  0  0  0  0  0  0  0  0999 V3000
M  V30 BEGIN CTAB
M  V30 COUNTS 49 52 0 0 0
M  V30 BEGIN ATOM
M  V30 1 C 2.776973 -5.616496 0.757000 0
M  V30 2 C 2.454050 -5.226207 -0.676546 0
M  V30 3 C 2.453737 -3.744001 -0.796697 0
M  V30 4 C 3.644364 -3.093159 -1.126054 0
M  V30 5 C 3.729335 -1.705665 -1.257828 0
M  V30 6 C 2.572427 -0.982186 -1.047404 0
M  V30 7 C 1.387838 -1.632233 -0.719634 0
M  V30 8 C 0.185733 -0.820715 -0.505795 0
M  V30 9 N -0.978938 -0.828002 -1.191056 0
M  V30 10 N -1.817178 0.058669 -0.681298 0
M  V30 11 C -1.233470 0.686296 0.363913 0
M  V30 12 C 0.034394 0.137487 0.483842 0
M  V30 13 C 0.974060 0.553528 1.497534 0
M  V30 14 C 1.504116 1.833400 1.648691 0
M  V30 15 C 2.390048 2.124786 2.644857 0
M  V30 16 N 2.763103 1.148789 3.506797 0
M  V30 17 C 2.276355 -0.101224 3.398088 0
M  V30 18 Cl 2.843945 -1.256031 4.576123 0
M  V30 19 C 1.380953 -0.420101 2.400769 0
M  V30 20 C -2.205228 1.673413 0.908410 0
M  V30 21 C -2.039937 1.858701 2.394570 0
M  V30 22 C -3.500471 0.986829 0.552176 0
M  V30 23 C -3.601958 -0.271912 1.349330 0
M  V30 24 C -4.703691 1.852219 0.650003 0
M  V30 25 C -3.169888 0.577998 -0.883564 0
M  V30 26 N 1.355807 -2.975038 -0.603763 0
M  V30 27 H 3.071023 -6.668548 0.853980 0
M  V30 28 H 3.587985 -4.921145 1.070724 0
M  V30 29 H 1.903919 -5.385452 1.414061 0
M  V30 30 H 1.404566 -5.552233 -0.857476 0
M  V30 31 H 3.095243 -5.718163 -1.404258 0
M  V30 32 H 4.553475 -3.692703 -1.289172 0
M  V30 33 H 4.693583 -1.289072 -1.515259 0
M  V30 34 H 2.670249 0.091374 -1.157437 0
M  V30 35 H 1.135936 2.541225 0.900590 0
M  V30 36 H 2.735944 3.138970 2.671971 0
M  V30 37 H 1.061440 -1.462508 2.419599 0
M  V30 38 H -2.032204 2.616895 0.395242 0
M  V30 39 H -2.925273 2.385939 2.795208 0
M  V30 40 H -1.164938 2.541637 2.534332 0
M  V30 41 H -1.790765 0.922220 2.919864 0
M  V30 42 H -4.255170 -0.092913 2.235682 0
M  V30 43 H -3.976551 -1.126577 0.734359 0
M  V30 44 H -2.596882 -0.589205 1.713293 0
M  V30 45 H -5.330624 1.683282 -0.265226 0
M  V30 46 H -5.316264 1.470464 1.508162 0
M  V30 47 H -4.475941 2.917203 0.724168 0
M  V30 48 H -3.062082 1.446341 -1.549651 0
M  V30 49 H -3.870248 -0.183629 -1.249620 0
M  V30 END ATOM
M  V30 BEGIN BOND
M  V30 1 1 1 2
M  V30 2 1 2 3
M  V30 3 2 3 4
M  V30 4 1 4 5
M  V30 5 2 5 6
M  V30 6 1 6 7
M  V30 7 1 7 8
M  V30 8 2 8 9
M  V30 9 1 9 10
M  V30 10 1 10 11
M  V30 11 2 11 12
M  V30 12 1 12 13
M  V30 13 2 13 14
M  V30 14 1 14 15
M  V30 15 2 15 16
M  V30 16 1 16 17
M  V30 17 1 17 18
M  V30 18 2 17 19
M  V30 19 1 11 20
M  V30 20 1 20 21
M  V30 21 1 20 22
M  V30 22 1 22 23
M  V30 23 1 22 24
M  V30 24 1 22 25
M  V30 25 2 7 26
M  V30 26 1 26 3
M  V30 27 1 12 8
M  V30 28 1 19 13
M  V30 29 1 25 10
M  V30 30 1 1 27
M  V30 31 1 1 28
M  V30 32 1 1 29
M  V30 33 1 2 30
M  V30 34 1 2 31
M  V30 35 1 4 32
M  V30 36 1 5 33
M  V30 37 1 6 34
M  V30 38 1 14 35
M  V30 39 1 15 36
M  V30 40 1 19 37
M  V30 41 1 20 38
M  V30 42 1 21 39
M  V30 43 1 21 40
M  V30 44 1 21 41
M  V30 45 1 23 42
M  V30 46 1 23 43
M  V30 47 1 23 44
M  V30 48 1 24 45
M  V30 49 1 24 46
M  V30 50 1 24 47
M  V30 51 1 25 48
M  V30 52 1 25 49
M  V30 END BOND
M  V30 END CTAB
M  END
>  <Dataset>  (534) 
ChEMBL_Kinases

>  <Ligand_Instance>  (534) 
nan

>  <PDB_ID>  (534) 
nan

>  <Standardized_SMILES>  (534) 
CCc1cccc(-c2nn3c(c2-c2ccnc(Cl)c2)C(C)C(C)(C)C3)n1

>  <Name>  (534) 
nan

>  <Pocket>  (534) 
nan

>  <ATP_Site>  (534) 
nan

>  <Peripheral>  (534) 
nan

>  <Num_H_Atoms_ProtBoundConf>  (534) 
nan

>  <Num_Resolved_Atoms>  (534) 
nan

>  <Num_Not_Resolved_Atoms>  (534) 
nan

$$$$
CHEMBL4287399
     RDKit          3D

  0  0  0  0  0  0  0  0  0  0999 V3000
M  V30 BEGIN CTAB
M  V30 COUNTS 42 44 0 0 0
M  V30 BEGIN ATOM
M  V30 1 C -1.775361 -3.320651 3.145097 0
M  V30 2 C -0.891070 -2.393017 2.386500 0
M  V30 3 N 0.433362 -2.494258 2.264107 0
M  V30 4 N 0.920801 -1.517026 1.528851 0
M  V30 5 C 2.306266 -1.407726 1.275967 0
M  V30 6 O 3.060855 -2.278492 1.830430 0
M  V30 7 C 3.049085 -0.449367 0.472480 0
M  V30 8 C 2.802933 -0.672702 -0.988463 0
M  V30 9 C 3.242972 0.628933 -1.674925 0
M  V30 10 C 4.769491 0.582665 -1.608899 0
M  V30 11 C 5.177882 0.592576 -0.176790 0
M  V30 12 C 4.544579 -0.483542 0.670757 0
M  V30 13 C -0.139317 -0.770905 1.175044 0
M  V30 14 N -0.085600 0.390519 0.395325 0
M  V30 15 C -1.315463 -1.268142 1.682749 0
M  V30 16 C -2.669312 -0.774587 1.542317 0
M  V30 17 C -3.434735 -1.227618 0.478484 0
M  V30 18 C -4.742529 -0.819944 0.249946 0
M  V30 19 C -5.257868 0.083209 1.158383 0
M  V30 20 Cl -6.906946 0.614760 0.893720 0
M  V30 21 C -4.533147 0.569523 2.242800 0
M  V30 22 Cl -5.259784 1.724327 3.364144 0
M  V30 23 C -3.226551 0.130297 2.428194 0
M  V30 24 H -1.410231 -3.380990 4.197651 0
M  V30 25 H -2.808049 -2.917489 3.155198 0
M  V30 26 H -1.781418 -4.336417 2.711152 0
M  V30 27 H 2.737557 0.594713 0.740996 0
M  V30 28 H 1.759196 -0.819285 -1.201947 0
M  V30 29 H 3.458373 -1.508493 -1.329203 0
M  V30 30 H 2.850022 1.478434 -1.080707 0
M  V30 31 H 2.866562 0.655621 -2.696419 0
M  V30 32 H 5.055447 -0.333262 -2.153272 0
M  V30 33 H 5.109816 1.504002 -2.084520 0
M  V30 34 H 5.000323 1.597179 0.237536 0
M  V30 35 H 6.293331 0.427797 -0.162077 0
M  V30 36 H 4.801311 -0.210608 1.731836 0
M  V30 37 H 4.983376 -1.462515 0.468624 0
M  V30 38 H -0.184045 1.328823 0.875789 0
M  V30 39 H 0.020207 0.796020 -0.558390 0
M  V30 40 H -3.006795 -1.947074 -0.234838 0
M  V30 41 H -5.318638 -1.190069 -0.589958 0
M  V30 42 H -2.631998 0.492236 3.268044 0
M  V30 END ATOM
M  V30 BEGIN BOND
M  V30 1 1 1 2
M  V30 2 2 2 3
M  V30 3 1 3 4
M  V30 4 1 4 5
M  V30 5 2 5 6
M  V30 6 1 5 7
M  V30 7 1 7 8
M  V30 8 1 8 9
M  V30 9 1 9 10
M  V30 10 1 10 11
M  V30 11 1 11 12
M  V30 12 1 4 13
M  V30 13 1 13 14
M  V30 14 2 13 15
M  V30 15 1 15 16
M  V30 16 2 16 17
M  V30 17 1 17 18
M  V30 18 2 18 19
M  V30 19 1 19 20
M  V30 20 1 19 21
M  V30 21 1 21 22
M  V30 22 2 21 23
M  V30 23 1 15 2
M  V30 24 1 23 16
M  V30 25 1 12 7
M  V30 26 1 1 24
M  V30 27 1 1 25
M  V30 28 1 1 26
M  V30 29 1 7 27
M  V30 30 1 8 28
M  V30 31 1 8 29
M  V30 32 1 9 30
M  V30 33 1 9 31
M  V30 34 1 10 32
M  V30 35 1 10 33
M  V30 36 1 11 34
M  V30 37 1 11 35
M  V30 38 1 12 36
M  V30 39 1 12 37
M  V30 40 1 14 38
M  V30 41 1 14 39
M  V30 42 1 17 40
M  V30 43 1 18 41
M  V30 44 1 23 42
M  V30 END BOND
M  V30 END CTAB
M  END
>  <Dataset>  (535) 
ChEMBL_Kinases

>  <Ligand_Instance>  (535) 
nan

>  <PDB_ID>  (535) 
nan

>  <Standardized_SMILES>  (535) 
Cc1nn(C(=O)C2CCCCC2)c(N)c1-c1ccc(Cl)c(Cl)c1

>  <Name>  (535) 
nan

>  <Pocket>  (535) 
nan

>  <ATP_Site>  (535) 
nan

>  <Peripheral>  (535) 
nan

>  <Num_H_Atoms_ProtBoundConf>  (535) 
nan

>  <Num_Resolved_Atoms>  (535) 
nan

>  <Num_Not_Resolved_Atoms>  (535) 
nan

$$$$
CHEMBL4287304
     RDKit          3D

  0  0  0  0  0  0  0  0  0  0999 V3000
M  V30 BEGIN CTAB
M  V30 COUNTS 43 46 0 0 0
M  V30 BEGIN ATOM
M  V30 1 N -0.564102 -7.262654 2.286966 0
M  V30 2 C -0.680373 -5.890619 1.867527 0
M  V30 3 N 0.330861 -5.010526 2.106222 0
M  V30 4 C 0.262494 -3.713640 1.729177 0
M  V30 5 O 1.263402 -2.895232 1.979489 0
M  V30 6 C 1.234827 -1.629530 1.629402 0
M  V30 7 C 2.270136 -0.742327 1.877567 0
M  V30 8 C 2.211462 0.584352 1.497221 0
M  V30 9 C 1.096722 1.083831 0.843041 0
M  V30 10 C 0.907920 2.475636 0.384622 0
M  V30 11 C 1.931252 2.705582 -0.724324 0
M  V30 12 C 1.698760 4.120294 -1.205820 0
M  V30 13 C 2.130594 5.109503 -0.172261 0
M  V30 14 C 2.334745 4.407961 1.153830 0
M  V30 15 C 1.126437 3.510101 1.415409 0
M  V30 16 C 0.089826 0.150999 0.620307 0
M  V30 17 C 0.102014 -1.181021 0.980332 0
M  V30 18 C -0.986191 -1.978267 0.683545 0
M  V30 19 O -1.990586 -1.500781 0.086796 0
M  V30 20 C -0.897294 -3.313061 1.080242 0
M  V30 21 C -1.952315 -4.155213 0.810989 0
M  V30 22 C -1.821069 -5.465443 1.221006 0
M  V30 23 C -2.905033 -6.405227 0.964126 0
M  V30 24 O -2.832399 -7.605778 1.317419 0
M  V30 25 O -4.058459 -5.997398 0.316348 0
M  V30 26 H -1.196019 -7.600634 3.049876 0
M  V30 27 H -0.029886 -8.127668 2.091192 0
M  V30 28 H 3.160135 -1.116534 2.393338 0
M  V30 29 H 3.009789 1.286765 1.683611 0
M  V30 30 H -0.079017 2.589207 -0.106721 0
M  V30 31 H 2.966683 2.644068 -0.352234 0
M  V30 32 H 1.780780 1.991726 -1.559618 0
M  V30 33 H 0.639826 4.239375 -1.515138 0
M  V30 34 H 2.287055 4.262977 -2.142170 0
M  V30 35 H 1.341177 5.887490 -0.075645 0
M  V30 36 H 3.093293 5.580616 -0.499606 0
M  V30 37 H 3.290894 3.894746 1.226223 0
M  V30 38 H 2.275998 5.222038 1.927811 0
M  V30 39 H 0.267810 4.215030 1.402028 0
M  V30 40 H 1.140308 3.127751 2.459563 0
M  V30 41 H -0.811274 0.511002 0.103190 0
M  V30 42 H -2.827555 -3.781148 0.302217 0
M  V30 43 H -4.638663 -6.607727 -0.248307 0
M  V30 END ATOM
M  V30 BEGIN BOND
M  V30 1 1 1 2
M  V30 2 2 2 3
M  V30 3 1 3 4
M  V30 4 1 4 5
M  V30 5 1 5 6
M  V30 6 2 6 7
M  V30 7 1 7 8
M  V30 8 2 8 9
M  V30 9 1 9 10
M  V30 10 1 10 11
M  V30 11 1 11 12
M  V30 12 1 12 13
M  V30 13 1 13 14
M  V30 14 1 14 15
M  V30 15 1 9 16
M  V30 16 2 16 17
M  V30 17 1 17 18
M  V30 18 2 18 19
M  V30 19 1 18 20
M  V30 20 1 20 21
M  V30 21 2 21 22
M  V30 22 1 22 23
M  V30 23 2 23 24
M  V30 24 1 23 25
M  V30 25 1 22 2
M  V30 26 2 20 4
M  V30 27 1 17 6
M  V30 28 1 15 10
M  V30 29 1 1 26
M  V30 30 1 1 27
M  V30 31 1 7 28
M  V30 32 1 8 29
M  V30 33 1 10 30
M  V30 34 1 11 31
M  V30 35 1 11 32
M  V30 36 1 12 33
M  V30 37 1 12 34
M  V30 38 1 13 35
M  V30 39 1 13 36
M  V30 40 1 14 37
M  V30 41 1 14 38
M  V30 42 1 15 39
M  V30 43 1 15 40
M  V30 44 1 16 41
M  V30 45 1 21 42
M  V30 46 1 25 43
M  V30 END BOND
M  V30 END CTAB
M  END
>  <Dataset>  (536) 
ChEMBL_Kinases

>  <Ligand_Instance>  (536) 
nan

>  <PDB_ID>  (536) 
nan

>  <Standardized_SMILES>  (536) 
Nc1nc2oc3ccc(C4CCCCC4)cc3c(=O)c2cc1C(=O)O

>  <Name>  (536) 
nan

>  <Pocket>  (536) 
nan

>  <ATP_Site>  (536) 
nan

>  <Peripheral>  (536) 
nan

>  <Num_H_Atoms_ProtBoundConf>  (536) 
nan

>  <Num_Resolved_Atoms>  (536) 
nan

>  <Num_Not_Resolved_Atoms>  (536) 
nan

$$$$
CHEMBL4287302
     RDKit          3D

  0  0  0  0  0  0  0  0  0  0999 V3000
M  V30 BEGIN CTAB
M  V30 COUNTS 54 58 0 0 0
M  V30 BEGIN ATOM
M  V30 1 N 2.325563 -2.570472 5.630653 0
M  V30 2 C 2.407463 -1.765455 4.797116 0
M  V30 3 C 2.503713 -0.763890 3.763852 0
M  V30 4 C 3.708426 -0.131390 3.634182 0
M  V30 5 N 3.790520 0.787962 2.683910 0
M  V30 6 C 2.767484 1.117299 1.863273 0
M  V30 7 N 3.043671 2.123174 0.887165 0
M  V30 8 C 2.136777 2.702073 -0.027783 0
M  V30 9 C 0.768106 2.587200 -0.014826 0
M  V30 10 C -0.099956 3.137535 -0.923955 0
M  V30 11 C 0.411086 3.881751 -1.959837 0
M  V30 12 C 1.799020 4.040400 -2.034002 0
M  V30 13 Br 2.561899 5.069739 -3.454746 0
M  V30 14 C 2.615183 3.464256 -1.093496 0
M  V30 15 N 1.601321 0.494196 2.000653 0
M  V30 16 C 1.433983 -0.444672 2.932747 0
M  V30 17 N 0.197101 -1.145957 3.151589 0
M  V30 18 C -1.085565 -1.140623 2.549370 0
M  V30 19 C -1.238357 -1.798130 1.225123 0 CFG=2
M  V30 20 C -0.357631 -1.172536 0.197380 0
M  V30 21 C -0.676032 -1.729350 -1.191558 0 CFG=2
M  V30 22 C -2.115370 -1.542711 -1.534831 0
M  V30 23 C -2.965140 -2.244059 -0.509021 0 CFG=2
M  V30 24 C -2.715206 -1.609456 0.840317 0
M  V30 25 C -2.678410 -3.703867 -0.357165 0 CFG=1
M  V30 26 N -3.191360 -4.474031 -1.441825 0
M  V30 27 C -1.200731 -3.870328 -0.098727 0 CFG=1
M  V30 28 C -0.396559 -3.220083 -1.175382 0
M  V30 29 C -0.908083 -3.275286 1.255195 0
M  V30 30 H 4.536511 -0.382017 4.282134 0
M  V30 31 H 4.034175 2.499463 0.818691 0
M  V30 32 H 0.318142 2.029680 0.772629 0
M  V30 33 H -1.174006 2.999524 -0.844125 0
M  V30 34 H -0.172572 4.353620 -2.721383 0
M  V30 35 H 3.676012 3.623543 -1.206949 0
M  V30 36 H 0.203635 -1.853683 3.947200 0
M  V30 37 H -1.870601 -1.558155 3.215508 0
M  V30 38 H -1.439332 -0.063368 2.401932 0
M  V30 39 H -0.496733 -0.097244 0.166534 0
M  V30 40 H 0.686852 -1.516107 0.388978 0
M  V30 41 H 0.005259 -1.247605 -1.909964 0
M  V30 42 H -2.332378 -1.956852 -2.518358 0
M  V30 43 H -2.362158 -0.465875 -1.467963 0
M  V30 44 H -4.054222 -2.060839 -0.735767 0
M  V30 45 H -3.329655 -2.147836 1.582488 0
M  V30 46 H -2.891192 -0.514745 0.807017 0
M  V30 47 H -3.182019 -4.032653 0.589600 0
M  V30 48 H -4.033255 -3.995913 -1.830400 0
M  V30 49 H -2.504836 -4.809376 -2.123532 0
M  V30 50 H -0.966526 -4.958018 -0.050017 0
M  V30 51 H 0.679718 -3.419577 -1.039308 0
M  V30 52 H -0.717502 -3.596637 -2.163575 0
M  V30 53 H -1.377092 -3.832710 2.063913 0
M  V30 54 H 0.211816 -3.323361 1.388049 0
M  V30 END ATOM
M  V30 BEGIN BOND
M  V30 1 3 1 2
M  V30 2 1 2 3
M  V30 3 2 3 4
M  V30 4 1 4 5
M  V30 5 2 5 6
M  V30 6 1 6 7
M  V30 7 1 7 8
M  V30 8 2 8 9
M  V30 9 1 9 10
M  V30 10 2 10 11
M  V30 11 1 11 12
M  V30 12 1 12 13
M  V30 13 2 12 14
M  V30 14 1 6 15
M  V30 15 2 15 16
M  V30 16 1 16 17
M  V30 17 1 17 18
M  V30 18 1 19 18 CFG=1
M  V30 19 1 19 20
M  V30 20 1 20 21
M  V30 21 1 21 22
M  V30 22 1 22 23
M  V30 23 1 23 24
M  V30 24 1 23 25
M  V30 25 1 25 26
M  V30 26 1 25 27
M  V30 27 1 27 28
M  V30 28 1 27 29
M  V30 29 1 16 3
M  V30 30 1 24 19
M  V30 31 1 14 8
M  V30 32 1 29 19
M  V30 33 1 28 21
M  V30 34 1 4 30
M  V30 35 1 7 31
M  V30 36 1 9 32
M  V30 37 1 10 33
M  V30 38 1 11 34
M  V30 39 1 14 35
M  V30 40 1 17 36
M  V30 41 1 18 37
M  V30 42 1 18 38
M  V30 43 1 20 39
M  V30 44 1 20 40
M  V30 45 1 21 41 CFG=3
M  V30 46 1 22 42
M  V30 47 1 22 43
M  V30 48 1 23 44 CFG=3
M  V30 49 1 24 45
M  V30 50 1 24 46
M  V30 51 1 25 47 CFG=1
M  V30 52 1 26 48
M  V30 53 1 26 49
M  V30 54 1 27 50 CFG=1
M  V30 55 1 28 51
M  V30 56 1 28 52
M  V30 57 1 29 53
M  V30 58 1 29 54
M  V30 END BOND
M  V30 END CTAB
M  END
>  <Dataset>  (537) 
ChEMBL_Kinases

>  <Ligand_Instance>  (537) 
nan

>  <PDB_ID>  (537) 
nan

>  <Standardized_SMILES>  (537) 
N#Cc1cnc(Nc2cccc(Br)c2)nc1NC[C@]12C[C@@H]3C[C@H](C1)[C@@H](N)[C@@H](C3)C2

>  <Name>  (537) 
nan

>  <Pocket>  (537) 
nan

>  <ATP_Site>  (537) 
nan

>  <Peripheral>  (537) 
nan

>  <Num_H_Atoms_ProtBoundConf>  (537) 
nan

>  <Num_Resolved_Atoms>  (537) 
nan

>  <Num_Not_Resolved_Atoms>  (537) 
nan

$$$$
CHEMBL4287264
     RDKit          3D

  0  0  0  0  0  0  0  0  0  0999 V3000
M  V30 BEGIN CTAB
M  V30 COUNTS 34 37 0 0 0
M  V30 BEGIN ATOM
M  V30 1 O -1.923016 -0.557962 0.631385 0
M  V30 2 C -1.990557 -1.653392 -0.023916 0
M  V30 3 N -0.685470 -2.198074 -0.247605 0
M  V30 4 C 0.275260 -1.301777 0.357657 0
M  V30 5 C 0.592524 -1.564377 1.678477 0
M  V30 6 C 1.518399 -0.723907 2.308591 0
M  V30 7 Cl 1.973188 -0.988770 3.978020 0
M  V30 8 C 2.053308 0.311571 1.569104 0
M  V30 9 C 1.730755 0.570954 0.241500 0
M  V30 10 C 0.808352 -0.265320 -0.388341 0
M  V30 11 N 2.413323 1.643767 -0.203398 0
M  V30 12 C 3.191810 2.111573 0.805791 0
M  V30 13 C 4.063479 3.190627 0.821583 0
M  V30 14 N 4.727766 3.446707 1.969931 0
M  V30 15 C 4.550460 2.675896 3.073076 0
M  V30 16 C 3.681973 1.602025 3.054844 0
M  V30 17 C 2.980892 1.301483 1.903647 0
M  V30 18 C -3.232362 -2.273880 -0.486935 0
M  V30 19 C -3.370791 -3.447983 -1.194337 0
M  V30 20 C -4.624402 -3.896500 -1.556196 0
M  V30 21 C -5.756408 -3.169074 -1.210847 0
M  V30 22 N -5.604334 -2.033996 -0.525567 0
M  V30 23 C -4.382837 -1.580522 -0.163213 0
M  V30 24 H -0.624598 -3.111417 -0.785025 0
M  V30 25 H 0.148380 -2.377835 2.199545 0
M  V30 26 H 0.506035 -0.132279 -1.411784 0
M  V30 27 H 2.309651 2.001347 -1.180356 0
M  V30 28 H 4.237979 3.834480 -0.033802 0
M  V30 29 H 5.123662 2.954287 3.948749 0
M  V30 30 H 3.562274 1.006523 3.950351 0
M  V30 31 H -2.431072 -3.947629 -1.419170 0
M  V30 32 H -4.694653 -4.812024 -2.104920 0
M  V30 33 H -6.751598 -3.523598 -1.497204 0
M  V30 34 H -4.378978 -0.634409 0.398610 0
M  V30 END ATOM
M  V30 BEGIN BOND
M  V30 1 2 1 2
M  V30 2 1 2 3
M  V30 3 1 3 4
M  V30 4 2 4 5
M  V30 5 1 5 6
M  V30 6 1 6 7
M  V30 7 2 6 8
M  V30 8 1 8 9
M  V30 9 2 9 10
M  V30 10 1 9 11
M  V30 11 1 11 12
M  V30 12 2 12 13
M  V30 13 1 13 14
M  V30 14 2 14 15
M  V30 15 1 15 16
M  V30 16 2 16 17
M  V30 17 1 2 18
M  V30 18 2 18 19
M  V30 19 1 19 20
M  V30 20 2 20 21
M  V30 21 1 21 22
M  V30 22 2 22 23
M  V30 23 1 10 4
M  V30 24 1 17 12
M  V30 25 1 23 18
M  V30 26 1 17 8
M  V30 27 1 3 24
M  V30 28 1 5 25
M  V30 29 1 10 26
M  V30 30 1 11 27
M  V30 31 1 13 28
M  V30 32 1 15 29
M  V30 33 1 16 30
M  V30 34 1 19 31
M  V30 35 1 20 32
M  V30 36 1 21 33
M  V30 37 1 23 34
M  V30 END BOND
M  V30 END CTAB
M  END
>  <Dataset>  (538) 
ChEMBL_Kinases

>  <Ligand_Instance>  (538) 
nan

>  <PDB_ID>  (538) 
nan

>  <Standardized_SMILES>  (538) 
O=C(Nc1cc(Cl)c2c(c1)[nH]c1cnccc12)c1cccnc1

>  <Name>  (538) 
nan

>  <Pocket>  (538) 
nan

>  <ATP_Site>  (538) 
nan

>  <Peripheral>  (538) 
nan

>  <Num_H_Atoms_ProtBoundConf>  (538) 
nan

>  <Num_Resolved_Atoms>  (538) 
nan

>  <Num_Not_Resolved_Atoms>  (538) 
nan

$$$$
CHEMBL4757872
     RDKit          3D

  0  0  0  0  0  0  0  0  0  0999 V3000
M  V30 BEGIN CTAB
M  V30 COUNTS 56 60 0 0 0
M  V30 BEGIN ATOM
M  V30 1 O -4.057204 0.454701 0.449156 0
M  V30 2 S -3.937052 -1.046685 0.478382 0
M  V30 3 O -5.206839 -1.675714 0.992986 0
M  V30 4 N -2.658343 -1.455925 1.552634 0
M  V30 5 C -2.459973 -2.871263 1.652723 0
M  V30 6 C -1.402680 -3.336789 2.569740 0
M  V30 7 C -0.000400 -2.940176 2.351373 0
M  V30 8 N 0.313279 -1.551135 2.323936 0
M  V30 9 C 0.298484 -0.801053 1.122376 0
M  V30 10 N 0.100780 -1.561999 0.004455 0
M  V30 11 C 0.098927 -0.901735 -1.176899 0
M  V30 12 C 0.283528 0.461600 -1.267842 0
M  V30 13 C 0.479756 1.192282 -0.108691 0
M  V30 14 C 0.669413 2.619637 -0.307273 0
M  V30 15 C 1.760204 3.026213 -1.042367 0
M  V30 16 C 2.806351 2.255581 -1.695260 0
M  V30 17 C 2.903289 2.414385 -3.062412 0
M  V30 18 C 3.851741 1.734007 -3.808836 0
M  V30 19 C 4.732201 0.867571 -3.171856 0
M  V30 20 C 4.638894 0.707616 -1.815254 0
M  V30 21 F 5.448033 -0.110483 -1.108730 0
M  V30 22 C 3.687953 1.390603 -1.073562 0
M  V30 23 N 1.762231 4.347682 -1.110910 0
M  V30 24 C 0.666940 4.806838 -0.416640 0
M  V30 25 S -0.351930 6.229094 0.177068 0
M  V30 26 C -1.609060 5.135116 1.056042 0
M  V30 27 C -1.108822 3.870838 0.793689 0
M  V30 28 N 0.000028 3.715162 0.075484 0
M  V30 29 N 0.481186 0.529473 1.066658 0
M  V30 30 C -3.600873 -1.585505 -1.129715 0
M  V30 31 C -3.094769 -0.709062 -2.090483 0
M  V30 32 C -2.775872 -0.987466 -3.410634 0
M  V30 33 C -2.995427 -2.304672 -3.801257 0
M  V30 34 Br -2.572757 -2.731977 -5.608811 0
M  V30 35 C -3.493613 -3.233189 -2.912145 0
M  V30 36 C -3.786717 -2.872834 -1.607410 0
M  V30 37 H -2.719354 -0.946254 2.459570 0
M  V30 38 H -2.310812 -3.236336 0.608732 0
M  V30 39 H -3.467648 -3.294333 1.950775 0
M  V30 40 H -1.722828 -3.163851 3.651132 0
M  V30 41 H -1.408669 -4.479065 2.504743 0
M  V30 42 H 0.604671 -3.383074 3.201670 0
M  V30 43 H 0.406293 -3.485203 1.459431 0
M  V30 44 H 0.565739 -1.028582 3.175018 0
M  V30 45 H -0.057257 -1.503208 -2.080032 0
M  V30 46 H 0.258544 0.860830 -2.295907 0
M  V30 47 H 2.283285 3.059811 -3.703963 0
M  V30 48 H 4.007079 1.790525 -4.881265 0
M  V30 49 H 5.522136 0.275981 -3.651659 0
M  V30 50 H 3.582603 1.290262 -0.000546 0
M  V30 51 H -2.364352 5.650764 1.523991 0
M  V30 52 H -1.768781 3.164453 1.263756 0
M  V30 53 H -2.939817 0.308474 -1.737462 0
M  V30 54 H -2.389419 -0.175019 -4.018692 0
M  V30 55 H -3.650720 -4.262910 -3.269448 0
M  V30 56 H -4.182899 -3.604733 -0.892954 0
M  V30 END ATOM
M  V30 BEGIN BOND
M  V30 1 2 1 2
M  V30 2 2 2 3
M  V30 3 1 2 4
M  V30 4 1 4 5
M  V30 5 1 5 6
M  V30 6 1 6 7
M  V30 7 1 7 8
M  V30 8 1 8 9
M  V30 9 2 9 10
M  V30 10 1 10 11
M  V30 11 2 11 12
M  V30 12 1 12 13
M  V30 13 1 13 14
M  V30 14 2 14 15
M  V30 15 1 15 16
M  V30 16 2 16 17
M  V30 17 1 17 18
M  V30 18 2 18 19
M  V30 19 1 19 20
M  V30 20 1 20 21
M  V30 21 2 20 22
M  V30 22 1 15 23
M  V30 23 2 23 24
M  V30 24 1 24 25
M  V30 25 1 25 26
M  V30 26 2 26 27
M  V30 27 1 27 28
M  V30 28 2 13 29
M  V30 29 1 2 30
M  V30 30 2 30 31
M  V30 31 1 31 32
M  V30 32 2 32 33
M  V30 33 1 33 34
M  V30 34 1 33 35
M  V30 35 2 35 36
M  V30 36 1 29 9
M  V30 37 1 36 30
M  V30 38 1 28 14
M  V30 39 1 22 16
M  V30 40 1 28 24
M  V30 41 1 4 37
M  V30 42 1 5 38
M  V30 43 1 5 39
M  V30 44 1 6 40
M  V30 45 1 6 41
M  V30 46 1 7 42
M  V30 47 1 7 43
M  V30 48 1 8 44
M  V30 49 1 11 45
M  V30 50 1 12 46
M  V30 51 1 17 47
M  V30 52 1 18 48
M  V30 53 1 19 49
M  V30 54 1 22 50
M  V30 55 1 26 51
M  V30 56 1 27 52
M  V30 57 1 31 53
M  V30 58 1 32 54
M  V30 59 1 35 55
M  V30 60 1 36 56
M  V30 END BOND
M  V30 END CTAB
M  END
>  <Dataset>  (539) 
ChEMBL_Kinases

>  <Ligand_Instance>  (539) 
nan

>  <PDB_ID>  (539) 
nan

>  <Standardized_SMILES>  (539) 
O=S(=O)(NCCCNc1nccc(-c2c(-c3cccc(F)c3)nc3sccn23)n1)c1ccc(Br)cc1

>  <Name>  (539) 
nan

>  <Pocket>  (539) 
nan

>  <ATP_Site>  (539) 
nan

>  <Peripheral>  (539) 
nan

>  <Num_H_Atoms_ProtBoundConf>  (539) 
nan

>  <Num_Resolved_Atoms>  (539) 
nan

>  <Num_Not_Resolved_Atoms>  (539) 
nan

$$$$
CHEMBL4287261
     RDKit          3D

  0  0  0  0  0  0  0  0  0  0999 V3000
M  V30 BEGIN CTAB
M  V30 COUNTS 45 48 0 0 0
M  V30 BEGIN ATOM
M  V30 1 C -1.511568 -2.755869 -0.320852 0
M  V30 2 C -1.852471 -1.942344 0.906362 0
M  V30 3 C -0.804826 -0.921243 1.197853 0
M  V30 4 C 0.069262 -0.058556 0.561465 0
M  V30 5 C 0.288433 0.172910 -0.843849 0
M  V30 6 C 1.503251 -0.101042 -1.386454 0
M  V30 7 C 1.886873 0.061074 -2.714991 0
M  V30 8 N 0.906725 0.550843 -3.528113 0
M  V30 9 C -0.310607 0.836215 -3.035009 0
M  V30 10 C -0.675765 0.670660 -1.718039 0
M  V30 11 C 0.731244 0.576283 1.596130 0
M  V30 12 C 1.766410 1.590754 1.451028 0
M  V30 13 C 1.399371 2.777880 0.834649 0
M  V30 14 C 2.379813 3.747305 0.693444 0
M  V30 15 C 3.686477 3.622174 1.117110 0
M  V30 16 C 4.020537 2.421772 1.729918 0
M  V30 17 C 3.062754 1.417129 1.892731 0
M  V30 18 C 3.433176 0.183172 2.530152 0
M  V30 19 N 3.740323 -0.824077 3.030095 0
M  V30 20 N 0.264156 0.104927 2.783098 0
M  V30 21 N -0.674369 -0.810152 2.547973 0
M  V30 22 C -1.601610 -1.725208 3.210306 0
M  V30 23 C -1.700047 -2.813460 2.161061 0
M  V30 24 C -0.381709 -3.529813 2.026370 0
M  V30 25 C -2.854374 -3.747248 2.354768 0
M  V30 26 H -1.572558 -3.849770 -0.115434 0
M  V30 27 H -0.482532 -2.577394 -0.698447 0
M  V30 28 H -2.221875 -2.549019 -1.138051 0
M  V30 29 H -2.813338 -1.429770 0.857444 0
M  V30 30 H 2.292414 -0.492327 -0.746282 0
M  V30 31 H 2.881240 -0.184507 -3.059791 0
M  V30 32 H -1.073702 1.227402 -3.713862 0
M  V30 33 H -1.655443 0.900872 -1.323726 0
M  V30 34 H 0.396942 2.956984 0.473767 0
M  V30 35 H 2.075310 4.667455 0.209913 0
M  V30 36 H 4.375179 4.441191 0.958294 0
M  V30 37 H 5.030430 2.301963 2.067304 0
M  V30 38 H -2.555861 -1.184229 3.279446 0
M  V30 39 H -1.203407 -2.080142 4.178522 0
M  V30 40 H 0.287515 -3.198929 2.866024 0
M  V30 41 H -0.465815 -4.628976 2.051130 0
M  V30 42 H 0.185188 -3.254089 1.106715 0
M  V30 43 H -3.634499 -3.665640 1.581282 0
M  V30 44 H -2.467519 -4.782379 2.473736 0
M  V30 45 H -3.320296 -3.495787 3.334956 0
M  V30 END ATOM
M  V30 BEGIN BOND
M  V30 1 1 1 2
M  V30 2 1 2 3
M  V30 3 2 3 4
M  V30 4 1 4 5
M  V30 5 2 5 6
M  V30 6 1 6 7
M  V30 7 2 7 8
M  V30 8 1 8 9
M  V30 9 2 9 10
M  V30 10 1 4 11
M  V30 11 1 11 12
M  V30 12 2 12 13
M  V30 13 1 13 14
M  V30 14 2 14 15
M  V30 15 1 15 16
M  V30 16 2 16 17
M  V30 17 1 17 18
M  V30 18 3 18 19
M  V30 19 2 11 20
M  V30 20 1 20 21
M  V30 21 1 21 22
M  V30 22 1 22 23
M  V30 23 1 23 24
M  V30 24 1 23 25
M  V30 25 1 23 2
M  V30 26 1 21 3
M  V30 27 1 10 5
M  V30 28 1 17 12
M  V30 29 1 1 26
M  V30 30 1 1 27
M  V30 31 1 1 28
M  V30 32 1 2 29
M  V30 33 1 6 30
M  V30 34 1 7 31
M  V30 35 1 9 32
M  V30 36 1 10 33
M  V30 37 1 13 34
M  V30 38 1 14 35
M  V30 39 1 15 36
M  V30 40 1 16 37
M  V30 41 1 22 38
M  V30 42 1 22 39
M  V30 43 1 24 40
M  V30 44 1 24 41
M  V30 45 1 24 42
M  V30 46 1 25 43
M  V30 47 1 25 44
M  V30 48 1 25 45
M  V30 END BOND
M  V30 END CTAB
M  END
>  <Dataset>  (540) 
ChEMBL_Kinases

>  <Ligand_Instance>  (540) 
nan

>  <PDB_ID>  (540) 
nan

>  <Standardized_SMILES>  (540) 
CC1c2c(-c3ccncc3)c(-c3ccccc3C#N)nn2CC1(C)C

>  <Name>  (540) 
nan

>  <Pocket>  (540) 
nan

>  <ATP_Site>  (540) 
nan

>  <Peripheral>  (540) 
nan

>  <Num_H_Atoms_ProtBoundConf>  (540) 
nan

>  <Num_Resolved_Atoms>  (540) 
nan

>  <Num_Not_Resolved_Atoms>  (540) 
nan

$$$$
CHEMBL4287256
     RDKit          3D

  0  0  0  0  0  0  0  0  0  0999 V3000
M  V30 BEGIN CTAB
M  V30 COUNTS 28 29 0 0 0
M  V30 BEGIN ATOM
M  V30 1 O -1.818049 -0.799562 -0.086940 0
M  V30 2 C -1.558080 -1.676019 0.779376 0
M  V30 3 N -0.312077 -1.656283 1.432230 0
M  V30 4 C 0.560848 -0.585197 1.013012 0
M  V30 5 C 1.402749 -0.873623 -0.050287 0
M  V30 6 C 2.267125 0.109924 -0.503844 0
M  V30 7 C 3.194481 -0.144541 -1.643536 0
M  V30 8 F 3.300470 -1.507931 -1.888041 0
M  V30 9 F 2.671282 0.405372 -2.794895 0
M  V30 10 F 4.471402 0.301141 -1.365706 0
M  V30 11 C 2.279516 1.351152 0.101581 0
M  V30 12 C 1.426464 1.601129 1.157885 0
M  V30 13 C 1.388036 2.923505 1.859288 0
M  V30 14 F 0.079280 3.356873 1.994770 0
M  V30 15 F 2.102049 3.852079 1.162508 0
M  V30 16 F 1.907800 2.742299 3.145829 0
M  V30 17 C 0.538398 0.638058 1.647525 0
M  V30 18 C -2.589275 -2.670869 1.050380 0
M  V30 19 N -3.784354 -2.691544 0.425676 0
M  V30 20 O -4.500157 -3.685571 0.865387 0
M  V30 21 N -3.810248 -4.306831 1.751008 0
M  V30 22 C -2.605153 -3.732744 1.922254 0
M  V30 23 O -1.558826 -4.072404 2.765819 0
M  V30 24 H -0.078973 -2.371040 2.150054 0
M  V30 25 H 1.410130 -1.845893 -0.543180 0
M  V30 26 H 2.954676 2.139662 -0.242583 0
M  V30 27 H -0.125996 0.836701 2.472189 0
M  V30 28 H -1.007913 -4.890827 2.524849 0
M  V30 END ATOM
M  V30 BEGIN BOND
M  V30 1 2 1 2
M  V30 2 1 2 3
M  V30 3 1 3 4
M  V30 4 2 4 5
M  V30 5 1 5 6
M  V30 6 1 6 7
M  V30 7 1 7 8
M  V30 8 1 7 9
M  V30 9 1 7 10
M  V30 10 2 6 11
M  V30 11 1 11 12
M  V30 12 1 12 13
M  V30 13 1 13 14
M  V30 14 1 13 15
M  V30 15 1 13 16
M  V30 16 2 12 17
M  V30 17 1 2 18
M  V30 18 2 18 19
M  V30 19 1 19 20
M  V30 20 1 20 21
M  V30 21 2 21 22
M  V30 22 1 22 23
M  V30 23 1 17 4
M  V30 24 1 22 18
M  V30 25 1 3 24
M  V30 26 1 5 25
M  V30 27 1 11 26
M  V30 28 1 17 27
M  V30 29 1 23 28
M  V30 END BOND
M  V30 END CTAB
M  END
>  <Dataset>  (541) 
ChEMBL_Kinases

>  <Ligand_Instance>  (541) 
nan

>  <PDB_ID>  (541) 
nan

>  <Standardized_SMILES>  (541) 
O=C(Nc1cc(C(F)(F)F)cc(C(F)(F)F)c1)c1nonc1O

>  <Name>  (541) 
nan

>  <Pocket>  (541) 
nan

>  <ATP_Site>  (541) 
nan

>  <Peripheral>  (541) 
nan

>  <Num_H_Atoms_ProtBoundConf>  (541) 
nan

>  <Num_Resolved_Atoms>  (541) 
nan

>  <Num_Not_Resolved_Atoms>  (541) 
nan

$$$$
CHEMBL4287153
     RDKit          3D

  0  0  0  0  0  0  0  0  0  0999 V3000
M  V30 BEGIN CTAB
M  V30 COUNTS 60 64 0 0 0
M  V30 BEGIN ATOM
M  V30 1 C 2.612051 -4.863982 6.515730 0
M  V30 2 N 3.107479 -5.309735 5.205575 0
M  V30 3 C 3.037063 -4.512902 4.038323 0
M  V30 4 N 2.474396 -3.283797 4.207837 0
M  V30 5 C 2.370975 -2.451613 3.158631 0
M  V30 6 S 1.643234 -0.716983 3.017428 0
M  V30 7 C 2.035738 -0.641615 1.240208 0
M  V30 8 C 1.661219 0.525656 0.308176 0
M  V30 9 C 2.194372 0.769600 -0.910725 0
M  V30 10 C 1.682858 1.773491 -1.691213 0
M  V30 11 C 0.631446 2.477372 -1.160954 0
M  V30 12 C 0.051535 2.273202 0.068768 0
M  V30 13 C -1.217521 3.062321 0.404957 0 CFG=1
M  V30 14 C -0.990493 4.474400 0.726464 0
M  V30 15 N -2.116078 2.802127 -0.722181 0
M  V30 16 C -3.065260 1.730859 -0.693271 0
M  V30 17 O -3.017662 1.122485 0.416741 0
M  V30 18 C -3.963562 1.363597 -1.769279 0
M  V30 19 C -4.186860 2.230352 -2.801970 0
M  V30 20 C -5.017858 1.824020 -3.818374 0
M  V30 21 C -5.639804 0.588683 -3.850619 0
M  V30 22 C -5.354601 -0.213156 -2.769551 0
M  V30 23 C -4.527331 0.092859 -1.683362 0
M  V30 24 S -4.267741 -1.081340 -0.422220 0
M  V30 25 C -2.540655 -1.525169 -0.340358 0
M  V30 26 O -5.027005 -2.343181 -0.812436 0
M  V30 27 O -4.807471 -0.643755 0.915146 0
M  V30 28 C 0.602676 1.259581 0.814655 0
M  V30 29 N 2.559755 -1.687845 0.968783 0
M  V30 30 C 2.775892 -2.664430 1.845734 0
M  V30 31 C 3.342688 -3.913487 1.687019 0
M  V30 32 C 3.452466 -4.772198 2.755828 0
M  V30 33 N 4.022288 -5.933181 2.347810 0
M  V30 34 C 4.291514 -5.868622 1.043539 0
M  V30 35 N 3.874324 -4.635147 0.650852 0
M  V30 36 C 3.971559 -4.157411 -0.704570 0
M  V30 37 H 1.977090 -5.594666 7.013025 0
M  V30 38 H 2.027208 -3.929057 6.357492 0
M  V30 39 H 3.518794 -4.558553 7.105781 0
M  V30 40 H 3.542942 -6.201634 4.971297 0
M  V30 41 H 3.011108 0.108267 -1.151016 0
M  V30 42 H 2.164794 1.902564 -2.643464 0
M  V30 43 H 0.264801 3.271510 -1.834085 0
M  V30 44 H -1.610216 2.506497 1.276745 0
M  V30 45 H -1.865397 4.817545 1.361894 0
M  V30 46 H -0.105172 4.563424 1.401606 0
M  V30 47 H -0.870590 5.141236 -0.153402 0
M  V30 48 H -2.086158 3.399474 -1.596692 0
M  V30 49 H -3.730431 3.189590 -2.818526 0
M  V30 50 H -5.175577 2.532506 -4.634600 0
M  V30 51 H -6.280526 0.264114 -4.630514 0
M  V30 52 H -5.835853 -1.193060 -2.779802 0
M  V30 53 H -2.407595 -2.573161 -0.742288 0
M  V30 54 H -2.197918 -1.556949 0.702376 0
M  V30 55 H -1.915502 -0.888834 -1.003612 0
M  V30 56 H 0.138261 1.105749 1.791779 0
M  V30 57 H 4.737023 -6.590725 0.372142 0
M  V30 58 H 3.064430 -3.594033 -1.031622 0
M  V30 59 H 4.898260 -3.569046 -0.879533 0
M  V30 60 H 4.037276 -5.048779 -1.377232 0
M  V30 END ATOM
M  V30 BEGIN BOND
M  V30 1 1 1 2
M  V30 2 1 2 3
M  V30 3 2 3 4
M  V30 4 1 4 5
M  V30 5 1 5 6
M  V30 6 1 6 7
M  V30 7 1 7 8
M  V30 8 2 8 9
M  V30 9 1 9 10
M  V30 10 2 10 11
M  V30 11 1 11 12
M  V30 12 1 12 13
M  V30 13 1 13 14
M  V30 14 1 13 15
M  V30 15 1 15 16
M  V30 16 2 16 17
M  V30 17 1 16 18
M  V30 18 2 18 19
M  V30 19 1 19 20
M  V30 20 2 20 21
M  V30 21 1 21 22
M  V30 22 2 22 23
M  V30 23 1 23 24
M  V30 24 1 24 25
M  V30 25 2 24 26
M  V30 26 2 24 27
M  V30 27 2 12 28
M  V30 28 2 7 29
M  V30 29 1 29 30
M  V30 30 1 30 31
M  V30 31 2 31 32
M  V30 32 1 32 33
M  V30 33 2 33 34
M  V30 34 1 34 35
M  V30 35 1 35 36
M  V30 36 1 32 3
M  V30 37 2 30 5
M  V30 38 1 35 31
M  V30 39 1 28 8
M  V30 40 1 23 18
M  V30 41 1 1 37
M  V30 42 1 1 38
M  V30 43 1 1 39
M  V30 44 1 2 40
M  V30 45 1 9 41
M  V30 46 1 10 42
M  V30 47 1 11 43
M  V30 48 1 13 44 CFG=1
M  V30 49 1 14 45
M  V30 50 1 14 46
M  V30 51 1 14 47
M  V30 52 1 15 48
M  V30 53 1 19 49
M  V30 54 1 20 50
M  V30 55 1 21 51
M  V30 56 1 22 52
M  V30 57 1 25 53
M  V30 58 1 25 54
M  V30 59 1 25 55
M  V30 60 1 28 56
M  V30 61 1 34 57
M  V30 62 1 36 58
M  V30 63 1 36 59
M  V30 64 1 36 60
M  V30 END BOND
M  V30 END CTAB
M  END
>  <Dataset>  (542) 
ChEMBL_Kinases

>  <Ligand_Instance>  (542) 
nan

>  <PDB_ID>  (542) 
nan

>  <Standardized_SMILES>  (542) 
CNc1nc2sc(-c3cccc([C@@H](C)NC(=O)c4ccccc4S(C)(=O)=O)c3)nc2c2c1ncn2C

>  <Name>  (542) 
nan

>  <Pocket>  (542) 
nan

>  <ATP_Site>  (542) 
nan

>  <Peripheral>  (542) 
nan

>  <Num_H_Atoms_ProtBoundConf>  (542) 
nan

>  <Num_Resolved_Atoms>  (542) 
nan

>  <Num_Not_Resolved_Atoms>  (542) 
nan

$$$$
CHEMBL428714
     RDKit          3D

  0  0  0  0  0  0  0  0  0  0999 V3000
M  V30 BEGIN CTAB
M  V30 COUNTS 45 48 0 0 0
M  V30 BEGIN ATOM
M  V30 1 C 1.432751 -2.862841 1.173804 0
M  V30 2 N 2.345619 -2.364641 2.171075 0
M  V30 3 N 2.362257 -2.683638 3.436446 0
M  V30 4 C 3.378407 -2.028381 4.068057 0
M  V30 5 C 3.963994 -1.291027 3.064238 0
M  V30 6 C 3.307641 -1.500148 1.843450 0
M  V30 7 C 3.831784 -0.748769 0.697887 0
M  V30 8 N 3.351510 0.607029 0.618611 0
M  V30 9 C 2.155557 1.294900 0.337269 0
M  V30 10 C 2.123014 2.694098 0.411668 0
M  V30 11 C 0.999950 3.407642 0.128993 0
M  V30 12 Br 1.033478 5.289622 0.251571 0
M  V30 13 C -0.139045 2.748035 -0.240643 0
M  V30 14 N -1.215948 3.494889 -0.513422 0
M  V30 15 C -2.389184 2.956811 -0.891700 0
M  V30 16 C -2.481358 1.584191 -1.001181 0
M  V30 17 C -3.713526 0.945660 -1.403202 0
M  V30 18 N -4.712777 0.423061 -1.748128 0
M  V30 19 C -1.364614 0.825121 -0.717222 0
M  V30 20 N -1.477387 -0.561720 -0.841620 0
M  V30 21 C -1.930595 -1.463895 0.124718 0
M  V30 22 C -2.311456 -0.993822 1.364662 0
M  V30 23 C -2.755640 -1.954744 2.281081 0
M  V30 24 C -2.816197 -3.299724 1.979770 0
M  V30 25 F -3.247174 -4.218789 2.873182 0
M  V30 26 C -2.419055 -3.726315 0.708962 0
M  V30 27 Cl -2.463460 -5.424197 0.237878 0
M  V30 28 C -1.975008 -2.809439 -0.222260 0
M  V30 29 C -0.165520 1.375151 -0.330463 0
M  V30 30 C 0.986272 0.682788 -0.037967 0
M  V30 31 H 0.384235 -2.549133 1.435673 0
M  V30 32 H 1.707956 -2.598366 0.152067 0
M  V30 33 H 1.491559 -3.985392 1.234359 0
M  V30 34 H 3.601530 -2.123908 5.117372 0
M  V30 35 H 4.826561 -0.671780 3.359542 0
M  V30 36 H 4.936341 -0.791897 0.655882 0
M  V30 37 H 3.502712 -1.218015 -0.277248 0
M  V30 38 H 4.174600 1.246842 0.853256 0
M  V30 39 H 3.014274 3.252426 0.703607 0
M  V30 40 H -3.253494 3.552117 -1.110691 0
M  V30 41 H -1.162431 -0.838650 -1.797124 0
M  V30 42 H -2.281290 0.050981 1.646851 0
M  V30 43 H -3.066456 -1.614619 3.277021 0
M  V30 44 H -1.655419 -3.112898 -1.230660 0
M  V30 45 H 0.913869 -0.367619 -0.125274 0
M  V30 END ATOM
M  V30 BEGIN BOND
M  V30 1 1 1 2
M  V30 2 1 2 3
M  V30 3 2 3 4
M  V30 4 1 4 5
M  V30 5 2 5 6
M  V30 6 1 6 7
M  V30 7 1 7 8
M  V30 8 1 8 9
M  V30 9 2 9 10
M  V30 10 1 10 11
M  V30 11 1 11 12
M  V30 12 2 11 13
M  V30 13 1 13 14
M  V30 14 2 14 15
M  V30 15 1 15 16
M  V30 16 1 16 17
M  V30 17 3 17 18
M  V30 18 2 16 19
M  V30 19 1 19 20
M  V30 20 1 20 21
M  V30 21 2 21 22
M  V30 22 1 22 23
M  V30 23 2 23 24
M  V30 24 1 24 25
M  V30 25 1 24 26
M  V30 26 1 26 27
M  V30 27 2 26 28
M  V30 28 1 19 29
M  V30 29 2 29 30
M  V30 30 1 6 2
M  V30 31 1 30 9
M  V30 32 1 29 13
M  V30 33 1 28 21
M  V30 34 1 1 31
M  V30 35 1 1 32
M  V30 36 1 1 33
M  V30 37 1 4 34
M  V30 38 1 5 35
M  V30 39 1 7 36
M  V30 40 1 7 37
M  V30 41 1 8 38
M  V30 42 1 10 39
M  V30 43 1 15 40
M  V30 44 1 20 41
M  V30 45 1 22 42
M  V30 46 1 23 43
M  V30 47 1 28 44
M  V30 48 1 30 45
M  V30 END BOND
M  V30 END CTAB
M  END
>  <Dataset>  (543) 
ChEMBL_Kinases

>  <Ligand_Instance>  (543) 
nan

>  <PDB_ID>  (543) 
nan

>  <Standardized_SMILES>  (543) 
Cn1nccc1CNc1cc(Br)c2ncc(C#N)c(Nc3ccc(F)c(Cl)c3)c2c1

>  <Name>  (543) 
nan

>  <Pocket>  (543) 
nan

>  <ATP_Site>  (543) 
nan

>  <Peripheral>  (543) 
nan

>  <Num_H_Atoms_ProtBoundConf>  (543) 
nan

>  <Num_Resolved_Atoms>  (543) 
nan

>  <Num_Not_Resolved_Atoms>  (543) 
nan

$$$$
CHEMBL4287122
     RDKit          3D

  0  0  0  0  0  0  0  0  0  0999 V3000
M  V30 BEGIN CTAB
M  V30 COUNTS 60 64 0 0 0
M  V30 BEGIN ATOM
M  V30 1 N -2.171270 -1.991392 5.677427 0
M  V30 2 C -1.276947 -1.649742 5.028405 0
M  V30 3 C -0.174877 -1.224859 4.212906 0
M  V30 4 C 1.036035 -1.197534 4.841219 0
M  V30 5 N 2.093846 -0.795152 4.087379 0
M  V30 6 C 1.871831 -0.455864 2.786937 0
M  V30 7 N 2.965228 -0.011194 2.007606 0
M  V30 8 C 3.844606 1.006049 1.489290 0
M  V30 9 C 3.101706 2.019383 0.731203 0
M  V30 10 C 3.045561 1.820726 -0.652637 0
M  V30 11 C 2.372903 2.644535 -1.529444 0
M  V30 12 C 1.699598 3.745217 -1.051420 0
M  V30 13 C 1.753624 3.943676 0.309671 0
M  V30 14 C 2.431627 3.118985 1.213871 0
M  V30 15 C 2.468417 3.410646 2.648125 0
M  V30 16 F 3.776996 3.575164 3.099408 0
M  V30 17 F 1.819733 2.564124 3.472580 0
M  V30 18 F 1.851553 4.665338 2.827335 0
M  V30 19 N 0.644914 -0.502224 2.211161 0
M  V30 20 C -0.450276 -0.898078 2.920746 0
M  V30 21 N -1.762334 -0.940114 2.369511 0
M  V30 22 C -2.227978 -0.658155 1.068669 0
M  V30 23 C -1.928136 -1.629287 -0.021516 0 CFG=2
M  V30 24 C -2.587370 -2.952904 0.411008 0
M  V30 25 C -2.459236 -4.013762 -0.635198 0 CFG=2
M  V30 26 C -0.996906 -4.246409 -0.900234 0
M  V30 27 C -0.417391 -2.933049 -1.435161 0 CFG=2
M  V30 28 C -0.505280 -1.941660 -0.284079 0
M  V30 29 C -1.119092 -2.497953 -2.676423 0 CFG=1
M  V30 30 N -1.090018 -3.654830 -3.579362 0
M  V30 31 C -2.572750 -2.253588 -2.359031 0 CFG=1
M  V30 32 C -3.150017 -3.589628 -1.897393 0
M  V30 33 C -2.640126 -1.216228 -1.294346 0
M  V30 34 H 1.172737 -1.471459 5.862816 0
M  V30 35 H 3.183789 -0.997568 1.675106 0
M  V30 36 H 4.330723 1.461816 2.392248 0
M  V30 37 H 4.603887 0.524163 0.842447 0
M  V30 38 H 3.554489 0.965989 -1.118669 0
M  V30 39 H 2.367294 2.435926 -2.597890 0
M  V30 40 H 1.149244 4.440223 -1.669537 0
M  V30 41 H 1.234970 4.802463 0.723258 0
M  V30 42 H -2.513801 -1.240241 3.064737 0
M  V30 43 H -3.306184 -0.391210 1.093086 0
M  V30 44 H -1.745098 0.320557 0.750620 0
M  V30 45 H -2.128723 -3.256382 1.371853 0
M  V30 46 H -3.666676 -2.759215 0.581574 0
M  V30 47 H -2.898487 -4.932391 -0.227974 0
M  V30 48 H -0.792554 -5.101741 -1.559370 0
M  V30 49 H -0.500350 -4.400581 0.081349 0
M  V30 50 H 0.663857 -3.098232 -1.641347 0
M  V30 51 H -0.152047 -2.572573 0.587824 0
M  V30 52 H 0.128537 -1.066916 -0.471427 0
M  V30 53 H -0.591077 -1.669127 -3.134384 0
M  V30 54 H -1.005410 -3.329976 -4.564081 0
M  V30 55 H -0.280679 -4.280157 -3.381784 0
M  V30 56 H -3.115394 -1.870470 -3.245997 0
M  V30 57 H -4.236923 -3.488937 -1.778732 0
M  V30 58 H -2.860397 -4.328040 -2.685791 0
M  V30 59 H -2.183520 -0.291916 -1.694582 0
M  V30 60 H -3.703703 -1.009209 -1.088695 0
M  V30 END ATOM
M  V30 BEGIN BOND
M  V30 1 3 1 2
M  V30 2 1 2 3
M  V30 3 2 3 4
M  V30 4 1 4 5
M  V30 5 2 5 6
M  V30 6 1 6 7
M  V30 7 1 7 8
M  V30 8 1 8 9
M  V30 9 2 9 10
M  V30 10 1 10 11
M  V30 11 2 11 12
M  V30 12 1 12 13
M  V30 13 2 13 14
M  V30 14 1 14 15
M  V30 15 1 15 16
M  V30 16 1 15 17
M  V30 17 1 15 18
M  V30 18 1 6 19
M  V30 19 2 19 20
M  V30 20 1 20 21
M  V30 21 1 21 22
M  V30 22 1 23 22 CFG=1
M  V30 23 1 23 24
M  V30 24 1 24 25
M  V30 25 1 25 26
M  V30 26 1 26 27
M  V30 27 1 27 28
M  V30 28 1 27 29
M  V30 29 1 29 30
M  V30 30 1 29 31
M  V30 31 1 31 32
M  V30 32 1 31 33
M  V30 33 1 20 3
M  V30 34 1 28 23
M  V30 35 1 14 9
M  V30 36 1 33 23
M  V30 37 1 32 25
M  V30 38 1 4 34
M  V30 39 1 7 35
M  V30 40 1 8 36
M  V30 41 1 8 37
M  V30 42 1 10 38
M  V30 43 1 11 39
M  V30 44 1 12 40
M  V30 45 1 13 41
M  V30 46 1 21 42
M  V30 47 1 22 43
M  V30 48 1 22 44
M  V30 49 1 24 45
M  V30 50 1 24 46
M  V30 51 1 25 47 CFG=1
M  V30 52 1 26 48
M  V30 53 1 26 49
M  V30 54 1 27 50 CFG=3
M  V30 55 1 28 51
M  V30 56 1 28 52
M  V30 57 1 29 53 CFG=3
M  V30 58 1 30 54
M  V30 59 1 30 55
M  V30 60 1 31 56 CFG=3
M  V30 61 1 32 57
M  V30 62 1 32 58
M  V30 63 1 33 59
M  V30 64 1 33 60
M  V30 END BOND
M  V30 END CTAB
M  END
>  <Dataset>  (544) 
ChEMBL_Kinases

>  <Ligand_Instance>  (544) 
nan

>  <PDB_ID>  (544) 
nan

>  <Standardized_SMILES>  (544) 
N#Cc1cnc(NCc2ccccc2C(F)(F)F)nc1NC[C@]12C[C@@H]3C[C@H](C1)[C@@H](N)[C@@H](C3)C2

>  <Name>  (544) 
nan

>  <Pocket>  (544) 
nan

>  <ATP_Site>  (544) 
nan

>  <Peripheral>  (544) 
nan

>  <Num_H_Atoms_ProtBoundConf>  (544) 
nan

>  <Num_Resolved_Atoms>  (544) 
nan

>  <Num_Not_Resolved_Atoms>  (544) 
nan

$$$$
CHEMBL4287512
     RDKit          3D

  0  0  0  0  0  0  0  0  0  0999 V3000
M  V30 BEGIN CTAB
M  V30 COUNTS 51 55 0 0 0
M  V30 BEGIN ATOM
M  V30 1 C 3.149198 -5.942953 2.885434 0
M  V30 2 N 2.974031 -4.675753 2.259686 0
M  V30 3 C 2.873662 -3.544160 3.101619 0
M  V30 4 C 1.518077 -2.893472 3.173627 0
M  V30 5 N 0.743581 -2.957849 1.978213 0
M  V30 6 C 0.096960 -1.874044 1.372376 0
M  V30 7 C 0.127204 -0.624382 1.913816 0
M  V30 8 C -0.490476 0.473606 1.356102 0
M  V30 9 C -1.203706 0.340538 0.159427 0
M  V30 10 C -1.872563 1.471112 -0.467074 0
M  V30 11 C -1.122040 2.557533 -0.907763 0
M  V30 12 C 0.318122 2.624490 -0.773251 0
M  V30 13 C 0.773454 3.690283 0.007417 0
M  V30 14 C 2.141015 3.850721 0.203450 0
M  V30 15 N 3.035511 3.021553 -0.328374 0
M  V30 16 C 2.611534 1.978692 -1.090897 0
M  V30 17 F 3.465563 1.091116 -1.666497 0
M  V30 18 C 1.270076 1.778479 -1.313518 0
M  V30 19 C -1.776774 3.602155 -1.491008 0
M  V30 20 N -3.112644 3.590487 -1.640161 0
M  V30 21 C -3.889470 2.560888 -1.230130 0
M  V30 22 N -5.201143 2.320165 -1.265317 0
M  V30 23 C -5.401078 1.107849 -0.699770 0
M  V30 24 C -4.208082 0.571602 -0.301032 0
M  V30 25 C -3.237497 1.500144 -0.639399 0
M  V30 26 C -1.258883 -0.917443 -0.425373 0
M  V30 27 C -0.610830 -1.961029 0.202575 0
M  V30 28 C 0.733641 -4.324100 1.495230 0
M  V30 29 C 2.148921 -4.678157 1.104090 0
M  V30 30 H 3.773984 -6.593915 2.205461 0
M  V30 31 H 3.657176 -5.861536 3.846447 0
M  V30 32 H 2.214604 -6.517035 3.061710 0
M  V30 33 H 3.580694 -2.763698 2.698146 0
M  V30 34 H 3.217309 -3.818369 4.119290 0
M  V30 35 H 0.952035 -3.428734 3.977663 0
M  V30 36 H 1.694683 -1.881799 3.583736 0
M  V30 37 H 0.624058 -0.364733 2.814595 0
M  V30 38 H -0.492646 1.468633 1.745457 0
M  V30 39 H 0.124910 4.404401 0.472761 0
M  V30 40 H 2.486657 4.685183 0.813841 0
M  V30 41 H 0.850380 0.969775 -1.910203 0
M  V30 42 H -1.293410 4.509097 -1.875577 0
M  V30 43 H -5.955730 2.920825 -1.644558 0
M  V30 44 H -6.367008 0.618328 -0.573983 0
M  V30 45 H -4.076082 -0.388396 0.180342 0
M  V30 46 H -1.810997 -1.015087 -1.349795 0
M  V30 47 H -0.716478 -2.892233 -0.334717 0
M  V30 48 H 0.344789 -4.959352 2.334282 0
M  V30 49 H 0.132256 -4.471620 0.574889 0
M  V30 50 H 2.487602 -3.842639 0.430130 0
M  V30 51 H 2.223552 -5.641873 0.581244 0
M  V30 END ATOM
M  V30 BEGIN BOND
M  V30 1 1 1 2
M  V30 2 1 2 3
M  V30 3 1 3 4
M  V30 4 1 4 5
M  V30 5 1 5 6
M  V30 6 2 6 7
M  V30 7 1 7 8
M  V30 8 2 8 9
M  V30 9 1 9 10
M  V30 10 1 10 11
M  V30 11 1 11 12
M  V30 12 2 12 13
M  V30 13 1 13 14
M  V30 14 2 14 15
M  V30 15 1 15 16
M  V30 16 1 16 17
M  V30 17 2 16 18
M  V30 18 2 11 19
M  V30 19 1 19 20
M  V30 20 2 20 21
M  V30 21 1 21 22
M  V30 22 1 22 23
M  V30 23 2 23 24
M  V30 24 1 24 25
M  V30 25 1 9 26
M  V30 26 2 26 27
M  V30 27 1 5 28
M  V30 28 1 28 29
M  V30 29 1 29 2
M  V30 30 1 27 6
M  V30 31 2 25 10
M  V30 32 1 18 12
M  V30 33 1 25 21
M  V30 34 1 1 30
M  V30 35 1 1 31
M  V30 36 1 1 32
M  V30 37 1 3 33
M  V30 38 1 3 34
M  V30 39 1 4 35
M  V30 40 1 4 36
M  V30 41 1 7 37
M  V30 42 1 8 38
M  V30 43 1 13 39
M  V30 44 1 14 40
M  V30 45 1 18 41
M  V30 46 1 19 42
M  V30 47 1 22 43
M  V30 48 1 23 44
M  V30 49 1 24 45
M  V30 50 1 26 46
M  V30 51 1 27 47
M  V30 52 1 28 48
M  V30 53 1 28 49
M  V30 54 1 29 50
M  V30 55 1 29 51
M  V30 END BOND
M  V30 END CTAB
M  END
>  <Dataset>  (545) 
ChEMBL_Kinases

>  <Ligand_Instance>  (545) 
nan

>  <PDB_ID>  (545) 
nan

>  <Standardized_SMILES>  (545) 
CN1CCN(c2ccc(-c3c(-c4ccnc(F)c4)cnc4[nH]ccc34)cc2)CC1

>  <Name>  (545) 
nan

>  <Pocket>  (545) 
nan

>  <ATP_Site>  (545) 
nan

>  <Peripheral>  (545) 
nan

>  <Num_H_Atoms_ProtBoundConf>  (545) 
nan

>  <Num_Resolved_Atoms>  (545) 
nan

>  <Num_Not_Resolved_Atoms>  (545) 
nan

$$$$
CHEMBL4288850
     RDKit          3D

  0  0  0  0  0  0  0  0  0  0999 V3000
M  V30 BEGIN CTAB
M  V30 COUNTS 66 71 0 0 0
M  V30 BEGIN ATOM
M  V30 1 N 3.266616 -3.700471 3.710615 0
M  V30 2 C 2.051295 -3.764352 2.976423 0
M  V30 3 O 1.121805 -4.508462 3.434656 0
M  V30 4 C 1.933255 -2.974992 1.739367 0
M  V30 5 S 3.252856 -1.938081 1.088915 0
M  V30 6 C 2.202154 -1.430857 -0.405161 0
M  V30 7 C 2.882410 -0.485283 -1.363770 0
M  V30 8 C 4.142786 -0.027035 -1.207702 0
M  V30 9 C 4.713537 0.843189 -2.109300 0
M  V30 10 N 3.951565 1.231172 -3.180059 0
M  V30 11 C 2.680100 0.744200 -3.301970 0
M  V30 12 N 1.927511 1.180044 -4.423103 0
M  V30 13 C 1.710576 0.774552 -5.765128 0
M  V30 14 O 2.325177 -0.250498 -6.139981 0
M  V30 15 C 0.785077 1.589135 -6.602423 0
M  V30 16 C -0.066132 0.898630 -7.612562 0
M  V30 17 C 1.068246 1.781859 -8.044080 0
M  V30 18 C 2.078701 -0.130593 -2.413776 0
M  V30 19 N 1.232142 -2.013975 -0.196569 0
M  V30 20 C 0.938678 -2.814368 0.809321 0
M  V30 21 O -0.162452 -3.442612 1.001517 0
M  V30 22 C -1.295965 -4.053516 1.142621 0
M  V30 23 C -2.578055 -3.290102 1.152236 0
M  V30 24 N -2.776725 -2.295976 2.149597 0
M  V30 25 C -2.403619 -1.059089 2.704432 0
M  V30 26 C -1.506229 -0.733943 3.681806 0
M  V30 27 C -1.240782 0.527745 4.111391 0
M  V30 28 N -1.925383 1.530458 3.515148 0
M  V30 29 C -2.832541 1.339570 2.543797 0
M  V30 30 C -3.457271 2.453081 2.029686 0
M  V30 31 C -4.386157 2.218206 1.037721 0
M  V30 32 C -4.693557 0.966075 0.567369 0
M  V30 33 C -4.021153 -0.081124 1.136915 0
M  V30 34 C -3.071282 0.038618 2.137439 0
M  V30 35 C -0.230097 0.619965 5.191684 0
M  V30 36 C -0.489732 -0.356787 6.313160 0
M  V30 37 C -0.940705 -1.704202 5.814162 0
M  V30 38 C -0.774696 -1.835656 4.309937 0
M  V30 39 H 3.428680 -3.227273 4.632489 0
M  V30 40 H 3.451196 -3.237579 4.625706 0
M  V30 41 H 4.721272 -0.338476 -0.371423 0
M  V30 42 H 5.731493 1.205482 -1.968773 0
M  V30 43 H 1.443425 2.038414 -4.033723 0
M  V30 44 H 0.309352 2.464963 -6.091604 0
M  V30 45 H 0.063816 -0.182892 -7.846019 0
M  V30 46 H -1.103988 1.248784 -7.826313 0
M  V30 47 H 1.949270 1.338367 -8.532292 0
M  V30 48 H 0.765758 2.759403 -8.514826 0
M  V30 49 H 1.087114 -0.484246 -2.546663 0
M  V30 50 H -1.436402 -4.793470 0.258745 0
M  V30 51 H -1.378531 -4.723183 2.083456 0
M  V30 52 H -2.797338 -2.866809 0.114579 0
M  V30 53 H -3.394156 -4.072931 1.260481 0
M  V30 54 H -3.541677 -2.464756 2.874423 0
M  V30 55 H -3.234135 3.462169 2.383458 0
M  V30 56 H -4.886977 3.098788 0.626382 0
M  V30 57 H -5.428573 0.809221 -0.211792 0
M  V30 58 H -4.252653 -1.077105 0.775038 0
M  V30 59 H -0.152361 1.665350 5.572536 0
M  V30 60 H 0.761141 0.373778 4.759474 0
M  V30 61 H 0.411551 -0.415357 6.955372 0
M  V30 62 H -1.307272 0.063306 6.932778 0
M  V30 63 H -1.953985 -1.944093 6.130206 0
M  V30 64 H -0.265830 -2.465698 6.255350 0
M  V30 65 H -1.158896 -2.828981 4.027918 0
M  V30 66 H 0.313532 -1.824001 4.057944 0
M  V30 END ATOM
M  V30 BEGIN BOND
M  V30 1 1 1 2
M  V30 2 2 2 3
M  V30 3 1 2 4
M  V30 4 1 4 5
M  V30 5 1 5 6
M  V30 6 1 6 7
M  V30 7 2 7 8
M  V30 8 1 8 9
M  V30 9 2 9 10
M  V30 10 1 10 11
M  V30 11 1 11 12
M  V30 12 1 12 13
M  V30 13 2 13 14
M  V30 14 1 13 15
M  V30 15 1 15 16
M  V30 16 1 16 17
M  V30 17 2 11 18
M  V30 18 2 6 19
M  V30 19 1 19 20
M  V30 20 1 20 21
M  V30 21 1 21 22
M  V30 22 1 22 23
M  V30 23 1 23 24
M  V30 24 1 24 25
M  V30 25 2 25 26
M  V30 26 1 26 27
M  V30 27 2 27 28
M  V30 28 1 28 29
M  V30 29 2 29 30
M  V30 30 1 30 31
M  V30 31 2 31 32
M  V30 32 1 32 33
M  V30 33 2 33 34
M  V30 34 1 27 35
M  V30 35 1 35 36
M  V30 36 1 36 37
M  V30 37 1 37 38
M  V30 38 2 20 4
M  V30 39 1 34 25
M  V30 40 1 18 7
M  V30 41 1 38 26
M  V30 42 1 17 15
M  V30 43 1 34 29
M  V30 44 1 1 39
M  V30 45 1 1 40
M  V30 46 1 8 41
M  V30 47 1 9 42
M  V30 48 1 12 43
M  V30 49 1 15 44
M  V30 50 1 16 45
M  V30 51 1 16 46
M  V30 52 1 17 47
M  V30 53 1 17 48
M  V30 54 1 18 49
M  V30 55 1 22 50
M  V30 56 1 22 51
M  V30 57 1 23 52
M  V30 58 1 23 53
M  V30 59 1 24 54
M  V30 60 1 30 55
M  V30 61 1 31 56
M  V30 62 1 32 57
M  V30 63 1 33 58
M  V30 64 1 35 59
M  V30 65 1 35 60
M  V30 66 1 36 61
M  V30 67 1 36 62
M  V30 68 1 37 63
M  V30 69 1 37 64
M  V30 70 1 38 65
M  V30 71 1 38 66
M  V30 END BOND
M  V30 END CTAB
M  END
>  <Dataset>  (546) 
ChEMBL_Kinases

>  <Ligand_Instance>  (546) 
nan

>  <PDB_ID>  (546) 
nan

>  <Standardized_SMILES>  (546) 
NC(=O)c1sc(-c2ccnc(NC(=O)C3CC3)c2)nc1OCCNc1c2c(nc3ccccc13)CCCC2

>  <Name>  (546) 
nan

>  <Pocket>  (546) 
nan

>  <ATP_Site>  (546) 
nan

>  <Peripheral>  (546) 
nan

>  <Num_H_Atoms_ProtBoundConf>  (546) 
nan

>  <Num_Resolved_Atoms>  (546) 
nan

>  <Num_Not_Resolved_Atoms>  (546) 
nan

$$$$
CHEMBL4288816
     RDKit          3D

  0  0  0  0  0  0  0  0  0  0999 V3000
M  V30 BEGIN CTAB
M  V30 COUNTS 67 72 0 0 0
M  V30 BEGIN ATOM
M  V30 1 F 1.277178 -4.214869 6.240318 0
M  V30 2 C 1.312111 -3.037412 5.574598 0
M  V30 3 C 1.450377 -1.850778 6.268381 0
M  V30 4 C 1.478275 -0.693282 5.517157 0
M  V30 5 C 1.378003 -0.653373 4.143737 0
M  V30 6 C 1.436742 0.683031 3.534546 0
M  V30 7 N 2.374474 1.592144 3.472133 0
M  V30 8 C 2.405132 2.624472 2.989833 0
M  V30 9 C 3.260605 3.829537 2.750285 0
M  V30 10 C 3.502438 4.085617 1.284739 0
M  V30 11 C 2.283087 4.592534 0.615564 0
M  V30 12 N 1.448076 5.479717 1.302584 0
M  V30 13 C 1.692639 5.809057 2.651642 0
M  V30 14 C 2.735081 5.068660 3.376874 0
M  V30 15 S 0.686249 2.657487 2.291312 0
M  V30 16 C 0.302619 1.009607 2.927299 0
M  V30 17 C -1.108291 0.549791 2.597242 0
M  V30 18 C -2.026610 0.394637 3.613328 0
M  V30 19 C -3.270862 -0.024396 3.193321 0
M  V30 20 N -3.597773 -0.270710 1.914024 0
M  V30 21 C -2.661945 -0.106272 0.935093 0
M  V30 22 N -2.720184 -0.279027 -0.471812 0
M  V30 23 C -2.536662 -1.414922 -1.287028 0
M  V30 24 C -2.339812 -2.684020 -0.788887 0
M  V30 25 C -2.159943 -3.737324 -1.670144 0
M  V30 26 C -2.169443 -3.567896 -3.033640 0
M  V30 27 N -1.990151 -4.672655 -3.906317 0
M  V30 28 C -1.992554 -6.059681 -3.487844 0
M  V30 29 C -1.060939 -6.831179 -4.399961 0
M  V30 30 N 0.098472 -6.040779 -4.769529 0
M  V30 31 C -0.273343 -4.863967 -5.523522 0
M  V30 32 C -1.768399 -4.598701 -5.334692 0
M  V30 33 C -2.368214 -2.288277 -3.503188 0
M  V30 34 C -2.552779 -1.205494 -2.649440 0
M  V30 35 N -1.422857 0.308453 1.329266 0
M  V30 36 C 1.238305 -1.871821 3.467924 0
M  V30 37 C 1.210764 -3.012719 4.203789 0
M  V30 38 H 1.531445 -1.843569 7.347913 0
M  V30 39 H 1.586815 0.214393 6.103942 0
M  V30 40 H 4.215273 3.564911 3.253636 0
M  V30 41 H 3.800066 3.119613 0.785703 0
M  V30 42 H 4.332417 4.815412 1.210256 0
M  V30 43 H 1.698220 3.721484 0.199096 0
M  V30 44 H 2.620008 5.121769 -0.326955 0
M  V30 45 H 0.469408 5.427213 0.994050 0
M  V30 46 H 1.898869 6.900522 2.722981 0
M  V30 47 H 0.714900 5.675642 3.210540 0
M  V30 48 H 2.401882 4.798111 4.423189 0
M  V30 49 H 3.636292 5.721577 3.580547 0
M  V30 50 H -1.757716 0.594610 4.631775 0
M  V30 51 H -4.051920 -0.172374 3.912330 0
M  V30 52 H -2.943160 0.665608 -0.832692 0
M  V30 53 H -2.340263 -2.762948 0.269834 0
M  V30 54 H -2.015328 -4.678264 -1.188795 0
M  V30 55 H -1.702939 -6.226403 -2.448816 0
M  V30 56 H -3.016392 -6.460207 -3.642542 0
M  V30 57 H -0.679053 -7.730732 -3.869960 0
M  V30 58 H -1.634801 -7.147700 -5.280145 0
M  V30 59 H 0.696992 -6.638304 -5.378683 0
M  V30 60 H 0.246598 -3.961625 -5.124909 0
M  V30 61 H -0.016831 -4.943048 -6.595334 0
M  V30 62 H -2.027106 -3.628412 -5.763523 0
M  V30 63 H -2.371105 -5.356076 -5.902485 0
M  V30 64 H -2.391633 -2.060299 -4.554402 0
M  V30 65 H -2.706117 -0.214908 -3.055576 0
M  V30 66 H 1.164481 -1.769697 2.392679 0
M  V30 67 H 1.101593 -3.951706 3.662136 0
M  V30 END ATOM
M  V30 BEGIN BOND
M  V30 1 1 1 2
M  V30 2 2 2 3
M  V30 3 1 3 4
M  V30 4 2 4 5
M  V30 5 1 5 6
M  V30 6 1 6 7
M  V30 7 2 7 8
M  V30 8 1 8 9
M  V30 9 1 9 10
M  V30 10 1 10 11
M  V30 11 1 11 12
M  V30 12 1 12 13
M  V30 13 1 13 14
M  V30 14 1 8 15
M  V30 15 1 15 16
M  V30 16 1 16 17
M  V30 17 2 17 18
M  V30 18 1 18 19
M  V30 19 2 19 20
M  V30 20 1 20 21
M  V30 21 1 21 22
M  V30 22 1 22 23
M  V30 23 2 23 24
M  V30 24 1 24 25
M  V30 25 2 25 26
M  V30 26 1 26 27
M  V30 27 1 27 28
M  V30 28 1 28 29
M  V30 29 1 29 30
M  V30 30 1 30 31
M  V30 31 1 31 32
M  V30 32 1 26 33
M  V30 33 2 33 34
M  V30 34 2 21 35
M  V30 35 1 5 36
M  V30 36 2 36 37
M  V30 37 1 37 2
M  V30 38 2 16 6
M  V30 39 1 35 17
M  V30 40 1 14 9
M  V30 41 1 34 23
M  V30 42 1 32 27
M  V30 43 1 3 38
M  V30 44 1 4 39
M  V30 45 1 9 40
M  V30 46 1 10 41
M  V30 47 1 10 42
M  V30 48 1 11 43
M  V30 49 1 11 44
M  V30 50 1 12 45
M  V30 51 1 13 46
M  V30 52 1 13 47
M  V30 53 1 14 48
M  V30 54 1 14 49
M  V30 55 1 18 50
M  V30 56 1 19 51
M  V30 57 1 22 52
M  V30 58 1 24 53
M  V30 59 1 25 54
M  V30 60 1 28 55
M  V30 61 1 28 56
M  V30 62 1 29 57
M  V30 63 1 29 58
M  V30 64 1 30 59
M  V30 65 1 31 60
M  V30 66 1 31 61
M  V30 67 1 32 62
M  V30 68 1 32 63
M  V30 69 1 33 64
M  V30 70 1 34 65
M  V30 71 1 36 66
M  V30 72 1 37 67
M  V30 END BOND
M  V30 END CTAB
M  END
>  <Dataset>  (547) 
ChEMBL_Kinases

>  <Ligand_Instance>  (547) 
nan

>  <PDB_ID>  (547) 
nan

>  <Standardized_SMILES>  (547) 
Fc1ccc(-c2nc(C3CCNCC3)sc2-c2ccnc(Nc3ccc(N4CCNCC4)cc3)n2)cc1

>  <Name>  (547) 
nan

>  <Pocket>  (547) 
nan

>  <ATP_Site>  (547) 
nan

>  <Peripheral>  (547) 
nan

>  <Num_H_Atoms_ProtBoundConf>  (547) 
nan

>  <Num_Resolved_Atoms>  (547) 
nan

>  <Num_Not_Resolved_Atoms>  (547) 
nan

$$$$
CHEMBL4288745
     RDKit          3D

  0  0  0  0  0  0  0  0  0  0999 V3000
M  V30 BEGIN CTAB
M  V30 COUNTS 51 54 0 0 0
M  V30 BEGIN ATOM
M  V30 1 C 2.140108 -5.157206 2.828847 0
M  V30 2 C 2.365706 -5.153211 1.336418 0
M  V30 3 C 2.683540 -3.773145 0.885396 0
M  V30 4 C 4.004830 -3.411360 0.875380 0
M  V30 5 C 4.315490 -2.133960 0.458961 0
M  V30 6 C 3.342218 -1.241762 0.063932 0
M  V30 7 C 2.025047 -1.629461 0.083434 0
M  V30 8 C 0.802297 -0.912811 -0.269551 0
M  V30 9 N 0.074058 -1.366665 -1.332762 0
M  V30 10 N -1.003749 -0.590380 -1.503854 0
M  V30 11 C -1.001963 0.382830 -0.559675 0
M  V30 12 C 0.123035 0.187168 0.214107 0
M  V30 13 C 0.609760 0.920326 1.336644 0
M  V30 14 C 1.757980 1.684013 1.404863 0
M  V30 15 C 2.157942 2.357904 2.537066 0
M  V30 16 C 1.397147 2.290896 3.684266 0
M  V30 17 O 1.787475 2.964898 4.833461 0
M  V30 18 C 0.228631 1.530562 3.660237 0
M  V30 19 C -0.129451 0.872033 2.496877 0
M  V30 20 C -2.191983 1.207049 -0.783183 0 CFG=2
M  V30 21 C -2.887077 1.619464 0.490762 0
M  V30 22 C -3.132065 0.194593 -1.435062 0
M  V30 23 C -4.279940 0.821275 -2.153780 0
M  V30 24 C -3.509277 -0.837984 -0.418154 0
M  V30 25 C -2.151742 -0.487042 -2.386926 0
M  V30 26 N 1.758972 -2.903614 0.502650 0
M  V30 27 H 1.725538 -6.162190 3.118534 0
M  V30 28 H 3.082509 -4.947755 3.364064 0
M  V30 29 H 1.393688 -4.359313 3.066201 0
M  V30 30 H 3.171172 -5.872695 1.062613 0
M  V30 31 H 1.430078 -5.531957 0.873754 0
M  V30 32 H 4.851782 -4.010592 1.157152 0
M  V30 33 H 5.326946 -1.734484 0.408558 0
M  V30 34 H 3.456348 -0.224060 -0.281786 0
M  V30 35 H 2.356657 1.740983 0.506439 0
M  V30 36 H 3.069642 2.935458 2.512699 0
M  V30 37 H 2.493246 2.513796 5.416299 0
M  V30 38 H -0.319224 1.520391 4.587480 0
M  V30 39 H -1.051769 0.329831 2.639191 0
M  V30 40 H -1.921960 2.034061 -1.430624 0
M  V30 41 H -2.425585 2.486153 0.992761 0
M  V30 42 H -3.957278 1.913237 0.291431 0
M  V30 43 H -2.879967 0.720004 1.142728 0
M  V30 44 H -3.943876 1.179082 -3.165856 0
M  V30 45 H -4.751815 1.608308 -1.562657 0
M  V30 46 H -5.022142 0.016441 -2.341294 0
M  V30 47 H -4.374485 -0.604605 0.203740 0
M  V30 48 H -3.738006 -1.816849 -0.931047 0
M  V30 49 H -2.571470 -1.043714 0.169941 0
M  V30 50 H -1.876698 0.193816 -3.215425 0
M  V30 51 H -2.562620 -1.444463 -2.710592 0
M  V30 END ATOM
M  V30 BEGIN BOND
M  V30 1 1 1 2
M  V30 2 1 2 3
M  V30 3 2 3 4
M  V30 4 1 4 5
M  V30 5 2 5 6
M  V30 6 1 6 7
M  V30 7 1 7 8
M  V30 8 2 8 9
M  V30 9 1 9 10
M  V30 10 1 10 11
M  V30 11 2 11 12
M  V30 12 1 12 13
M  V30 13 2 13 14
M  V30 14 1 14 15
M  V30 15 2 15 16
M  V30 16 1 16 17
M  V30 17 1 16 18
M  V30 18 2 18 19
M  V30 19 1 11 20
M  V30 20 1 20 21
M  V30 21 1 20 22
M  V30 22 1 22 23
M  V30 23 1 22 24
M  V30 24 1 22 25
M  V30 25 2 7 26
M  V30 26 1 26 3
M  V30 27 1 12 8
M  V30 28 1 19 13
M  V30 29 1 25 10
M  V30 30 1 1 27
M  V30 31 1 1 28
M  V30 32 1 1 29
M  V30 33 1 2 30
M  V30 34 1 2 31
M  V30 35 1 4 32
M  V30 36 1 5 33
M  V30 37 1 6 34
M  V30 38 1 14 35
M  V30 39 1 15 36
M  V30 40 1 17 37
M  V30 41 1 18 38
M  V30 42 1 19 39
M  V30 43 1 20 40 CFG=3
M  V30 44 1 21 41
M  V30 45 1 21 42
M  V30 46 1 21 43
M  V30 47 1 23 44
M  V30 48 1 23 45
M  V30 49 1 23 46
M  V30 50 1 24 47
M  V30 51 1 24 48
M  V30 52 1 24 49
M  V30 53 1 25 50
M  V30 54 1 25 51
M  V30 END BOND
M  V30 END CTAB
M  END
>  <Dataset>  (548) 
ChEMBL_Kinases

>  <Ligand_Instance>  (548) 
nan

>  <PDB_ID>  (548) 
nan

>  <Standardized_SMILES>  (548) 
CCc1cccc(-c2nn3c(c2-c2ccc(O)cc2)[C@H](C)C(C)(C)C3)n1

>  <Name>  (548) 
nan

>  <Pocket>  (548) 
nan

>  <ATP_Site>  (548) 
nan

>  <Peripheral>  (548) 
nan

>  <Num_H_Atoms_ProtBoundConf>  (548) 
nan

>  <Num_Resolved_Atoms>  (548) 
nan

>  <Num_Not_Resolved_Atoms>  (548) 
nan

$$$$
CHEMBL4288634
     RDKit          3D

  0  0  0  0  0  0  0  0  0  0999 V3000
M  V30 BEGIN CTAB
M  V30 COUNTS 44 47 0 0 0
M  V30 BEGIN ATOM
M  V30 1 C 3.979558 -5.039060 1.180220 0
M  V30 2 O 3.428038 -4.305629 0.089812 0
M  V30 3 C 2.283156 -3.530709 0.257130 0
M  V30 4 C 1.912393 -2.897498 -0.939255 0
M  V30 5 C 0.762022 -2.105152 -0.817754 0
M  V30 6 C 0.042877 -1.944236 0.351223 0
M  V30 7 C -1.141254 -1.119024 0.440469 0
M  V30 8 C -1.283006 0.232608 0.235704 0
M  V30 9 C -0.227753 1.153132 -0.129308 0
M  V30 10 C -0.335728 1.806669 -1.359925 0
M  V30 11 C 0.619708 2.701488 -1.789349 0
M  V30 12 N 1.703894 2.967767 -1.006746 0
M  V30 13 C 1.816582 2.337530 0.189971 0
M  V30 14 N 2.922288 2.555998 1.089570 0
M  V30 15 C 2.558147 3.621417 1.946151 0
M  V30 16 C 3.455296 4.144838 3.026638 0
M  V30 17 O 1.431589 4.161135 1.802239 0
M  V30 18 C 0.879628 1.443028 0.639483 0
M  V30 19 N -2.605722 0.506299 0.448842 0
M  V30 20 C -3.262018 -0.644108 0.776078 0
M  V30 21 C -4.626089 -0.782633 1.067757 0
M  V30 22 C -5.018918 -2.093390 1.369790 0
M  V30 23 C -4.117194 -3.146449 1.373675 0
M  V30 24 N -2.821181 -2.932578 1.082312 0
M  V30 25 C -2.359505 -1.684043 0.777280 0
M  V30 26 N 0.471016 -2.596542 1.474813 0
M  V30 27 C 1.572604 -3.376151 1.426498 0
M  V30 28 H 4.986653 -5.396457 0.939058 0
M  V30 29 H 3.934905 -4.431687 2.130463 0
M  V30 30 H 3.309445 -5.916322 1.394626 0
M  V30 31 H 2.402500 -2.963767 -1.877811 0
M  V30 32 H 0.371364 -1.565414 -1.661080 0
M  V30 33 H -1.155683 1.668355 -2.057834 0
M  V30 34 H 0.618356 3.249125 -2.720439 0
M  V30 35 H 3.891384 2.171845 1.294338 0
M  V30 36 H 3.508469 3.363198 3.825522 0
M  V30 37 H 4.439179 4.436900 2.640371 0
M  V30 38 H 3.021907 5.047137 3.497984 0
M  V30 39 H 0.924904 0.917631 1.582130 0
M  V30 40 H -3.010757 1.484334 0.359841 0
M  V30 41 H -5.285676 0.066801 1.051613 0
M  V30 42 H -6.077318 -2.182711 1.592867 0
M  V30 43 H -4.490030 -4.136888 1.616699 0
M  V30 44 H 1.967856 -3.917604 2.265924 0
M  V30 END ATOM
M  V30 BEGIN BOND
M  V30 1 1 1 2
M  V30 2 1 2 3
M  V30 3 2 3 4
M  V30 4 1 4 5
M  V30 5 2 5 6
M  V30 6 1 6 7
M  V30 7 2 7 8
M  V30 8 1 8 9
M  V30 9 2 9 10
M  V30 10 1 10 11
M  V30 11 2 11 12
M  V30 12 1 12 13
M  V30 13 1 13 14
M  V30 14 1 14 15
M  V30 15 1 15 16
M  V30 16 2 15 17
M  V30 17 2 13 18
M  V30 18 1 8 19
M  V30 19 1 19 20
M  V30 20 2 20 21
M  V30 21 1 21 22
M  V30 22 2 22 23
M  V30 23 1 23 24
M  V30 24 2 24 25
M  V30 25 1 6 26
M  V30 26 2 26 27
M  V30 27 1 27 3
M  V30 28 1 25 7
M  V30 29 1 18 9
M  V30 30 1 25 20
M  V30 31 1 1 28
M  V30 32 1 1 29
M  V30 33 1 1 30
M  V30 34 1 4 31
M  V30 35 1 5 32
M  V30 36 1 10 33
M  V30 37 1 11 34
M  V30 38 1 14 35
M  V30 39 1 16 36
M  V30 40 1 16 37
M  V30 41 1 16 38
M  V30 42 1 18 39
M  V30 43 1 19 40
M  V30 44 1 21 41
M  V30 45 1 22 42
M  V30 46 1 23 43
M  V30 47 1 27 44
M  V30 END BOND
M  V30 END CTAB
M  END
>  <Dataset>  (549) 
ChEMBL_Kinases

>  <Ligand_Instance>  (549) 
nan

>  <PDB_ID>  (549) 
nan

>  <Standardized_SMILES>  (549) 
COc1ccc(-c2c(-c3ccnc(NC(C)=O)c3)[nH]c3cccnc23)nc1

>  <Name>  (549) 
nan

>  <Pocket>  (549) 
nan

>  <ATP_Site>  (549) 
nan

>  <Peripheral>  (549) 
nan

>  <Num_H_Atoms_ProtBoundConf>  (549) 
nan

>  <Num_Resolved_Atoms>  (549) 
nan

>  <Num_Not_Resolved_Atoms>  (549) 
nan

$$$$
CHEMBL4757434
     RDKit          3D

  0  0  0  0  0  0  0  0  0  0999 V3000
M  V30 BEGIN CTAB
M  V30 COUNTS 123 129 0 0 0
M  V30 BEGIN ATOM
M  V30 1 C 4.238250 1.779764 1.252768 0
M  V30 2 C 4.540410 1.054929 -0.016946 0
M  V30 3 C 3.580657 0.005709 -0.447990 0
M  V30 4 C 5.151488 1.872026 -1.094825 0
M  V30 5 C 6.491476 1.885112 -1.536391 0
M  V30 6 C 6.686808 2.752439 -2.587750 0
M  V30 7 N 5.467003 3.277481 -2.797967 0
M  V30 8 N 5.179274 4.169985 -3.727791 0
M  V30 9 C 3.919941 4.616966 -3.837770 0
M  V30 10 N 2.974319 4.145947 -2.995757 0
M  V30 11 C 3.267891 3.244458 -2.056603 0
M  V30 12 N 2.214503 2.813945 -1.212406 0
M  V30 13 C 0.913668 3.357726 -1.531361 0 CFG=1
M  V30 14 C 0.392137 2.874021 -2.858271 0
M  V30 15 C -1.060274 3.066722 -3.076768 0
M  V30 16 C -1.989874 2.797184 -1.956554 0 CFG=1
M  V30 17 N -3.141854 2.119743 -2.340819 0
M  V30 18 C -4.061849 1.646561 -1.354602 0
M  V30 19 C -5.026065 0.622499 -1.958413 0
M  V30 20 N -4.489059 0.109280 -3.211435 0
M  V30 21 C -4.098900 -1.265452 -3.403761 0
M  V30 22 O -4.481165 -1.712950 -2.300561 0
M  V30 23 C -3.488165 -1.382134 -4.729763 0
M  V30 24 C -3.052295 -2.733977 -5.152521 0
M  V30 25 C -2.107509 -3.419061 -4.259748 0
M  V30 26 O -2.322410 -2.848845 -3.159699 0
M  V30 27 N -1.163016 -4.446618 -4.436256 0
M  V30 28 C -0.396610 -4.945321 -3.343861 0
M  V30 29 C 0.400894 -3.945469 -2.567811 0
M  V30 30 O 1.106292 -4.585360 -1.519853 0
M  V30 31 C 1.704194 -3.673472 -0.682010 0
M  V30 32 C 2.447506 -4.384248 0.433876 0
M  V30 33 O 3.030077 -3.514979 1.326845 0
M  V30 34 C 3.706609 -4.194248 2.296410 0
M  V30 35 C 4.241672 -3.383435 3.441859 0
M  V30 36 O 3.274186 -2.748447 4.144875 0
M  V30 37 C 2.515876 -1.777095 3.555127 0
M  V30 38 C 1.460270 -1.402158 4.624405 0
M  V30 39 N 0.556210 -0.409019 4.265031 0
M  V30 40 C -0.353043 0.590489 3.903471 0
M  V30 41 C -0.211052 1.944181 3.743358 0
M  V30 42 C -1.250970 2.776058 3.407389 0
M  V30 43 C -2.453827 2.141354 3.241815 0
M  V30 44 C -2.713022 0.800099 3.374350 0
M  V30 45 C -1.621788 0.022707 3.714097 0
M  V30 46 C -2.219882 -1.328627 3.749489 0
M  V30 47 O -1.624332 -2.396443 4.015528 0
M  V30 48 N -3.603635 -1.318300 3.439977 0
M  V30 49 C -4.534632 -2.393158 3.337945 0
M  V30 50 C -4.550748 -3.247471 4.553395 0
M  V30 51 C -5.413829 -4.476981 4.410790 0
M  V30 52 C -5.381305 -5.080456 3.077949 0
M  V30 53 O -5.993113 -6.136308 2.872505 0
M  V30 54 N -4.666903 -4.514103 1.961403 0
M  V30 55 C -4.021081 -3.269350 2.216216 0
M  V30 56 O -3.038784 -2.955493 1.481715 0
M  V30 57 C -3.937740 0.041197 3.196850 0
M  V30 58 O -5.071687 0.494120 2.889487 0
M  V30 59 C -4.475082 1.213246 -4.166732 0
M  V30 60 C -3.773460 2.413739 -3.584379 0
M  V30 61 C -1.205773 2.225044 -0.834325 0
M  V30 62 C -0.096288 3.180499 -0.434327 0
M  V30 63 C 4.559643 2.781589 -1.941717 0
M  V30 64 H 4.471844 2.860791 1.076255 0
M  V30 65 H 3.202361 1.634146 1.611013 0
M  V30 66 H 4.893873 1.490760 2.094602 0
M  V30 67 H 5.447510 0.422742 0.304293 0
M  V30 68 H 3.949924 -1.039128 -0.425700 0
M  V30 69 H 2.755826 0.019723 0.324546 0
M  V30 70 H 3.166486 0.144912 -1.467722 0
M  V30 71 H 7.302813 1.283418 -1.107532 0
M  V30 72 H 7.621993 2.925082 -3.082214 0
M  V30 73 H 3.623310 5.358235 -4.592929 0
M  V30 74 H 2.026800 2.219847 -0.398733 0
M  V30 75 H 1.073226 4.452778 -1.629206 0
M  V30 76 H 0.919966 3.325579 -3.713902 0
M  V30 77 H 0.563457 1.758116 -2.970467 0
M  V30 78 H -1.178704 4.115709 -3.488672 0
M  V30 79 H -1.336550 2.328173 -3.896174 0
M  V30 80 H -2.325996 3.826889 -1.585952 0
M  V30 81 H -3.597040 1.182120 -0.475642 0
M  V30 82 H -4.680350 2.491809 -1.009917 0
M  V30 83 H -5.151201 -0.239821 -1.280866 0
M  V30 84 H -6.020975 1.049471 -2.158214 0
M  V30 85 H -2.627828 -0.686591 -4.865946 0
M  V30 86 H -4.262874 -1.052246 -5.477135 0
M  V30 87 H -2.636849 -2.733292 -6.188324 0
M  V30 88 H -3.956808 -3.391125 -5.225318 0
M  V30 89 H -1.151049 -4.735122 -5.459451 0
M  V30 90 H -1.090257 -5.514858 -2.672662 0
M  V30 91 H 0.326788 -5.724856 -3.727931 0
M  V30 92 H 1.099441 -3.429144 -3.245151 0
M  V30 93 H -0.271854 -3.179432 -2.158742 0
M  V30 94 H 2.437777 -3.038132 -1.214312 0
M  V30 95 H 0.951520 -3.017022 -0.209725 0
M  V30 96 H 3.180105 -5.118800 0.093024 0
M  V30 97 H 1.653584 -4.938247 1.002008 0
M  V30 98 H 2.993231 -4.935152 2.744694 0
M  V30 99 H 4.532175 -4.809541 1.848649 0
M  V30 100 H 4.711689 -4.135204 4.142377 0
M  V30 101 H 5.088260 -2.728872 3.136647 0
M  V30 102 H 3.161863 -0.866739 3.480508 0
M  V30 103 H 2.020862 -2.024412 2.619931 0
M  V30 104 H 0.953037 -2.419860 4.773453 0
M  V30 105 H 2.040606 -1.175841 5.542917 0
M  V30 106 H 1.427631 0.219404 4.262253 0
M  V30 107 H 0.761753 2.342874 3.893534 0
M  V30 108 H -1.036334 3.818512 3.306462 0
M  V30 109 H -3.280178 2.784595 2.977363 0
M  V30 110 H -5.561914 -2.042627 3.091742 0
M  V30 111 H -4.882919 -2.725078 5.472418 0
M  V30 112 H -3.492352 -3.587057 4.756135 0
M  V30 113 H -4.993752 -5.239470 5.125579 0
M  V30 114 H -6.453720 -4.296702 4.732601 0
M  V30 115 H -4.579163 -4.918551 1.007543 0
M  V30 116 H -5.507020 1.460366 -4.472422 0
M  V30 117 H -3.906810 0.888025 -5.051066 0
M  V30 118 H -3.159366 2.874612 -4.319322 0
M  V30 119 H -4.587027 3.163922 -3.340663 0
M  V30 120 H -0.667413 1.292114 -1.170397 0
M  V30 121 H -1.746180 1.991349 0.083344 0
M  V30 122 H 0.378692 2.726964 0.449370 0
M  V30 123 H -0.590238 4.114383 -0.114807 0
M  V30 END ATOM
M  V30 BEGIN BOND
M  V30 1 1 1 2
M  V30 2 1 2 3
M  V30 3 1 2 4
M  V30 4 1 4 5
M  V30 5 2 5 6
M  V30 6 1 6 7
M  V30 7 1 7 8
M  V30 8 2 8 9
M  V30 9 1 9 10
M  V30 10 2 10 11
M  V30 11 1 11 12
M  V30 12 1 12 13
M  V30 13 1 13 14
M  V30 14 1 14 15
M  V30 15 1 15 16
M  V30 16 1 16 17
M  V30 17 1 17 18
M  V30 18 1 18 19
M  V30 19 1 19 20
M  V30 20 1 20 21
M  V30 21 2 21 22
M  V30 22 1 21 23
M  V30 23 1 23 24
M  V30 24 1 24 25
M  V30 25 2 25 26
M  V30 26 1 25 27
M  V30 27 1 27 28
M  V30 28 1 28 29
M  V30 29 1 29 30
M  V30 30 1 30 31
M  V30 31 1 31 32
M  V30 32 1 32 33
M  V30 33 1 33 34
M  V30 34 1 34 35
M  V30 35 1 35 36
M  V30 36 1 36 37
M  V30 37 1 37 38
M  V30 38 1 38 39
M  V30 39 1 39 40
M  V30 40 2 40 41
M  V30 41 1 41 42
M  V30 42 2 42 43
M  V30 43 1 43 44
M  V30 44 2 44 45
M  V30 45 1 45 46
M  V30 46 2 46 47
M  V30 47 1 46 48
M  V30 48 1 48 49
M  V30 49 1 49 50
M  V30 50 1 50 51
M  V30 51 1 51 52
M  V30 52 2 52 53
M  V30 53 1 52 54
M  V30 54 1 54 55
M  V30 55 2 55 56
M  V30 56 1 48 57
M  V30 57 2 57 58
M  V30 58 1 20 59
M  V30 59 1 59 60
M  V30 60 1 16 61
M  V30 61 1 61 62
M  V30 62 1 11 63
M  V30 63 2 63 4
M  V30 64 1 63 7
M  V30 65 1 62 13
M  V30 66 1 60 17
M  V30 67 1 45 40
M  V30 68 1 55 49
M  V30 69 1 57 44
M  V30 70 1 1 64
M  V30 71 1 1 65
M  V30 72 1 1 66
M  V30 73 1 2 67
M  V30 74 1 3 68
M  V30 75 1 3 69
M  V30 76 1 3 70
M  V30 77 1 5 71
M  V30 78 1 6 72
M  V30 79 1 9 73
M  V30 80 1 12 74
M  V30 81 1 13 75 CFG=3
M  V30 82 1 14 76
M  V30 83 1 14 77
M  V30 84 1 15 78
M  V30 85 1 15 79
M  V30 86 1 16 80 CFG=1
M  V30 87 1 18 81
M  V30 88 1 18 82
M  V30 89 1 19 83
M  V30 90 1 19 84
M  V30 91 1 23 85
M  V30 92 1 23 86
M  V30 93 1 24 87
M  V30 94 1 24 88
M  V30 95 1 27 89
M  V30 96 1 28 90
M  V30 97 1 28 91
M  V30 98 1 29 92
M  V30 99 1 29 93
M  V30 100 1 31 94
M  V30 101 1 31 95
M  V30 102 1 32 96
M  V30 103 1 32 97
M  V30 104 1 34 98
M  V30 105 1 34 99
M  V30 106 1 35 100
M  V30 107 1 35 101
M  V30 108 1 37 102
M  V30 109 1 37 103
M  V30 110 1 38 104
M  V30 111 1 38 105
M  V30 112 1 39 106
M  V30 113 1 41 107
M  V30 114 1 42 108
M  V30 115 1 43 109
M  V30 116 1 49 110
M  V30 117 1 50 111
M  V30 118 1 50 112
M  V30 119 1 51 113
M  V30 120 1 51 114
M  V30 121 1 54 115
M  V30 122 1 59 116
M  V30 123 1 59 117
M  V30 124 1 60 118
M  V30 125 1 60 119
M  V30 126 1 61 120
M  V30 127 1 61 121
M  V30 128 1 62 122
M  V30 129 1 62 123
M  V30 END BOND
M  V30 END CTAB
M  END
>  <Dataset>  (550) 
ChEMBL_Kinases

>  <Ligand_Instance>  (550) 
nan

>  <PDB_ID>  (550) 
nan

>  <Standardized_SMILES>  (550) 
CC(C)c1ccn2ncnc(N[C@H]3CC[C@@H](N4CCN(C(=O)CCC(=O)NCCOCCOCCOCCNc5cccc6c5C(=O)N(C5CCC(=O)NC5=O)C6=O)CC4)CC3)c12

>  <Name>  (550) 
nan

>  <Pocket>  (550) 
nan

>  <ATP_Site>  (550) 
nan

>  <Peripheral>  (550) 
nan

>  <Num_H_Atoms_ProtBoundConf>  (550) 
nan

>  <Num_Resolved_Atoms>  (550) 
nan

>  <Num_Not_Resolved_Atoms>  (550) 
nan

$$$$
CHEMBL4288604
     RDKit          3D

  0  0  0  0  0  0  0  0  0  0999 V3000
M  V30 BEGIN CTAB
M  V30 COUNTS 53 57 0 0 0
M  V30 BEGIN ATOM
M  V30 1 C 1.702769 -2.758312 3.185926 0
M  V30 2 N 2.456057 -3.925325 2.794891 0
M  V30 3 C 3.417352 -3.566238 1.812700 0
M  V30 4 C 2.872833 -3.608946 0.400163 0
M  V30 5 N 1.428062 -3.593212 0.548490 0
M  V30 6 C 0.581445 -2.507931 0.214014 0
M  V30 7 C 1.078649 -1.336038 -0.302255 0
M  V30 8 C 0.266869 -0.270316 -0.632832 0
M  V30 9 C -1.102369 -0.320953 -0.462412 0
M  V30 10 C -2.014615 0.754326 -0.786254 0
M  V30 11 C -2.007128 2.001376 -0.192363 0
M  V30 12 C -1.013462 2.270320 0.836087 0
M  V30 13 C -0.166771 3.325983 0.477557 0
M  V30 14 C 0.840974 3.715047 1.347540 0
M  V30 15 C 0.972730 3.031494 2.559092 0
M  V30 16 N 1.993538 3.383364 3.504215 0
M  V30 17 N 0.139497 2.021404 2.868774 0
M  V30 18 C -0.845119 1.630321 2.035135 0
M  V30 19 C -2.927154 2.985627 -0.564484 0
M  V30 20 N -3.841964 2.701568 -1.528945 0
M  V30 21 C -3.883791 1.496826 -2.134072 0
M  V30 22 N -4.704689 1.020049 -3.103865 0
M  V30 23 C -4.317720 -0.248065 -3.349398 0
M  V30 24 C -3.251087 -0.613662 -2.552980 0
M  V30 25 C -2.971217 0.510117 -1.769895 0
M  V30 26 C -1.603556 -1.507894 0.060364 0
M  V30 27 C -0.779875 -2.566450 0.386795 0
M  V30 28 C 0.991563 -4.862962 1.091995 0
M  V30 29 C 1.571581 -4.988464 2.478084 0
M  V30 30 H 1.854353 -2.519969 4.278710 0
M  V30 31 H 1.991572 -1.831715 2.653305 0
M  V30 32 H 0.604520 -2.922692 3.080609 0
M  V30 33 H 3.868967 -2.562791 1.974692 0
M  V30 34 H 4.243503 -4.302799 1.869771 0
M  V30 35 H 3.276250 -2.757503 -0.176681 0
M  V30 36 H 3.208133 -4.554218 -0.079206 0
M  V30 37 H 2.103561 -1.158357 -0.484348 0
M  V30 38 H 0.640679 0.658755 -1.039827 0
M  V30 39 H -0.209066 3.902735 -0.445679 0
M  V30 40 H 1.533457 4.531991 1.123961 0
M  V30 41 H 2.845442 2.889925 3.849008 0
M  V30 42 H 1.878368 4.333982 3.955906 0
M  V30 43 H -1.546352 0.831690 2.218804 0
M  V30 44 H -2.905227 3.949666 -0.090813 0
M  V30 45 H -5.485302 1.555301 -3.560469 0
M  V30 46 H -4.762590 -0.933264 -4.075688 0
M  V30 47 H -2.739011 -1.571915 -2.539192 0
M  V30 48 H -2.690185 -1.561878 0.201128 0
M  V30 49 H -1.282162 -3.412348 0.775961 0
M  V30 50 H -0.104645 -5.008705 1.080332 0
M  V30 51 H 1.418203 -5.682789 0.464907 0
M  V30 52 H 2.177506 -5.939892 2.560459 0
M  V30 53 H 0.782688 -5.120244 3.249885 0
M  V30 END ATOM
M  V30 BEGIN BOND
M  V30 1 1 1 2
M  V30 2 1 2 3
M  V30 3 1 3 4
M  V30 4 1 4 5
M  V30 5 1 5 6
M  V30 6 2 6 7
M  V30 7 1 7 8
M  V30 8 2 8 9
M  V30 9 1 9 10
M  V30 10 1 10 11
M  V30 11 1 11 12
M  V30 12 2 12 13
M  V30 13 1 13 14
M  V30 14 2 14 15
M  V30 15 1 15 16
M  V30 16 1 15 17
M  V30 17 2 17 18
M  V30 18 2 11 19
M  V30 19 1 19 20
M  V30 20 2 20 21
M  V30 21 1 21 22
M  V30 22 1 22 23
M  V30 23 2 23 24
M  V30 24 1 24 25
M  V30 25 1 9 26
M  V30 26 2 26 27
M  V30 27 1 5 28
M  V30 28 1 28 29
M  V30 29 1 29 2
M  V30 30 1 27 6
M  V30 31 2 25 10
M  V30 32 1 18 12
M  V30 33 1 25 21
M  V30 34 1 1 30
M  V30 35 1 1 31
M  V30 36 1 1 32
M  V30 37 1 3 33
M  V30 38 1 3 34
M  V30 39 1 4 35
M  V30 40 1 4 36
M  V30 41 1 7 37
M  V30 42 1 8 38
M  V30 43 1 13 39
M  V30 44 1 14 40
M  V30 45 1 16 41
M  V30 46 1 16 42
M  V30 47 1 18 43
M  V30 48 1 19 44
M  V30 49 1 22 45
M  V30 50 1 23 46
M  V30 51 1 24 47
M  V30 52 1 26 48
M  V30 53 1 27 49
M  V30 54 1 28 50
M  V30 55 1 28 51
M  V30 56 1 29 52
M  V30 57 1 29 53
M  V30 END BOND
M  V30 END CTAB
M  END
>  <Dataset>  (551) 
ChEMBL_Kinases

>  <Ligand_Instance>  (551) 
nan

>  <PDB_ID>  (551) 
nan

>  <Standardized_SMILES>  (551) 
CN1CCN(c2ccc(-c3c(-c4ccc(N)nc4)cnc4[nH]ccc34)cc2)CC1

>  <Name>  (551) 
nan

>  <Pocket>  (551) 
nan

>  <ATP_Site>  (551) 
nan

>  <Peripheral>  (551) 
nan

>  <Num_H_Atoms_ProtBoundConf>  (551) 
nan

>  <Num_Resolved_Atoms>  (551) 
nan

>  <Num_Not_Resolved_Atoms>  (551) 
nan

$$$$
CHEMBL4757442
     RDKit          3D

  0  0  0  0  0  0  0  0  0  0999 V3000
M  V30 BEGIN CTAB
M  V30 COUNTS 54 59 0 0 0
M  V30 BEGIN ATOM
M  V30 1 C 6.721137 -2.970899 -0.846269 0
M  V30 2 O 6.178477 -1.733468 -0.452159 0
M  V30 3 C 4.823088 -1.554251 -0.219873 0
M  V30 4 C 3.870714 -2.542291 -0.344302 0
M  V30 5 N 2.559973 -2.349624 -0.114685 0
M  V30 6 C 2.129728 -1.120443 0.261742 0
M  V30 7 C 3.035048 -0.090046 0.403569 0
M  V30 8 C 2.513492 1.208868 0.810524 0
M  V30 9 C 3.263841 2.336564 0.998750 0
M  V30 10 C 2.714076 3.544066 1.385968 0
M  V30 11 C 1.348563 3.644205 1.599187 0
M  V30 12 N 0.504804 4.640910 1.972302 0
M  V30 13 N -0.731067 4.118834 2.007062 0
M  V30 14 C -0.684335 2.828700 1.667538 0
M  V30 15 C -1.815997 1.909434 1.585425 0
M  V30 16 N -1.765494 0.608932 1.242770 0
M  V30 17 C -2.995649 0.068391 1.271979 0
M  V30 18 C -3.542413 -1.181515 1.024317 0
M  V30 19 N -2.699918 -2.227123 0.638842 0
M  V30 20 C -1.945128 -2.011531 -0.605742 0
M  V30 21 C -2.705178 -2.746925 -1.667245 0
M  V30 22 C -3.192996 -4.055087 -1.083858 0
M  V30 23 C -2.339749 -4.499081 0.102030 0
M  V30 24 C -2.421402 -3.523235 1.253125 0
M  V30 25 C -4.908916 -1.295246 1.182406 0
M  V30 26 C -5.758302 -0.265614 1.564723 0
M  V30 27 N -5.194380 0.933912 1.797030 0
M  V30 28 C -3.866319 1.095372 1.656534 0
M  V30 29 N -3.102477 2.211550 1.839895 0
M  V30 30 C 0.631216 2.503689 1.403126 0
M  V30 31 N 1.190224 1.326605 1.022490 0
M  V30 32 C 4.374987 -0.307322 0.163590 0
M  V30 33 H 7.676944 -2.833611 -1.426492 0
M  V30 34 H 6.031957 -3.560924 -1.500871 0
M  V30 35 H 6.998196 -3.563481 0.038470 0
M  V30 36 H 4.183631 -3.526123 -0.641193 0
M  V30 37 H 1.061760 -1.045038 0.427767 0
M  V30 38 H 4.323147 2.277377 0.838126 0
M  V30 39 H 3.336685 4.414771 1.525363 0
M  V30 40 H 0.844033 5.618692 2.178218 0
M  V30 41 H -0.931045 -2.469569 -0.544788 0
M  V30 42 H -1.774076 -0.951601 -0.811224 0
M  V30 43 H -3.617747 -2.158601 -1.974420 0
M  V30 44 H -2.132815 -2.918680 -2.593534 0
M  V30 45 H -3.104556 -4.855843 -1.837949 0
M  V30 46 H -4.240192 -3.972068 -0.696053 0
M  V30 47 H -1.293787 -4.594520 -0.272655 0
M  V30 48 H -2.692245 -5.486066 0.405562 0
M  V30 49 H -3.088064 -3.803413 2.061324 0
M  V30 50 H -1.392231 -3.431073 1.686010 0
M  V30 51 H -5.281064 -2.309264 0.971680 0
M  V30 52 H -6.802451 -0.472507 1.654545 0
M  V30 53 H -3.490090 3.137484 2.132101 0
M  V30 54 H 5.085324 0.474274 0.267923 0
M  V30 END ATOM
M  V30 BEGIN BOND
M  V30 1 1 1 2
M  V30 2 1 2 3
M  V30 3 2 3 4
M  V30 4 1 4 5
M  V30 5 2 5 6
M  V30 6 1 6 7
M  V30 7 1 7 8
M  V30 8 2 8 9
M  V30 9 1 9 10
M  V30 10 2 10 11
M  V30 11 1 11 12
M  V30 12 1 12 13
M  V30 13 2 13 14
M  V30 14 1 14 15
M  V30 15 2 15 16
M  V30 16 1 16 17
M  V30 17 2 17 18
M  V30 18 1 18 19
M  V30 19 1 19 20
M  V30 20 1 20 21
M  V30 21 1 21 22
M  V30 22 1 22 23
M  V30 23 1 23 24
M  V30 24 1 18 25
M  V30 25 2 25 26
M  V30 26 1 26 27
M  V30 27 2 27 28
M  V30 28 1 28 29
M  V30 29 1 14 30
M  V30 30 2 30 31
M  V30 31 2 7 32
M  V30 32 1 32 3
M  V30 33 1 31 8
M  V30 34 1 30 11
M  V30 35 1 29 15
M  V30 36 1 28 17
M  V30 37 1 24 19
M  V30 38 1 1 33
M  V30 39 1 1 34
M  V30 40 1 1 35
M  V30 41 1 4 36
M  V30 42 1 6 37
M  V30 43 1 9 38
M  V30 44 1 10 39
M  V30 45 1 12 40
M  V30 46 1 20 41
M  V30 47 1 20 42
M  V30 48 1 21 43
M  V30 49 1 21 44
M  V30 50 1 22 45
M  V30 51 1 22 46
M  V30 52 1 23 47
M  V30 53 1 23 48
M  V30 54 1 24 49
M  V30 55 1 24 50
M  V30 56 1 25 51
M  V30 57 1 26 52
M  V30 58 1 29 53
M  V30 59 1 32 54
M  V30 END BOND
M  V30 END CTAB
M  END
>  <Dataset>  (552) 
ChEMBL_Kinases

>  <Ligand_Instance>  (552) 
nan

>  <PDB_ID>  (552) 
nan

>  <Standardized_SMILES>  (552) 
COc1cncc(-c2ccc3[nH]nc(-c4nc5c(N6CCCCC6)ccnc5[nH]4)c3n2)c1

>  <Name>  (552) 
nan

>  <Pocket>  (552) 
nan

>  <ATP_Site>  (552) 
nan

>  <Peripheral>  (552) 
nan

>  <Num_H_Atoms_ProtBoundConf>  (552) 
nan

>  <Num_Resolved_Atoms>  (552) 
nan

>  <Num_Not_Resolved_Atoms>  (552) 
nan

$$$$
CHEMBL4288550
     RDKit          3D

  0  0  0  0  0  0  0  0  0  0999 V3000
M  V30 BEGIN CTAB
M  V30 COUNTS 45 49 0 0 0
M  V30 BEGIN ATOM
M  V30 1 O -0.760419 -8.540718 1.385921 0
M  V30 2 C -0.418651 -7.330013 1.320562 0
M  V30 3 N 0.386976 -6.594554 2.134000 0
M  V30 4 C 0.424496 -5.350532 1.619603 0
M  V30 5 C 1.097908 -4.228637 2.067590 0
M  V30 6 C 0.933633 -3.089343 1.312422 0
M  V30 7 C 0.182111 -2.929107 0.166203 0
M  V30 8 C 0.077940 -1.671435 -0.558375 0
M  V30 9 N 0.760677 -0.727557 -0.014084 0
M  V30 10 N 0.819937 0.570630 -0.523466 0
M  V30 11 C 0.183604 0.921281 -1.595155 0
M  V30 12 N 0.402186 2.281779 -1.903443 0
M  V30 13 C 0.293728 3.450667 -1.101205 0
M  V30 14 C 0.917754 3.412470 0.229907 0
M  V30 15 C 2.203113 3.887376 0.422223 0
M  V30 16 C 2.846218 3.842588 1.650342 0
M  V30 17 C 2.195314 3.304951 2.745512 0
M  V30 18 C 0.927493 2.827637 2.595847 0
M  V30 19 C 0.253659 2.305614 3.673667 0
M  V30 20 C -1.054603 1.819289 3.581938 0
M  V30 21 C -1.705065 1.863969 2.350530 0
M  V30 22 C -1.006859 2.389855 1.292690 0
M  V30 23 C 0.287858 2.876977 1.355259 0
M  V30 24 S -0.844910 -0.128943 -2.614767 0
M  V30 25 C -0.797901 -1.732968 -1.781879 0
M  V30 26 C -0.467586 -4.110946 -0.220001 0
M  V30 27 C -0.354286 -5.292024 0.482311 0
M  V30 28 N -0.866066 -6.524230 0.314886 0
M  V30 29 H 0.863016 -6.977783 2.990000 0
M  V30 30 H 1.708572 -4.253563 2.950530 0
M  V30 31 H 1.479616 -2.221382 1.695967 0
M  V30 32 H 0.680548 2.450370 -2.935389 0
M  V30 33 H -0.783092 3.755954 -0.978921 0
M  V30 34 H 0.766638 4.316908 -1.669611 0
M  V30 35 H 2.700114 4.308479 -0.453639 0
M  V30 36 H 3.837876 4.220255 1.750388 0
M  V30 37 H 2.651847 3.246368 3.725178 0
M  V30 38 H 0.746154 2.261850 4.640549 0
M  V30 39 H -1.607387 1.401950 4.414840 0
M  V30 40 H -2.719813 1.491860 2.256810 0
M  V30 41 H -1.506392 2.423314 0.343369 0
M  V30 42 H -0.484195 -2.559267 -2.429877 0
M  V30 43 H -1.833751 -1.901777 -1.363781 0
M  V30 44 H -1.081013 -4.043112 -1.128770 0
M  V30 45 H -1.508165 -6.797505 -0.476540 0
M  V30 END ATOM
M  V30 BEGIN BOND
M  V30 1 2 1 2
M  V30 2 1 2 3
M  V30 3 1 3 4
M  V30 4 2 4 5
M  V30 5 1 5 6
M  V30 6 2 6 7
M  V30 7 1 7 8
M  V30 8 2 8 9
M  V30 9 1 9 10
M  V30 10 2 10 11
M  V30 11 1 11 12
M  V30 12 1 12 13
M  V30 13 1 13 14
M  V30 14 2 14 15
M  V30 15 1 15 16
M  V30 16 2 16 17
M  V30 17 1 17 18
M  V30 18 2 18 19
M  V30 19 1 19 20
M  V30 20 2 20 21
M  V30 21 1 21 22
M  V30 22 2 22 23
M  V30 23 1 11 24
M  V30 24 1 24 25
M  V30 25 1 7 26
M  V30 26 2 26 27
M  V30 27 1 27 28
M  V30 28 1 28 2
M  V30 29 1 27 4
M  V30 30 1 25 8
M  V30 31 1 23 14
M  V30 32 1 23 18
M  V30 33 1 3 29
M  V30 34 1 5 30
M  V30 35 1 6 31
M  V30 36 1 12 32
M  V30 37 1 13 33
M  V30 38 1 13 34
M  V30 39 1 15 35
M  V30 40 1 16 36
M  V30 41 1 17 37
M  V30 42 1 19 38
M  V30 43 1 20 39
M  V30 44 1 21 40
M  V30 45 1 22 41
M  V30 46 1 25 42
M  V30 47 1 25 43
M  V30 48 1 26 44
M  V30 49 1 28 45
M  V30 END BOND
M  V30 END CTAB
M  END
>  <Dataset>  (553) 
ChEMBL_Kinases

>  <Ligand_Instance>  (553) 
nan

>  <PDB_ID>  (553) 
nan

>  <Standardized_SMILES>  (553) 
O=c1[nH]c2ccc(C3=NN=C(NCc4cccc5ccccc45)SC3)cc2[nH]1

>  <Name>  (553) 
nan

>  <Pocket>  (553) 
nan

>  <ATP_Site>  (553) 
nan

>  <Peripheral>  (553) 
nan

>  <Num_H_Atoms_ProtBoundConf>  (553) 
nan

>  <Num_Resolved_Atoms>  (553) 
nan

>  <Num_Not_Resolved_Atoms>  (553) 
nan

$$$$
CHEMBL4757470
     RDKit          3D

  0  0  0  0  0  0  0  0  0  0999 V3000
M  V30 BEGIN CTAB
M  V30 COUNTS 75 80 0 0 0
M  V30 BEGIN ATOM
M  V30 1 C -1.570076 -10.585609 1.625367 0
M  V30 2 N -1.014849 -9.477976 0.832234 0
M  V30 3 C -1.082723 -8.153187 1.394729 0
M  V30 4 O -1.596643 -7.951094 2.518611 0
M  V30 5 C -0.510808 -7.067571 0.562472 0
M  V30 6 S 0.248499 -7.280735 -1.071449 0
M  V30 7 C 0.588186 -5.418527 -1.180846 0
M  V30 8 C 1.279727 -4.918244 -2.445665 0
M  V30 9 C 1.665306 -5.729890 -3.462797 0
M  V30 10 C 2.272995 -5.072658 -4.517579 0
M  V30 11 N 2.450568 -3.739949 -4.503521 0
M  V30 12 C 2.052277 -2.954473 -3.467969 0
M  V30 13 N 2.244093 -1.535559 -3.452875 0
M  V30 14 C 1.395874 -0.499553 -3.928007 0
M  V30 15 O 0.272827 -0.656405 -4.472940 0
M  V30 16 C 1.932677 0.891581 -3.739671 0
M  V30 17 C 2.500012 1.151074 -2.323364 0
M  V30 18 C 3.368835 1.131899 -3.506801 0
M  V30 19 C 1.430450 -3.562036 -2.369855 0
M  V30 20 N 0.167380 -5.078430 -0.204563 0
M  V30 21 C -0.406408 -5.728556 0.773004 0
M  V30 22 O -0.923149 -5.241457 1.993868 0
M  V30 23 C -0.865736 -3.863189 2.318607 0
M  V30 24 C -1.614192 -3.044536 1.292358 0
M  V30 25 O -2.944673 -3.352646 1.177035 0
M  V30 26 C -3.599696 -2.584297 0.213356 0
M  V30 27 C -3.505195 -1.139435 0.536859 0
M  V30 28 C -3.417101 0.038609 0.782066 0
M  V30 29 C -3.286952 1.442066 1.074756 0
M  V30 30 C -4.346664 2.325851 1.053449 0
M  V30 31 C -4.067120 3.656723 1.357431 0
M  V30 32 C -2.796895 4.100400 1.669697 0
M  V30 33 C -1.744150 3.211568 1.688981 0
M  V30 34 C -1.995949 1.881009 1.390220 0
M  V30 35 C -0.487212 3.878346 2.041581 0
M  V30 36 O 0.646532 3.334825 2.141389 0
M  V30 37 N -0.808756 5.247817 2.245145 0
M  V30 38 C 0.205756 6.229698 2.613330 0
M  V30 39 C 1.243747 6.271716 1.510735 0
M  V30 40 C 2.608688 6.615334 2.100949 0
M  V30 41 C 3.049650 5.401806 2.848255 0
M  V30 42 O 4.034580 4.610615 2.729753 0
M  V30 43 N 2.149496 5.101601 3.910386 0
M  V30 44 C 0.902170 5.812087 3.881855 0
M  V30 45 O 0.285180 6.145964 4.944915 0
M  V30 46 C -2.220679 5.394821 2.020164 0
M  V30 47 O -2.824967 6.485353 2.119771 0
M  V30 48 H -0.781463 -11.281009 1.976100 0
M  V30 49 H -2.217406 -10.219965 2.431367 0
M  V30 50 H -2.213787 -11.172176 0.927224 0
M  V30 51 H -0.597525 -9.713628 -0.105146 0
M  V30 52 H 1.476716 -6.789328 -3.378554 0
M  V30 53 H 2.602852 -5.689789 -5.365190 0
M  V30 54 H 3.169310 -1.353518 -3.008065 0
M  V30 55 H 1.260623 1.691407 -4.119476 0
M  V30 56 H 2.240971 2.118518 -1.878505 0
M  V30 57 H 2.432959 0.318677 -1.592161 0
M  V30 58 H 4.065733 0.319414 -3.752325 0
M  V30 59 H 3.777089 2.123849 -3.851816 0
M  V30 60 H 1.123522 -2.921952 -1.561447 0
M  V30 61 H -1.274840 -3.754929 3.337083 0
M  V30 62 H 0.207960 -3.586085 2.315662 0
M  V30 63 H -1.557444 -1.958028 1.587088 0
M  V30 64 H -1.069225 -3.118987 0.330622 0
M  V30 65 H -4.671958 -2.848190 0.279411 0
M  V30 66 H -3.156257 -2.817954 -0.755912 0
M  V30 67 H -5.325077 1.947257 0.805936 0
M  V30 68 H -4.878462 4.370412 1.348420 0
M  V30 69 H -1.149562 1.193318 1.410660 0
M  V30 70 H -0.179651 7.240752 2.737283 0
M  V30 71 H 1.342306 5.272595 1.039771 0
M  V30 72 H 1.018390 7.087605 0.790558 0
M  V30 73 H 3.326911 6.862791 1.305597 0
M  V30 74 H 2.536282 7.437067 2.833139 0
M  V30 75 H 2.282236 4.436010 4.698096 0
M  V30 END ATOM
M  V30 BEGIN BOND
M  V30 1 1 1 2
M  V30 2 1 2 3
M  V30 3 2 3 4
M  V30 4 1 3 5
M  V30 5 1 5 6
M  V30 6 1 6 7
M  V30 7 1 7 8
M  V30 8 2 8 9
M  V30 9 1 9 10
M  V30 10 2 10 11
M  V30 11 1 11 12
M  V30 12 1 12 13
M  V30 13 1 13 14
M  V30 14 2 14 15
M  V30 15 1 14 16
M  V30 16 1 16 17
M  V30 17 1 17 18
M  V30 18 2 12 19
M  V30 19 2 7 20
M  V30 20 1 20 21
M  V30 21 1 21 22
M  V30 22 1 22 23
M  V30 23 1 23 24
M  V30 24 1 24 25
M  V30 25 1 25 26
M  V30 26 1 26 27
M  V30 27 3 27 28
M  V30 28 1 28 29
M  V30 29 2 29 30
M  V30 30 1 30 31
M  V30 31 2 31 32
M  V30 32 1 32 33
M  V30 33 2 33 34
M  V30 34 1 33 35
M  V30 35 2 35 36
M  V30 36 1 35 37
M  V30 37 1 37 38
M  V30 38 1 38 39
M  V30 39 1 39 40
M  V30 40 1 40 41
M  V30 41 2 41 42
M  V30 42 1 41 43
M  V30 43 1 43 44
M  V30 44 2 44 45
M  V30 45 1 37 46
M  V30 46 2 46 47
M  V30 47 2 21 5
M  V30 48 1 34 29
M  V30 49 1 44 38
M  V30 50 1 19 8
M  V30 51 1 46 32
M  V30 52 1 18 16
M  V30 53 1 1 48
M  V30 54 1 1 49
M  V30 55 1 1 50
M  V30 56 1 2 51
M  V30 57 1 9 52
M  V30 58 1 10 53
M  V30 59 1 13 54
M  V30 60 1 16 55
M  V30 61 1 17 56
M  V30 62 1 17 57
M  V30 63 1 18 58
M  V30 64 1 18 59
M  V30 65 1 19 60
M  V30 66 1 23 61
M  V30 67 1 23 62
M  V30 68 1 24 63
M  V30 69 1 24 64
M  V30 70 1 26 65
M  V30 71 1 26 66
M  V30 72 1 30 67
M  V30 73 1 31 68
M  V30 74 1 34 69
M  V30 75 1 38 70
M  V30 76 1 39 71
M  V30 77 1 39 72
M  V30 78 1 40 73
M  V30 79 1 40 74
M  V30 80 1 43 75
M  V30 END BOND
M  V30 END CTAB
M  END
>  <Dataset>  (554) 
ChEMBL_Kinases

>  <Ligand_Instance>  (554) 
nan

>  <PDB_ID>  (554) 
nan

>  <Standardized_SMILES>  (554) 
CNC(=O)c1sc(-c2ccnc(NC(=O)C3CC3)c2)nc1OCCOCC#Cc1ccc2c(c1)C(=O)N(C1CCC(=O)NC1=O)C2=O

>  <Name>  (554) 
nan

>  <Pocket>  (554) 
nan

>  <ATP_Site>  (554) 
nan

>  <Peripheral>  (554) 
nan

>  <Num_H_Atoms_ProtBoundConf>  (554) 
nan

>  <Num_Resolved_Atoms>  (554) 
nan

>  <Num_Not_Resolved_Atoms>  (554) 
nan

$$$$
CHEMBL4288534
     RDKit          3D

  0  0  0  0  0  0  0  0  0  0999 V3000
M  V30 BEGIN CTAB
M  V30 COUNTS 39 42 0 0 0
M  V30 BEGIN ATOM
M  V30 1 O 2.678964 -6.566254 5.431697 0
M  V30 2 C 2.439073 -5.779052 4.495292 0
M  V30 3 N 2.225679 -6.125217 3.220801 0
M  V30 4 C 1.999971 -5.013099 2.494067 0
M  V30 5 C 1.727365 -4.762647 1.151715 0
M  V30 6 C 1.549760 -3.454372 0.760845 0
M  V30 7 C 1.619059 -2.350039 1.594441 0
M  V30 8 C 1.428722 -0.975176 1.141254 0
M  V30 9 N 1.210309 -0.910597 -0.127573 0
M  V30 10 N 0.989495 0.275281 -0.847028 0
M  V30 11 C 0.990830 1.400240 -0.259223 0
M  V30 12 N 0.752762 2.465009 -1.137629 0
M  V30 13 C -0.194016 2.645407 -2.208308 0
M  V30 14 C -1.579202 2.715041 -1.703802 0
M  V30 15 C -1.989173 4.026994 -1.424401 0
M  V30 16 C -3.251522 4.293391 -0.891051 0
M  V30 17 C -4.157437 3.284209 -0.612344 0
M  V30 18 C -3.754893 1.991575 -0.887497 0
M  V30 19 C -2.508210 1.755392 -1.412660 0
M  V30 20 Cl -2.107204 0.112839 -1.784753 0
M  V30 21 S 1.269235 1.695291 1.492381 0
M  V30 22 C 1.520657 0.059306 2.234355 0
M  V30 23 C 1.893560 -2.688803 2.909089 0
M  V30 24 C 2.083831 -3.967644 3.379553 0
M  V30 25 N 2.353220 -4.460055 4.597397 0
M  V30 26 H 2.237954 -7.100364 2.876389 0
M  V30 27 H 1.667971 -5.604134 0.480008 0
M  V30 28 H 1.336394 -3.286771 -0.289472 0
M  V30 29 H 1.391917 3.327590 -0.986455 0
M  V30 30 H -0.164814 1.768997 -2.918998 0
M  V30 31 H 0.040791 3.581151 -2.756512 0
M  V30 32 H -1.473875 4.984123 -1.551960 0
M  V30 33 H -3.653670 5.273251 -0.643650 0
M  V30 34 H -5.139381 3.441955 -0.199596 0
M  V30 35 H -4.423167 1.166729 -0.689295 0
M  V30 36 H 0.657492 -0.091876 2.940707 0
M  V30 37 H 2.474543 0.027967 2.772029 0
M  V30 38 H 1.971088 -1.898681 3.642631 0
M  V30 39 H 2.472885 -3.897760 5.463670 0
M  V30 END ATOM
M  V30 BEGIN BOND
M  V30 1 2 1 2
M  V30 2 1 2 3
M  V30 3 1 3 4
M  V30 4 2 4 5
M  V30 5 1 5 6
M  V30 6 2 6 7
M  V30 7 1 7 8
M  V30 8 2 8 9
M  V30 9 1 9 10
M  V30 10 2 10 11
M  V30 11 1 11 12
M  V30 12 1 12 13
M  V30 13 1 13 14
M  V30 14 2 14 15
M  V30 15 1 15 16
M  V30 16 2 16 17
M  V30 17 1 17 18
M  V30 18 2 18 19
M  V30 19 1 19 20
M  V30 20 1 11 21
M  V30 21 1 21 22
M  V30 22 1 7 23
M  V30 23 2 23 24
M  V30 24 1 24 25
M  V30 25 1 25 2
M  V30 26 1 24 4
M  V30 27 1 22 8
M  V30 28 1 19 14
M  V30 29 1 3 26
M  V30 30 1 5 27
M  V30 31 1 6 28
M  V30 32 1 12 29
M  V30 33 1 13 30
M  V30 34 1 13 31
M  V30 35 1 15 32
M  V30 36 1 16 33
M  V30 37 1 17 34
M  V30 38 1 18 35
M  V30 39 1 22 36
M  V30 40 1 22 37
M  V30 41 1 23 38
M  V30 42 1 25 39
M  V30 END BOND
M  V30 END CTAB
M  END
>  <Dataset>  (555) 
ChEMBL_Kinases

>  <Ligand_Instance>  (555) 
nan

>  <PDB_ID>  (555) 
nan

>  <Standardized_SMILES>  (555) 
O=c1[nH]c2ccc(C3=NN=C(NCc4ccccc4Cl)SC3)cc2[nH]1

>  <Name>  (555) 
nan

>  <Pocket>  (555) 
nan

>  <ATP_Site>  (555) 
nan

>  <Peripheral>  (555) 
nan

>  <Num_H_Atoms_ProtBoundConf>  (555) 
nan

>  <Num_Resolved_Atoms>  (555) 
nan

>  <Num_Not_Resolved_Atoms>  (555) 
nan

$$$$
CHEMBL4288356
     RDKit          3D

  0  0  0  0  0  0  0  0  0  0999 V3000
M  V30 BEGIN CTAB
M  V30 COUNTS 30 32 0 0 0
M  V30 BEGIN ATOM
M  V30 1 C 2.781918 -0.765540 2.781054 0
M  V30 2 C 1.765238 -1.839822 2.906870 0
M  V30 3 N 1.759473 -2.753639 3.886944 0
M  V30 4 N 0.729215 -3.583650 3.735428 0
M  V30 5 C 0.053738 -3.199201 2.634157 0
M  V30 6 N -1.098844 -3.768137 2.076615 0
M  V30 7 C 0.674530 -2.109193 2.089026 0
M  V30 8 C 0.404004 -1.279002 0.918371 0
M  V30 9 C 0.960557 -1.614993 -0.303606 0
M  V30 10 C 0.673057 -0.791609 -1.391890 0
M  V30 11 C -0.134247 0.321512 -1.275209 0
M  V30 12 C -0.379385 1.091229 -2.382153 0
M  V30 13 C -1.190803 2.227690 -2.311630 0
M  V30 14 C -1.726803 2.521824 -1.056885 0
M  V30 15 C -1.496744 1.764250 0.075118 0
M  V30 16 C -0.686794 0.652515 -0.055245 0
M  V30 17 C -0.409017 -0.157459 1.034447 0
M  V30 18 H 2.555424 -0.047168 1.989089 0
M  V30 19 H 3.803124 -1.161675 2.585384 0
M  V30 20 H 2.843577 -0.151594 3.723702 0
M  V30 21 H 2.428172 -2.873107 4.695417 0
M  V30 22 H -2.124605 -3.647124 2.129657 0
M  V30 23 H -1.202485 -4.554045 1.383209 0
M  V30 24 H 1.586314 -2.495684 -0.346731 0
M  V30 25 H 1.115809 -1.064830 -2.348267 0
M  V30 26 H 0.034969 0.866646 -3.359555 0
M  V30 27 H -1.372472 2.818216 -3.185135 0
M  V30 28 H -2.353913 3.412002 -1.033711 0
M  V30 29 H -1.934092 2.030549 1.029327 0
M  V30 30 H -0.856041 0.133895 1.959108 0
M  V30 END ATOM
M  V30 BEGIN BOND
M  V30 1 1 1 2
M  V30 2 1 2 3
M  V30 3 1 3 4
M  V30 4 2 4 5
M  V30 5 1 5 6
M  V30 6 1 5 7
M  V30 7 1 7 8
M  V30 8 2 8 9
M  V30 9 1 9 10
M  V30 10 2 10 11
M  V30 11 1 11 12
M  V30 12 2 12 13
M  V30 13 1 13 14
M  V30 14 2 14 15
M  V30 15 1 15 16
M  V30 16 2 16 17
M  V30 17 2 7 2
M  V30 18 1 17 8
M  V30 19 1 16 11
M  V30 20 1 1 18
M  V30 21 1 1 19
M  V30 22 1 1 20
M  V30 23 1 3 21
M  V30 24 1 6 22
M  V30 25 1 6 23
M  V30 26 1 9 24
M  V30 27 1 10 25
M  V30 28 1 12 26
M  V30 29 1 13 27
M  V30 30 1 14 28
M  V30 31 1 15 29
M  V30 32 1 17 30
M  V30 END BOND
M  V30 END CTAB
M  END
>  <Dataset>  (556) 
ChEMBL_Kinases

>  <Ligand_Instance>  (556) 
nan

>  <PDB_ID>  (556) 
nan

>  <Standardized_SMILES>  (556) 
Cc1[nH]nc(N)c1-c1ccc2ccccc2c1

>  <Name>  (556) 
nan

>  <Pocket>  (556) 
nan

>  <ATP_Site>  (556) 
nan

>  <Peripheral>  (556) 
nan

>  <Num_H_Atoms_ProtBoundConf>  (556) 
nan

>  <Num_Resolved_Atoms>  (556) 
nan

>  <Num_Not_Resolved_Atoms>  (556) 
nan

$$$$
CHEMBL4287698
     RDKit          3D

  0  0  0  0  0  0  0  0  0  0999 V3000
M  V30 BEGIN CTAB
M  V30 COUNTS 79 84 0 0 0
M  V30 BEGIN ATOM
M  V30 1 O -2.279173 0.313772 2.615076 0
M  V30 2 C -2.984380 -0.126848 1.702984 0
M  V30 3 S -4.716165 0.437276 1.632077 0
M  V30 4 C -4.781728 0.289840 -0.177953 0
M  V30 5 C -5.495161 0.987436 -1.038811 0
M  V30 6 C -6.402305 2.063782 -0.583519 0
M  V30 7 C -7.609700 2.238457 -1.212632 0
M  V30 8 C -8.520901 3.220705 -0.855688 0
M  V30 9 C -8.197887 4.066391 0.185618 0
M  V30 10 O -9.076770 5.054749 0.569972 0
M  V30 11 C -9.017358 6.331698 0.018586 0
M  V30 12 C -9.880053 7.350703 0.349642 0
M  V30 13 C -9.826739 8.600847 -0.185482 0
M  V30 14 C -8.846299 8.873487 -1.122535 0
M  V30 15 F -8.673030 10.082397 -1.743209 0
M  V30 16 C -7.959035 7.875744 -1.482663 0
M  V30 17 C -8.048631 6.629432 -0.918376 0
M  V30 18 C -6.986894 3.921939 0.846524 0
M  V30 19 C -6.119633 2.930059 0.450688 0
M  V30 20 C -3.829482 -0.795637 -0.422812 0
M  V30 21 O -3.997691 -1.407488 -1.533276 0
M  V30 22 N -2.870179 -1.013398 0.587391 0
M  V30 23 C -1.844525 -1.997782 0.572006 0
M  V30 24 C -0.947655 -2.113005 1.606975 0
M  V30 25 C 0.053084 -3.057150 1.610931 0
M  V30 26 C 0.225901 -3.950869 0.579988 0
M  V30 27 O 1.143505 -4.938919 0.404321 0
M  V30 28 C 2.202883 -5.345993 1.197080 0
M  V30 29 C 3.289499 -4.320389 1.419746 0
M  V30 30 C 4.335229 -4.956749 2.306975 0
M  V30 31 C 5.481743 -4.020238 2.595827 0
M  V30 32 N 6.159257 -3.606543 1.378324 0
M  V30 33 C 7.211375 -2.679330 1.828059 0
M  V30 34 C 7.975989 -2.123623 0.651371 0
M  V30 35 N 8.072421 -3.016776 -0.443489 0
M  V30 36 C 7.545891 -2.586759 -1.691241 0
M  V30 37 C 6.070913 -2.435571 -1.785358 0
M  V30 38 C 5.465259 -1.970656 -3.132943 0
M  V30 39 C 5.371249 -3.416356 -2.718157 0
M  V30 40 C 7.921589 -4.403515 -0.162902 0
M  V30 41 C 6.907473 -4.762574 0.867642 0
M  V30 42 C -0.671059 -3.864029 -0.494075 0
M  V30 43 C -1.676237 -2.891033 -0.463103 0
M  V30 44 H -5.417266 0.770316 -2.090825 0
M  V30 45 H -7.837334 1.558797 -2.029039 0
M  V30 46 H -9.471826 3.305544 -1.403272 0
M  V30 47 H -10.653004 7.126761 1.092175 0
M  V30 48 H -10.490730 9.408141 0.060328 0
M  V30 49 H -7.179355 8.038726 -2.206487 0
M  V30 50 H -7.362607 5.864277 -1.198786 0
M  V30 51 H -6.734839 4.588032 1.665628 0
M  V30 52 H -5.180509 2.831401 0.971958 0
M  V30 53 H -0.947340 -1.501699 2.474177 0
M  V30 54 H 0.737763 -3.152664 2.415302 0
M  V30 55 H 2.632452 -6.293970 0.798071 0
M  V30 56 H 1.750867 -5.666529 2.184474 0
M  V30 57 H 3.812041 -4.143802 0.430490 0
M  V30 58 H 2.950043 -3.352588 1.774457 0
M  V30 59 H 3.836818 -5.289912 3.233435 0
M  V30 60 H 4.713620 -5.851790 1.789589 0
M  V30 61 H 6.191537 -4.512535 3.291570 0
M  V30 62 H 5.068443 -3.146034 3.137879 0
M  V30 63 H 7.880315 -3.283412 2.473640 0
M  V30 64 H 6.786246 -1.882782 2.455192 0
M  V30 65 H 8.998772 -1.868010 0.999404 0
M  V30 66 H 7.533969 -1.165344 0.278340 0
M  V30 67 H 8.041196 -1.611178 -1.968588 0
M  V30 68 H 7.910061 -3.292593 -2.475782 0
M  V30 69 H 5.466211 -2.148346 -0.901294 0
M  V30 70 H 6.193872 -1.655501 -3.902214 0
M  V30 71 H 4.580848 -1.318528 -3.066437 0
M  V30 72 H 5.982346 -4.163916 -3.271650 0
M  V30 73 H 4.373997 -3.776522 -2.447927 0
M  V30 74 H 8.938541 -4.817484 0.092013 0
M  V30 75 H 7.665565 -4.899713 -1.143863 0
M  V30 76 H 7.461674 -5.156674 1.769173 0
M  V30 77 H 6.268162 -5.570492 0.506671 0
M  V30 78 H -0.624578 -4.530484 -1.370864 0
M  V30 79 H -2.330106 -2.883261 -1.322712 0
M  V30 END ATOM
M  V30 BEGIN BOND
M  V30 1 2 1 2
M  V30 2 1 2 3
M  V30 3 1 3 4
M  V30 4 2 4 5
M  V30 5 1 5 6
M  V30 6 2 6 7
M  V30 7 1 7 8
M  V30 8 2 8 9
M  V30 9 1 9 10
M  V30 10 1 10 11
M  V30 11 2 11 12
M  V30 12 1 12 13
M  V30 13 2 13 14
M  V30 14 1 14 15
M  V30 15 1 14 16
M  V30 16 2 16 17
M  V30 17 1 9 18
M  V30 18 2 18 19
M  V30 19 1 4 20
M  V30 20 2 20 21
M  V30 21 1 20 22
M  V30 22 1 22 23
M  V30 23 2 23 24
M  V30 24 1 24 25
M  V30 25 2 25 26
M  V30 26 1 26 27
M  V30 27 1 27 28
M  V30 28 1 28 29
M  V30 29 1 29 30
M  V30 30 1 30 31
M  V30 31 1 31 32
M  V30 32 1 32 33
M  V30 33 1 33 34
M  V30 34 1 34 35
M  V30 35 1 35 36
M  V30 36 1 36 37
M  V30 37 1 37 38
M  V30 38 1 38 39
M  V30 39 1 35 40
M  V30 40 1 40 41
M  V30 41 1 26 42
M  V30 42 2 42 43
M  V30 43 1 22 2
M  V30 44 1 43 23
M  V30 45 1 19 6
M  V30 46 1 41 32
M  V30 47 1 17 11
M  V30 48 1 39 37
M  V30 49 1 5 44
M  V30 50 1 7 45
M  V30 51 1 8 46
M  V30 52 1 12 47
M  V30 53 1 13 48
M  V30 54 1 16 49
M  V30 55 1 17 50
M  V30 56 1 18 51
M  V30 57 1 19 52
M  V30 58 1 24 53
M  V30 59 1 25 54
M  V30 60 1 28 55
M  V30 61 1 28 56
M  V30 62 1 29 57
M  V30 63 1 29 58
M  V30 64 1 30 59
M  V30 65 1 30 60
M  V30 66 1 31 61
M  V30 67 1 31 62
M  V30 68 1 33 63
M  V30 69 1 33 64
M  V30 70 1 34 65
M  V30 71 1 34 66
M  V30 72 1 36 67
M  V30 73 1 36 68
M  V30 74 1 37 69
M  V30 75 1 38 70
M  V30 76 1 38 71
M  V30 77 1 39 72
M  V30 78 1 39 73
M  V30 79 1 40 74
M  V30 80 1 40 75
M  V30 81 1 41 76
M  V30 82 1 41 77
M  V30 83 1 42 78
M  V30 84 1 43 79
M  V30 END BOND
M  V30 END CTAB
M  END
>  <Dataset>  (557) 
ChEMBL_Kinases

>  <Ligand_Instance>  (557) 
nan

>  <PDB_ID>  (557) 
nan

>  <Standardized_SMILES>  (557) 
O=C1S/C(=C\c2ccc(Oc3ccc(F)cc3)cc2)C(=O)N1c1ccc(OCCCCN2CCN(CC3CC3)CC2)cc1

>  <Name>  (557) 
nan

>  <Pocket>  (557) 
nan

>  <ATP_Site>  (557) 
nan

>  <Peripheral>  (557) 
nan

>  <Num_H_Atoms_ProtBoundConf>  (557) 
nan

>  <Num_Resolved_Atoms>  (557) 
nan

>  <Num_Not_Resolved_Atoms>  (557) 
nan

$$$$
CHEMBL4757477
     RDKit          3D

  0  0  0  0  0  0  0  0  0  0999 V3000
M  V30 BEGIN CTAB
M  V30 COUNTS 79 84 0 0 0
M  V30 BEGIN ATOM
M  V30 1 C -4.202170 -4.010119 1.023787 0
M  V30 2 C -2.932519 -4.501009 0.416056 0
M  V30 3 O -1.789632 -4.331610 1.251243 0
M  V30 4 C -1.374757 -3.090441 1.684536 0
M  V30 5 C -2.010732 -1.884267 1.360805 0
M  V30 6 C -1.499872 -0.702817 1.856827 0
M  V30 7 C -2.097340 0.572984 1.554645 0
M  V30 8 O -1.615003 0.670966 0.405763 0
M  V30 9 N -2.372446 1.694506 0.756265 0
M  V30 10 C -2.020158 2.167220 -0.572894 0
M  V30 11 C -1.705774 3.666879 -0.425248 0
M  V30 12 C -3.003569 4.391678 -0.154769 0
M  V30 13 N -2.897187 5.710451 0.319519 0
M  V30 14 C -2.206836 6.625952 -0.547921 0
M  V30 15 C -2.101834 7.871309 0.306652 0
M  V30 16 C -1.753516 7.242393 1.655320 0
M  V30 17 C -2.617557 5.971940 1.664618 0
M  V30 18 C -3.932014 3.587316 0.703733 0
M  V30 19 C -3.243321 2.544852 1.551998 0
M  V30 20 C -0.367337 -0.619007 2.679057 0
M  V30 21 C 0.264017 -1.829193 2.998183 0
M  V30 22 C -0.268634 -2.989663 2.487922 0
M  V30 23 N 0.522384 -4.117508 2.912160 0
M  V30 24 C 0.973122 -4.661275 1.677865 0
M  V30 25 C 2.099425 -3.983418 1.195366 0
M  V30 26 C 2.685464 -4.378900 -0.014777 0
M  V30 27 C 2.190050 -5.417067 -0.750568 0
M  V30 28 C 1.076254 -6.051135 -0.226287 0
M  V30 29 N 0.487394 -5.698656 0.931910 0
M  V30 30 N 2.632919 -5.963419 -1.990522 0
M  V30 31 C 2.067464 -7.233289 -2.324631 0
M  V30 32 C 3.569577 -5.364475 -2.907660 0
M  V30 33 O 3.856715 -6.037394 -3.906225 0
M  V30 34 C 4.212244 -4.053299 -2.783211 0
M  V30 35 C 4.747944 -3.614628 -3.960232 0
M  V30 36 C 5.384304 -2.387332 -3.977054 0
M  V30 37 C 5.492611 -1.597814 -2.843377 0
M  V30 38 C 4.956691 -2.023218 -1.638706 0
M  V30 39 C 4.318404 -3.270893 -1.655500 0
M  V30 40 N 3.823620 -3.545273 -0.326981 0
M  V30 41 C 4.496102 -2.953383 0.781744 0
M  V30 42 H -4.775405 -3.330627 0.360546 0
M  V30 43 H -4.867999 -4.881700 1.222411 0
M  V30 44 H -4.011540 -3.562436 2.042665 0
M  V30 45 H -2.760713 -3.920791 -0.527805 0
M  V30 46 H -3.053284 -5.552624 0.111147 0
M  V30 47 H -2.883948 -1.911022 0.728563 0
M  V30 48 H -1.167020 1.669388 -1.026215 0
M  V30 49 H -2.883824 2.011906 -1.269317 0
M  V30 50 H -1.253113 3.953392 -1.397752 0
M  V30 51 H -0.943169 3.772316 0.340913 0
M  V30 52 H -3.492862 4.466474 -1.173861 0
M  V30 53 H -2.889782 6.878896 -1.386166 0
M  V30 54 H -1.223899 6.247139 -0.895895 0
M  V30 55 H -1.269045 8.509747 -0.052427 0
M  V30 56 H -3.057768 8.395383 0.301963 0
M  V30 57 H -1.957002 7.899394 2.501916 0
M  V30 58 H -0.677070 6.993126 1.615518 0
M  V30 59 H -2.091419 5.230897 2.258170 0
M  V30 60 H -3.523576 6.282953 2.264318 0
M  V30 61 H -4.633165 3.007059 0.036743 0
M  V30 62 H -4.493149 4.274181 1.363092 0
M  V30 63 H -2.726509 2.925012 2.431340 0
M  V30 64 H -4.087331 1.891997 1.923675 0
M  V30 65 H 0.010491 0.319566 3.053430 0
M  V30 66 H 1.135559 -1.739473 3.634413 0
M  V30 67 H 0.703553 -4.433969 3.877115 0
M  V30 68 H 2.573842 -3.136221 1.708091 0
M  V30 69 H 0.640671 -6.879911 -0.765069 0
M  V30 70 H 1.033879 -7.114151 -2.749899 0
M  V30 71 H 2.660638 -7.615549 -3.207349 0
M  V30 72 H 2.144475 -8.012847 -1.566229 0
M  V30 73 H 4.643082 -4.257269 -4.818061 0
M  V30 74 H 5.814133 -2.033437 -4.919543 0
M  V30 75 H 5.991671 -0.628982 -2.845395 0
M  V30 76 H 4.995641 -1.463224 -0.696401 0
M  V30 77 H 5.598075 -2.957268 0.512554 0
M  V30 78 H 4.144989 -1.977904 1.112203 0
M  V30 79 H 4.507851 -3.703647 1.630992 0
M  V30 END ATOM
M  V30 BEGIN BOND
M  V30 1 1 1 2
M  V30 2 1 2 3
M  V30 3 1 3 4
M  V30 4 2 4 5
M  V30 5 1 5 6
M  V30 6 1 6 7
M  V30 7 2 7 8
M  V30 8 1 7 9
M  V30 9 1 9 10
M  V30 10 1 10 11
M  V30 11 1 11 12
M  V30 12 1 12 13
M  V30 13 1 13 14
M  V30 14 1 14 15
M  V30 15 1 15 16
M  V30 16 1 16 17
M  V30 17 1 12 18
M  V30 18 1 18 19
M  V30 19 2 6 20
M  V30 20 1 20 21
M  V30 21 2 21 22
M  V30 22 1 22 23
M  V30 23 1 23 24
M  V30 24 2 24 25
M  V30 25 1 25 26
M  V30 26 2 26 27
M  V30 27 1 27 28
M  V30 28 2 28 29
M  V30 29 1 27 30
M  V30 30 1 30 31
M  V30 31 1 30 32
M  V30 32 2 32 33
M  V30 33 1 32 34
M  V30 34 2 34 35
M  V30 35 1 35 36
M  V30 36 2 36 37
M  V30 37 1 37 38
M  V30 38 2 38 39
M  V30 39 1 39 40
M  V30 40 1 40 41
M  V30 41 1 22 4
M  V30 42 1 29 24
M  V30 43 1 39 34
M  V30 44 1 19 9
M  V30 45 1 40 26
M  V30 46 1 17 13
M  V30 47 1 1 42
M  V30 48 1 1 43
M  V30 49 1 1 44
M  V30 50 1 2 45
M  V30 51 1 2 46
M  V30 52 1 5 47
M  V30 53 1 10 48
M  V30 54 1 10 49
M  V30 55 1 11 50
M  V30 56 1 11 51
M  V30 57 1 12 52
M  V30 58 1 14 53
M  V30 59 1 14 54
M  V30 60 1 15 55
M  V30 61 1 15 56
M  V30 62 1 16 57
M  V30 63 1 16 58
M  V30 64 1 17 59
M  V30 65 1 17 60
M  V30 66 1 18 61
M  V30 67 1 18 62
M  V30 68 1 19 63
M  V30 69 1 19 64
M  V30 70 1 20 65
M  V30 71 1 21 66
M  V30 72 1 23 67
M  V30 73 1 25 68
M  V30 74 1 28 69
M  V30 75 1 31 70
M  V30 76 1 31 71
M  V30 77 1 31 72
M  V30 78 1 35 73
M  V30 79 1 36 74
M  V30 80 1 37 75
M  V30 81 1 38 76
M  V30 82 1 41 77
M  V30 83 1 41 78
M  V30 84 1 41 79
M  V30 END BOND
M  V30 END CTAB
M  END
>  <Dataset>  (558) 
ChEMBL_Kinases

>  <Ligand_Instance>  (558) 
nan

>  <PDB_ID>  (558) 
nan

>  <Standardized_SMILES>  (558) 
CCOc1cc(C(=O)N2CCC(N3CCCC3)CC2)ccc1Nc1cc2c(cn1)N(C)C(=O)c1ccccc1N2C

>  <Name>  (558) 
nan

>  <Pocket>  (558) 
nan

>  <ATP_Site>  (558) 
nan

>  <Peripheral>  (558) 
nan

>  <Num_H_Atoms_ProtBoundConf>  (558) 
nan

>  <Num_Resolved_Atoms>  (558) 
nan

>  <Num_Not_Resolved_Atoms>  (558) 
nan

$$$$
CHEMBL428814
     RDKit          3D

  0  0  0  0  0  0  0  0  0  0999 V3000
M  V30 BEGIN CTAB
M  V30 COUNTS 53 56 0 0 0
M  V30 BEGIN ATOM
M  V30 1 C -0.692385 -1.888513 4.760932 0
M  V30 2 O 0.563958 -2.371245 5.200221 0
M  V30 3 C 1.705053 -1.865484 4.592388 0
M  V30 4 C 2.873760 -2.407550 5.100742 0
M  V30 5 C 4.094576 -1.984890 4.576702 0
M  V30 6 C 4.190283 -1.034810 3.557573 0
M  V30 7 C 2.973084 -0.533584 3.095719 0
M  V30 8 C 3.022176 0.465882 2.025453 0
M  V30 9 C 4.073128 1.365629 1.913343 0
M  V30 10 C 4.083180 2.301853 0.878859 0
M  V30 11 C 3.069550 2.368002 -0.053382 0
M  V30 12 N 3.058322 3.266269 -1.064643 0
M  V30 13 C 2.045966 3.301173 -1.962293 0
M  V30 14 N 1.025687 2.434502 -1.861007 0
M  V30 15 C 0.994277 1.525223 -0.873479 0
M  V30 16 N -0.113384 0.625865 -0.809778 0
M  V30 17 C -1.167193 0.702056 -1.788247 0
M  V30 18 C -2.248934 -0.266671 -1.628461 0
M  V30 19 C -3.488419 0.055482 -1.120933 0
M  V30 20 C -4.544792 -0.803152 -0.945349 0
M  V30 21 C -4.303762 -2.098784 -1.323824 0
M  V30 22 O -5.267627 -3.088474 -1.210364 0
M  V30 23 C -6.561807 -2.868032 -0.705437 0
M  V30 24 C -3.098657 -2.532927 -1.844865 0
M  V30 25 C -2.092299 -1.604575 -1.986922 0
M  V30 26 O -0.858597 -1.973159 -2.502975 0
M  V30 27 C -0.598371 -3.316077 -2.898098 0
M  V30 28 C 2.011190 1.466496 0.054638 0
M  V30 29 C 2.031408 0.557570 1.084141 0
M  V30 30 C 1.753922 -0.931634 3.593112 0
M  V30 31 H -0.711379 -1.843318 3.634404 0
M  V30 32 H -0.911547 -0.859954 5.105240 0
M  V30 33 H -1.526040 -2.518024 5.141097 0
M  V30 34 H 2.920702 -3.147989 5.888104 0
M  V30 35 H 5.042278 -2.379709 4.941426 0
M  V30 36 H 5.141606 -0.715977 3.160263 0
M  V30 37 H 4.891764 1.348567 2.625681 0
M  V30 38 H 4.889718 3.016099 0.765928 0
M  V30 39 H 2.069447 4.026919 -2.751686 0
M  V30 40 H -0.285255 -0.128351 -0.114978 0
M  V30 41 H -0.678091 0.551513 -2.789386 0
M  V30 42 H -1.600038 1.727941 -1.836759 0
M  V30 43 H -3.635784 1.105573 -0.831103 0
M  V30 44 H -5.497610 -0.492665 -0.541441 0
M  V30 45 H -7.017639 -3.796484 -0.297671 0
M  V30 46 H -7.203172 -2.382212 -1.448505 0
M  V30 47 H -6.451181 -2.151257 0.159316 0
M  V30 48 H -2.891617 -3.551945 -2.148368 0
M  V30 49 H -1.226490 -3.664845 -3.724289 0
M  V30 50 H 0.505511 -3.349691 -3.134628 0
M  V30 51 H -0.821188 -3.967925 -2.026349 0
M  V30 52 H 1.225960 -0.150725 1.190929 0
M  V30 53 H 0.822816 -0.555961 3.246614 0
M  V30 END ATOM
M  V30 BEGIN BOND
M  V30 1 1 1 2
M  V30 2 1 2 3
M  V30 3 2 3 4
M  V30 4 1 4 5
M  V30 5 2 5 6
M  V30 6 1 6 7
M  V30 7 1 7 8
M  V30 8 2 8 9
M  V30 9 1 9 10
M  V30 10 2 10 11
M  V30 11 1 11 12
M  V30 12 2 12 13
M  V30 13 1 13 14
M  V30 14 2 14 15
M  V30 15 1 15 16
M  V30 16 1 16 17
M  V30 17 1 17 18
M  V30 18 2 18 19
M  V30 19 1 19 20
M  V30 20 2 20 21
M  V30 21 1 21 22
M  V30 22 1 22 23
M  V30 23 1 21 24
M  V30 24 2 24 25
M  V30 25 1 25 26
M  V30 26 1 26 27
M  V30 27 1 15 28
M  V30 28 2 28 29
M  V30 29 2 7 30
M  V30 30 1 30 3
M  V30 31 1 29 8
M  V30 32 1 28 11
M  V30 33 1 25 18
M  V30 34 1 1 31
M  V30 35 1 1 32
M  V30 36 1 1 33
M  V30 37 1 4 34
M  V30 38 1 5 35
M  V30 39 1 6 36
M  V30 40 1 9 37
M  V30 41 1 10 38
M  V30 42 1 13 39
M  V30 43 1 16 40
M  V30 44 1 17 41
M  V30 45 1 17 42
M  V30 46 1 19 43
M  V30 47 1 20 44
M  V30 48 1 23 45
M  V30 49 1 23 46
M  V30 50 1 23 47
M  V30 51 1 24 48
M  V30 52 1 27 49
M  V30 53 1 27 50
M  V30 54 1 27 51
M  V30 55 1 29 52
M  V30 56 1 30 53
M  V30 END BOND
M  V30 END CTAB
M  END
>  <Dataset>  (559) 
ChEMBL_Kinases

>  <Ligand_Instance>  (559) 
nan

>  <PDB_ID>  (559) 
nan

>  <Standardized_SMILES>  (559) 
COc1cccc(-c2ccc3ncnc(NCc4ccc(OC)cc4OC)c3c2)c1

>  <Name>  (559) 
nan

>  <Pocket>  (559) 
nan

>  <ATP_Site>  (559) 
nan

>  <Peripheral>  (559) 
nan

>  <Num_H_Atoms_ProtBoundConf>  (559) 
nan

>  <Num_Resolved_Atoms>  (559) 
nan

>  <Num_Not_Resolved_Atoms>  (559) 
nan

$$$$
CHEMBL4288137
     RDKit          3D

  0  0  0  0  0  0  0  0  0  0999 V3000
M  V30 BEGIN CTAB
M  V30 COUNTS 78 83 0 0 0
M  V30 BEGIN ATOM
M  V30 1 O -0.066651 -0.314303 0.466669 0
M  V30 2 C 1.090966 -0.709805 0.676487 0
M  V30 3 S 1.316713 1.096279 0.710008 0
M  V30 4 C 3.092571 1.032946 0.926324 0
M  V30 5 C 3.884261 2.063402 0.953857 0
M  V30 6 C 3.264188 3.400869 0.786497 0
M  V30 7 C 2.323072 3.595497 -0.237542 0
M  V30 8 C 1.768197 4.881909 -0.314552 0
M  V30 9 C 2.072574 5.929549 0.516090 0
M  V30 10 N 1.364991 7.168366 0.295297 0
M  V30 11 C 0.616755 7.503783 -0.910029 0
M  V30 12 C -0.855171 7.507115 -0.536766 0
M  V30 13 O -1.075589 8.240505 0.619805 0
M  V30 14 C 0.012708 9.045199 0.939981 0
M  V30 15 C 1.261323 8.251788 1.248292 0
M  V30 16 C 3.000588 5.704268 1.508613 0
M  V30 17 Cl 3.432335 7.006662 2.578235 0
M  V30 18 C 3.585946 4.442175 1.632280 0
M  V30 19 C 3.407110 -0.344499 1.036436 0
M  V30 20 O 4.530133 -0.905476 1.243008 0
M  V30 21 N 2.392205 -1.301597 0.912949 0
M  V30 22 C 2.031241 -2.665060 0.907526 0
M  V30 23 C 2.037279 -3.359118 -0.310437 0
M  V30 24 C 1.700415 -4.726829 -0.412532 0
M  V30 25 C 1.356626 -5.342929 0.805064 0
M  V30 26 O 1.064867 -6.632103 0.532452 0
M  V30 27 C 0.669092 -7.706997 1.271849 0
M  V30 28 C -0.636644 -7.644324 1.997811 0
M  V30 29 C -1.831905 -7.444434 1.113303 0
M  V30 30 N -1.790782 -6.214168 0.391539 0
M  V30 31 C -2.965839 -6.162730 -0.513434 0
M  V30 32 C -2.866665 -4.920032 -1.347267 0
M  V30 33 N -2.802577 -3.744141 -0.549726 0
M  V30 34 C -2.547176 -2.549022 -1.344959 0
M  V30 35 C -3.684408 -2.180326 -2.234106 0
M  V30 36 C -3.582130 -0.991670 -3.117613 0
M  V30 37 C -3.524246 -2.336307 -3.762613 0
M  V30 38 C -1.947958 -3.814290 0.589810 0
M  V30 39 C -2.093921 -5.100534 1.325810 0
M  V30 40 C 1.333920 -4.718580 2.019573 0
M  V30 41 C 1.676220 -3.386023 2.026582 0
M  V30 42 H 4.932193 1.842523 1.100243 0
M  V30 43 H 2.052606 2.808076 -0.928567 0
M  V30 44 H 1.050899 4.928246 -1.130811 0
M  V30 45 H 0.967907 8.495160 -1.287405 0
M  V30 46 H 0.749201 6.796207 -1.732595 0
M  V30 47 H -1.135902 6.438174 -0.423285 0
M  V30 48 H -1.419987 7.926928 -1.383340 0
M  V30 49 H -0.258424 9.694579 1.809926 0
M  V30 50 H 0.218993 9.724829 0.113049 0
M  V30 51 H 2.130634 8.917829 1.247787 0
M  V30 52 H 1.092549 7.796932 2.269696 0
M  V30 53 H 4.303745 4.230146 2.383353 0
M  V30 54 H 2.323223 -2.768710 -1.196917 0
M  V30 55 H 1.750842 -5.114990 -1.399380 0
M  V30 56 H 1.439823 -8.043574 2.035386 0
M  V30 57 H 0.582811 -8.618452 0.592916 0
M  V30 58 H -0.593593 -6.957807 2.841117 0
M  V30 59 H -0.783026 -8.669834 2.465523 0
M  V30 60 H -1.845776 -8.285001 0.359989 0
M  V30 61 H -2.771810 -7.461691 1.714106 0
M  V30 62 H -3.845884 -6.170860 0.150687 0
M  V30 63 H -2.979673 -7.088116 -1.103014 0
M  V30 64 H -3.794303 -4.918302 -1.993721 0
M  V30 65 H -1.969097 -4.945023 -2.003773 0
M  V30 66 H -2.150135 -1.747071 -0.702118 0
M  V30 67 H -1.697893 -2.843755 -2.027135 0
M  V30 68 H -4.706272 -2.348644 -1.814930 0
M  V30 69 H -2.675343 -0.381768 -3.051349 0
M  V30 70 H -4.496199 -0.421018 -3.368965 0
M  V30 71 H -4.397683 -2.763943 -4.272019 0
M  V30 72 H -2.556110 -2.705850 -4.130705 0
M  V30 73 H -2.168803 -2.974490 1.313099 0
M  V30 74 H -0.906401 -3.650909 0.241614 0
M  V30 75 H -1.483627 -5.123593 2.220204 0
M  V30 76 H -3.171977 -5.276433 1.617539 0
M  V30 77 H 1.062264 -5.275369 2.889737 0
M  V30 78 H 1.670447 -2.849912 2.965403 0
M  V30 END ATOM
M  V30 BEGIN BOND
M  V30 1 2 1 2
M  V30 2 1 2 3
M  V30 3 1 3 4
M  V30 4 2 4 5
M  V30 5 1 5 6
M  V30 6 2 6 7
M  V30 7 1 7 8
M  V30 8 2 8 9
M  V30 9 1 9 10
M  V30 10 1 10 11
M  V30 11 1 11 12
M  V30 12 1 12 13
M  V30 13 1 13 14
M  V30 14 1 14 15
M  V30 15 1 9 16
M  V30 16 1 16 17
M  V30 17 2 16 18
M  V30 18 1 4 19
M  V30 19 2 19 20
M  V30 20 1 19 21
M  V30 21 1 21 22
M  V30 22 2 22 23
M  V30 23 1 23 24
M  V30 24 2 24 25
M  V30 25 1 25 26
M  V30 26 1 26 27
M  V30 27 1 27 28
M  V30 28 1 28 29
M  V30 29 1 29 30
M  V30 30 1 30 31
M  V30 31 1 31 32
M  V30 32 1 32 33
M  V30 33 1 33 34
M  V30 34 1 34 35
M  V30 35 1 35 36
M  V30 36 1 36 37
M  V30 37 1 33 38
M  V30 38 1 38 39
M  V30 39 1 25 40
M  V30 40 2 40 41
M  V30 41 1 21 2
M  V30 42 1 41 22
M  V30 43 1 18 6
M  V30 44 1 39 30
M  V30 45 1 15 10
M  V30 46 1 37 35
M  V30 47 1 5 42
M  V30 48 1 7 43
M  V30 49 1 8 44
M  V30 50 1 11 45
M  V30 51 1 11 46
M  V30 52 1 12 47
M  V30 53 1 12 48
M  V30 54 1 14 49
M  V30 55 1 14 50
M  V30 56 1 15 51
M  V30 57 1 15 52
M  V30 58 1 18 53
M  V30 59 1 23 54
M  V30 60 1 24 55
M  V30 61 1 27 56
M  V30 62 1 27 57
M  V30 63 1 28 58
M  V30 64 1 28 59
M  V30 65 1 29 60
M  V30 66 1 29 61
M  V30 67 1 31 62
M  V30 68 1 31 63
M  V30 69 1 32 64
M  V30 70 1 32 65
M  V30 71 1 34 66
M  V30 72 1 34 67
M  V30 73 1 35 68
M  V30 74 1 36 69
M  V30 75 1 36 70
M  V30 76 1 37 71
M  V30 77 1 37 72
M  V30 78 1 38 73
M  V30 79 1 38 74
M  V30 80 1 39 75
M  V30 81 1 39 76
M  V30 82 1 40 77
M  V30 83 1 41 78
M  V30 END BOND
M  V30 END CTAB
M  END
>  <Dataset>  (560) 
ChEMBL_Kinases

>  <Ligand_Instance>  (560) 
nan

>  <PDB_ID>  (560) 
nan

>  <Standardized_SMILES>  (560) 
O=C1S/C(=C\c2ccc(N3CCOCC3)c(Cl)c2)C(=O)N1c1ccc(OCCCN2CCN(CC3CC3)CC2)cc1

>  <Name>  (560) 
nan

>  <Pocket>  (560) 
nan

>  <ATP_Site>  (560) 
nan

>  <Peripheral>  (560) 
nan

>  <Num_H_Atoms_ProtBoundConf>  (560) 
nan

>  <Num_Resolved_Atoms>  (560) 
nan

>  <Num_Not_Resolved_Atoms>  (560) 
nan

$$$$
CHEMBL4288107
     RDKit          3D

  0  0  0  0  0  0  0  0  0  0999 V3000
M  V30 BEGIN CTAB
M  V30 COUNTS 43 46 0 0 0
M  V30 BEGIN ATOM
M  V30 1 N 2.416573 0.625429 3.743809 0
M  V30 2 C 3.632051 -0.033390 3.423581 0
M  V30 3 O 4.241735 -0.622721 4.350483 0
M  V30 4 C 4.204346 -0.059940 2.081215 0
M  V30 5 C 5.383898 -0.728603 1.895080 0
M  V30 6 C 5.876325 -0.718804 0.602803 0
M  V30 7 C 5.217817 -0.070818 -0.448161 0
M  V30 8 C 4.013696 0.595774 -0.191150 0
M  V30 9 C 3.477451 1.218321 -1.429489 0
M  V30 10 N 2.620643 0.289417 -2.149378 0
M  V30 11 C 1.435837 -0.258201 -1.606245 0
M  V30 12 N 0.764788 0.517476 -0.821834 0
M  V30 13 N -0.420613 0.055028 -0.240904 0
M  V30 14 C -0.945166 -1.092598 -0.397891 0
M  V30 15 C -2.187918 -1.255741 0.352390 0
M  V30 16 C -2.935414 -2.432070 0.330256 0
M  V30 17 C -4.110054 -2.643711 1.014239 0
M  V30 18 C -4.596520 -1.613144 1.788523 0
M  V30 19 N -5.684911 -1.477625 2.567914 0
M  V30 20 C -5.681708 -0.234345 3.111734 0
M  V30 21 O -6.605905 0.137598 3.886344 0
M  V30 22 N -4.584334 0.446613 2.684926 0
M  V30 23 C -3.930666 -0.409138 1.876808 0
M  V30 24 C -2.763704 -0.296513 1.154422 0
M  V30 25 C -0.532484 -2.301419 -1.201554 0
M  V30 26 S 1.018512 -1.954384 -2.077163 0
M  V30 27 C 3.522452 0.586812 1.095049 0
M  V30 28 H 2.405456 1.339072 4.488375 0
M  V30 29 H 1.519960 0.429352 3.265181 0
M  V30 30 H 5.913593 -1.233908 2.673344 0
M  V30 31 H 6.815526 -1.244173 0.425168 0
M  V30 32 H 5.726834 -0.147560 -1.418809 0
M  V30 33 H 4.253372 1.651957 -2.059929 0
M  V30 34 H 2.833855 2.095287 -1.118810 0
M  V30 35 H 2.938634 0.038562 -3.122839 0
M  V30 36 H -2.579651 -3.274792 -0.275107 0
M  V30 37 H -4.633731 -3.581319 0.948889 0
M  V30 38 H -6.377640 -2.247505 2.688043 0
M  V30 39 H -4.344238 1.419695 2.953417 0
M  V30 40 H -2.245520 0.668262 1.235322 0
M  V30 41 H -0.390671 -3.106087 -0.442031 0
M  V30 42 H -1.310514 -2.579162 -1.930314 0
M  V30 43 H 2.602973 1.123636 1.183088 0
M  V30 END ATOM
M  V30 BEGIN BOND
M  V30 1 1 1 2
M  V30 2 2 2 3
M  V30 3 1 2 4
M  V30 4 2 4 5
M  V30 5 1 5 6
M  V30 6 2 6 7
M  V30 7 1 7 8
M  V30 8 1 8 9
M  V30 9 1 9 10
M  V30 10 1 10 11
M  V30 11 2 11 12
M  V30 12 1 12 13
M  V30 13 2 13 14
M  V30 14 1 14 15
M  V30 15 2 15 16
M  V30 16 1 16 17
M  V30 17 2 17 18
M  V30 18 1 18 19
M  V30 19 1 19 20
M  V30 20 2 20 21
M  V30 21 1 20 22
M  V30 22 1 22 23
M  V30 23 2 23 24
M  V30 24 1 14 25
M  V30 25 1 25 26
M  V30 26 2 8 27
M  V30 27 1 27 4
M  V30 28 1 26 11
M  V30 29 1 24 15
M  V30 30 1 23 18
M  V30 31 1 1 28
M  V30 32 1 1 29
M  V30 33 1 5 30
M  V30 34 1 6 31
M  V30 35 1 7 32
M  V30 36 1 9 33
M  V30 37 1 9 34
M  V30 38 1 10 35
M  V30 39 1 16 36
M  V30 40 1 17 37
M  V30 41 1 19 38
M  V30 42 1 22 39
M  V30 43 1 24 40
M  V30 44 1 25 41
M  V30 45 1 25 42
M  V30 46 1 27 43
M  V30 END BOND
M  V30 END CTAB
M  END
>  <Dataset>  (561) 
ChEMBL_Kinases

>  <Ligand_Instance>  (561) 
nan

>  <PDB_ID>  (561) 
nan

>  <Standardized_SMILES>  (561) 
NC(=O)c1cccc(CNC2=NN=C(c3ccc4[nH]c(=O)[nH]c4c3)CS2)c1

>  <Name>  (561) 
nan

>  <Pocket>  (561) 
nan

>  <ATP_Site>  (561) 
nan

>  <Peripheral>  (561) 
nan

>  <Num_H_Atoms_ProtBoundConf>  (561) 
nan

>  <Num_Resolved_Atoms>  (561) 
nan

>  <Num_Not_Resolved_Atoms>  (561) 
nan

$$$$
CHEMBL4757497
     RDKit          3D

  0  0  0  0  0  0  0  0  0  0999 V3000
M  V30 BEGIN CTAB
M  V30 COUNTS 47 50 0 0 0
M  V30 BEGIN ATOM
M  V30 1 O -0.552617 -3.613983 -1.777101 0
M  V30 2 C -0.677202 -3.448334 -0.519039 0
M  V30 3 C 0.457480 -4.065870 0.221920 0
M  V30 4 C 0.590633 -3.484464 1.589925 0
M  V30 5 C -0.117146 -4.056212 2.634308 0
M  V30 6 C -0.075878 -3.618672 3.934943 0
M  V30 7 C 0.727509 -2.525197 4.250189 0
M  V30 8 C 1.443062 -1.939369 3.223361 0
M  V30 9 F 2.229501 -0.874790 3.522073 0
M  V30 10 C 1.391707 -2.389381 1.919839 0
M  V30 11 N -1.767410 -2.758421 0.094436 0
M  V30 12 C -2.804014 -2.209087 -0.740498 0
M  V30 13 C -2.329912 -1.187326 -1.731050 0
M  V30 14 C -1.689533 0.012561 -1.088414 0
M  V30 15 N -1.252550 0.941996 -2.133484 0
M  V30 16 C -2.025124 1.916063 -2.642857 0
M  V30 17 O -3.193549 2.048513 -2.209468 0
M  V30 18 C -1.461589 2.707856 -3.619565 0
M  V30 19 C -2.245728 3.735633 -4.173791 0
M  V30 20 C -1.709407 4.552524 -5.162641 0
M  V30 21 F -2.488536 5.536371 -5.680201 0
M  V30 22 C -0.402542 4.389046 -5.632692 0
M  V30 23 C 0.336410 3.378779 -5.071050 0
M  V30 24 C -0.173789 2.560328 -4.094030 0
M  V30 25 N 0.540151 1.572241 -3.543850 0
M  V30 26 C 1.799217 1.175859 -3.780836 0
M  V30 27 S 2.960973 1.700189 -4.791028 0
M  V30 28 N 2.061178 0.137968 -2.973781 0
M  V30 29 N 0.977729 -0.097573 -2.253290 0
M  V30 30 C 0.024462 0.791748 -2.600949 0
M  V30 31 H 1.430339 -3.943752 -0.343436 0
M  V30 32 H 0.320789 -5.183630 0.323368 0
M  V30 33 H -0.735952 -4.914704 2.364067 0
M  V30 34 H -0.684201 -4.158325 4.673418 0
M  V30 35 H 0.742092 -2.202390 5.278328 0
M  V30 36 H 1.949978 -1.934665 1.100212 0
M  V30 37 H -1.654115 -2.737710 1.151460 0
M  V30 38 H -3.615369 -1.747134 -0.122800 0
M  V30 39 H -3.249040 -3.050851 -1.334130 0
M  V30 40 H -1.583460 -1.650732 -2.403776 0
M  V30 41 H -3.190545 -0.907069 -2.379613 0
M  V30 42 H -2.437077 0.539534 -0.433249 0
M  V30 43 H -0.821129 -0.325749 -0.512214 0
M  V30 44 H -3.249512 3.851511 -3.801624 0
M  V30 45 H -0.097113 5.079603 -6.400156 0
M  V30 46 H 1.326345 3.311384 -5.475946 0
M  V30 47 H 2.902649 -0.478983 -2.815874 0
M  V30 END ATOM
M  V30 BEGIN BOND
M  V30 1 2 1 2
M  V30 2 1 2 3
M  V30 3 1 3 4
M  V30 4 2 4 5
M  V30 5 1 5 6
M  V30 6 2 6 7
M  V30 7 1 7 8
M  V30 8 1 8 9
M  V30 9 2 8 10
M  V30 10 1 2 11
M  V30 11 1 11 12
M  V30 12 1 12 13
M  V30 13 1 13 14
M  V30 14 1 14 15
M  V30 15 1 15 16
M  V30 16 2 16 17
M  V30 17 1 16 18
M  V30 18 2 18 19
M  V30 19 1 19 20
M  V30 20 1 20 21
M  V30 21 2 20 22
M  V30 22 1 22 23
M  V30 23 2 23 24
M  V30 24 1 24 25
M  V30 25 1 25 26
M  V30 26 2 26 27
M  V30 27 1 26 28
M  V30 28 1 28 29
M  V30 29 2 29 30
M  V30 30 1 10 4
M  V30 31 1 30 15
M  V30 32 1 24 18
M  V30 33 1 30 25
M  V30 34 1 3 31
M  V30 35 1 3 32
M  V30 36 1 5 33
M  V30 37 1 6 34
M  V30 38 1 7 35
M  V30 39 1 10 36
M  V30 40 1 11 37
M  V30 41 1 12 38
M  V30 42 1 12 39
M  V30 43 1 13 40
M  V30 44 1 13 41
M  V30 45 1 14 42
M  V30 46 1 14 43
M  V30 47 1 19 44
M  V30 48 1 22 45
M  V30 49 1 23 46
M  V30 50 1 28 47
M  V30 END BOND
M  V30 END CTAB
M  END
>  <Dataset>  (562) 
ChEMBL_Kinases

>  <Ligand_Instance>  (562) 
nan

>  <PDB_ID>  (562) 
nan

>  <Standardized_SMILES>  (562) 
O=C(Cc1cccc(F)c1)NCCCn1c(=O)c2cc(F)ccc2n2c(=S)[nH]nc12

>  <Name>  (562) 
nan

>  <Pocket>  (562) 
nan

>  <ATP_Site>  (562) 
nan

>  <Peripheral>  (562) 
nan

>  <Num_H_Atoms_ProtBoundConf>  (562) 
nan

>  <Num_Resolved_Atoms>  (562) 
nan

>  <Num_Not_Resolved_Atoms>  (562) 
nan

$$$$
CHEMBL4288103
     RDKit          3D

  0  0  0  0  0  0  0  0  0  0999 V3000
M  V30 BEGIN CTAB
M  V30 COUNTS 70 75 0 0 0
M  V30 BEGIN ATOM
M  V30 1 C 4.656356 -0.331469 7.763810 0
M  V30 2 N 4.467357 -0.820146 6.419641 0
M  V30 3 C 5.219358 0.017281 5.524986 0
M  V30 4 C 5.032523 -0.390572 4.072136 0
M  V30 5 C 3.618749 -0.803820 3.801246 0
M  V30 6 C 3.167716 -0.528769 2.411887 0
M  V30 7 N 3.028489 0.416377 1.705202 0
M  V30 8 C 2.591197 0.375888 0.455545 0
M  V30 9 C 2.485035 1.664151 -0.264545 0
M  V30 10 C 3.332558 1.709948 -1.373832 0
M  V30 11 C 3.374022 2.845763 -2.182310 0
M  V30 12 C 2.552275 3.918622 -1.850046 0
M  V30 13 F 2.578953 5.028938 -2.622755 0
M  V30 14 C 1.719318 3.852542 -0.745758 0
M  V30 15 C 1.673498 2.731785 0.058254 0
M  V30 16 C 2.260114 -0.897030 -0.090227 0
M  V30 17 C 1.767598 -1.010878 -1.477605 0
M  V30 18 C 2.477455 -1.752232 -2.422379 0
M  V30 19 C 1.886418 -1.760162 -3.670441 0
M  V30 20 N 0.742580 -1.121488 -3.957234 0
M  V30 21 C 0.105260 -0.420686 -2.994451 0
M  V30 22 N -1.109653 0.285300 -3.213025 0
M  V30 23 C -2.343718 -0.393440 -3.015603 0
M  V30 24 C -3.557306 0.231384 -3.204067 0
M  V30 25 C -4.766564 -0.401244 -3.021071 0
M  V30 26 C -4.818253 -1.721207 -2.631344 0
M  V30 27 N -6.032429 -2.429873 -2.424964 0
M  V30 28 C -6.211634 -3.821198 -2.057447 0
M  V30 29 C -6.746970 -3.898840 -0.650602 0
M  V30 30 N -7.206745 -2.604086 -0.243644 0
M  V30 31 C -8.046580 -1.937923 -1.211304 0
M  V30 32 C -7.341808 -1.862615 -2.547852 0
M  V30 33 C -3.604204 -2.342216 -2.443938 0
M  V30 34 C -2.384093 -1.723192 -2.622873 0
M  V30 35 N 0.621984 -0.370126 -1.761410 0
M  V30 36 S 2.621817 -2.006367 1.311859 0
M  V30 37 C 2.725175 -0.137431 4.833303 0
M  V30 38 C 3.058232 -0.849487 6.151104 0
M  V30 39 H 4.124404 -0.965749 8.520272 0
M  V30 40 H 4.188804 0.678194 7.845819 0
M  V30 41 H 5.708776 -0.218901 8.052420 0
M  V30 42 H 5.065824 1.106320 5.676360 0
M  V30 43 H 6.299737 -0.177046 5.763481 0
M  V30 44 H 5.715221 -1.245534 3.813011 0
M  V30 45 H 5.336534 0.484766 3.435590 0
M  V30 46 H 3.571311 -1.904221 4.034285 0
M  V30 47 H 4.000950 0.933333 -1.707904 0
M  V30 48 H 4.011249 2.936928 -3.054165 0
M  V30 49 H 1.070594 4.679883 -0.470520 0
M  V30 50 H 1.062738 2.586388 0.932642 0
M  V30 51 H 3.396820 -2.257620 -2.165758 0
M  V30 52 H 2.399632 -2.327924 -4.456748 0
M  V30 53 H -1.133343 1.270824 -3.509237 0
M  V30 54 H -3.555061 1.272556 -3.511502 0
M  V30 55 H -5.659648 0.163087 -3.190497 0
M  V30 56 H -6.892687 -4.353470 -2.760157 0
M  V30 57 H -5.240995 -4.338175 -2.119239 0
M  V30 58 H -5.937551 -4.202847 0.017948 0
M  V30 59 H -7.551669 -4.667593 -0.635577 0
M  V30 60 H -7.662672 -2.701218 0.684281 0
M  V30 61 H -8.260516 -0.926098 -0.777654 0
M  V30 62 H -9.009331 -2.482545 -1.255193 0
M  V30 63 H -7.962561 -2.453915 -3.263792 0
M  V30 64 H -7.383199 -0.828871 -2.919653 0
M  V30 65 H -3.481826 -3.368069 -2.139488 0
M  V30 66 H -1.420843 -2.192235 -2.481192 0
M  V30 67 H 3.000752 0.926817 4.875724 0
M  V30 68 H 1.660618 -0.339749 4.659898 0
M  V30 69 H 2.804886 -1.924804 5.938745 0
M  V30 70 H 2.420741 -0.538315 6.978057 0
M  V30 END ATOM
M  V30 BEGIN BOND
M  V30 1 1 1 2
M  V30 2 1 2 3
M  V30 3 1 3 4
M  V30 4 1 4 5
M  V30 5 1 5 6
M  V30 6 2 6 7
M  V30 7 1 7 8
M  V30 8 1 8 9
M  V30 9 2 9 10
M  V30 10 1 10 11
M  V30 11 2 11 12
M  V30 12 1 12 13
M  V30 13 1 12 14
M  V30 14 2 14 15
M  V30 15 2 8 16
M  V30 16 1 16 17
M  V30 17 2 17 18
M  V30 18 1 18 19
M  V30 19 2 19 20
M  V30 20 1 20 21
M  V30 21 1 21 22
M  V30 22 1 22 23
M  V30 23 2 23 24
M  V30 24 1 24 25
M  V30 25 2 25 26
M  V30 26 1 26 27
M  V30 27 1 27 28
M  V30 28 1 28 29
M  V30 29 1 29 30
M  V30 30 1 30 31
M  V30 31 1 31 32
M  V30 32 1 26 33
M  V30 33 2 33 34
M  V30 34 2 21 35
M  V30 35 1 16 36
M  V30 36 1 5 37
M  V30 37 1 37 38
M  V30 38 1 38 2
M  V30 39 1 36 6
M  V30 40 1 15 9
M  V30 41 1 35 17
M  V30 42 1 34 23
M  V30 43 1 32 27
M  V30 44 1 1 39
M  V30 45 1 1 40
M  V30 46 1 1 41
M  V30 47 1 3 42
M  V30 48 1 3 43
M  V30 49 1 4 44
M  V30 50 1 4 45
M  V30 51 1 5 46
M  V30 52 1 10 47
M  V30 53 1 11 48
M  V30 54 1 14 49
M  V30 55 1 15 50
M  V30 56 1 18 51
M  V30 57 1 19 52
M  V30 58 1 22 53
M  V30 59 1 24 54
M  V30 60 1 25 55
M  V30 61 1 28 56
M  V30 62 1 28 57
M  V30 63 1 29 58
M  V30 64 1 29 59
M  V30 65 1 30 60
M  V30 66 1 31 61
M  V30 67 1 31 62
M  V30 68 1 32 63
M  V30 69 1 32 64
M  V30 70 1 33 65
M  V30 71 1 34 66
M  V30 72 1 37 67
M  V30 73 1 37 68
M  V30 74 1 38 69
M  V30 75 1 38 70
M  V30 END BOND
M  V30 END CTAB
M  END
>  <Dataset>  (563) 
ChEMBL_Kinases

>  <Ligand_Instance>  (563) 
nan

>  <PDB_ID>  (563) 
nan

>  <Standardized_SMILES>  (563) 
CN1CCC(c2nc(-c3ccc(F)cc3)c(-c3ccnc(Nc4ccc(N5CCNCC5)cc4)n3)s2)CC1

>  <Name>  (563) 
nan

>  <Pocket>  (563) 
nan

>  <ATP_Site>  (563) 
nan

>  <Peripheral>  (563) 
nan

>  <Num_H_Atoms_ProtBoundConf>  (563) 
nan

>  <Num_Resolved_Atoms>  (563) 
nan

>  <Num_Not_Resolved_Atoms>  (563) 
nan

$$$$
CHEMBL4757529
     RDKit          3D

  0  0  0  0  0  0  0  0  0  0999 V3000
M  V30 BEGIN CTAB
M  V30 COUNTS 43 45 0 0 0
M  V30 BEGIN ATOM
M  V30 1 C -1.393789 -5.566295 -0.092824 0
M  V30 2 C -0.461448 -4.559049 0.542843 0
M  V30 3 C -1.133504 -3.846005 1.706107 0
M  V30 4 C -1.556186 -4.820422 2.786394 0
M  V30 5 N -0.176318 -2.900545 2.238999 0
M  V30 6 C -0.262839 -1.479989 2.281319 0
M  V30 7 O -1.392994 -1.232238 1.734264 0
M  V30 8 C 0.918628 -0.917763 2.902128 0
M  V30 9 C 1.044689 0.548138 3.016048 0
M  V30 10 N 1.039201 1.282822 1.774787 0
M  V30 11 C 2.262341 1.436525 1.181784 0
M  V30 12 O 3.302799 0.966138 1.671125 0
M  V30 13 C 2.440794 2.123161 -0.002915 0
M  V30 14 C 3.677375 2.272040 -0.591993 0
M  V30 15 C 3.777591 2.971606 -1.776327 0
M  V30 16 C 2.680902 3.549078 -2.426955 0
M  V30 17 C 1.453468 3.381301 -1.809252 0
M  V30 18 C 1.356092 2.686745 -0.633911 0
M  V30 19 N 0.176244 2.522449 -0.034848 0
M  V30 20 C -1.050663 2.937713 -0.370274 0
M  V30 21 S -1.632017 3.795659 -1.621641 0
M  V30 22 N -1.932215 2.528782 0.557429 0
M  V30 23 N -1.259009 1.855678 1.476866 0
M  V30 24 C 0.014978 1.852407 1.117571 0
M  V30 25 H -1.824528 -6.188315 0.723041 0
M  V30 26 H -2.200569 -5.105083 -0.660160 0
M  V30 27 H -0.864854 -6.261634 -0.760012 0
M  V30 28 H -0.252531 -3.774518 -0.212475 0
M  V30 29 H 0.502646 -5.015747 0.811822 0
M  V30 30 H -1.999124 -3.289762 1.309377 0
M  V30 31 H -1.202578 -5.845546 2.632266 0
M  V30 32 H -1.124321 -4.517108 3.785062 0
M  V30 33 H -2.652564 -4.722380 2.920562 0
M  V30 34 H 0.601008 -3.526540 2.587953 0
M  V30 35 H 1.091080 -1.440370 3.888472 0
M  V30 36 H 1.801307 -1.268736 2.287021 0
M  V30 37 H 2.031009 0.724316 3.543369 0
M  V30 38 H 0.318207 1.003909 3.751238 0
M  V30 39 H 4.545677 1.837160 -0.113752 0
M  V30 40 H 4.758737 3.066902 -2.206211 0
M  V30 41 H 2.883514 4.074610 -3.351864 0
M  V30 42 H 0.652170 3.842237 -2.349054 0
M  V30 43 H -2.983440 2.639286 0.675414 0
M  V30 END ATOM
M  V30 BEGIN BOND
M  V30 1 1 1 2
M  V30 2 1 2 3
M  V30 3 1 3 4
M  V30 4 1 3 5
M  V30 5 1 5 6
M  V30 6 2 6 7
M  V30 7 1 6 8
M  V30 8 1 8 9
M  V30 9 1 9 10
M  V30 10 1 10 11
M  V30 11 2 11 12
M  V30 12 1 11 13
M  V30 13 2 13 14
M  V30 14 1 14 15
M  V30 15 2 15 16
M  V30 16 1 16 17
M  V30 17 2 17 18
M  V30 18 1 18 19
M  V30 19 1 19 20
M  V30 20 2 20 21
M  V30 21 1 20 22
M  V30 22 1 22 23
M  V30 23 2 23 24
M  V30 24 1 24 10
M  V30 25 1 18 13
M  V30 26 1 24 19
M  V30 27 1 1 25
M  V30 28 1 1 26
M  V30 29 1 1 27
M  V30 30 1 2 28
M  V30 31 1 2 29
M  V30 32 1 3 30
M  V30 33 1 4 31
M  V30 34 1 4 32
M  V30 35 1 4 33
M  V30 36 1 5 34
M  V30 37 1 8 35
M  V30 38 1 8 36
M  V30 39 1 9 37
M  V30 40 1 9 38
M  V30 41 1 14 39
M  V30 42 1 15 40
M  V30 43 1 16 41
M  V30 44 1 17 42
M  V30 45 1 22 43
M  V30 END BOND
M  V30 END CTAB
M  END
>  <Dataset>  (564) 
ChEMBL_Kinases

>  <Ligand_Instance>  (564) 
nan

>  <PDB_ID>  (564) 
nan

>  <Standardized_SMILES>  (564) 
CCC(C)NC(=O)CCn1c(=O)c2ccccc2n2c(=S)[nH]nc12

>  <Name>  (564) 
nan

>  <Pocket>  (564) 
nan

>  <ATP_Site>  (564) 
nan

>  <Peripheral>  (564) 
nan

>  <Num_H_Atoms_ProtBoundConf>  (564) 
nan

>  <Num_Resolved_Atoms>  (564) 
nan

>  <Num_Not_Resolved_Atoms>  (564) 
nan

$$$$
CHEMBL4757545
     RDKit          3D

  0  0  0  0  0  0  0  0  0  0999 V3000
M  V30 BEGIN CTAB
M  V30 COUNTS 51 55 0 0 0
M  V30 BEGIN ATOM
M  V30 1 O 2.958554 -0.122919 -0.130413 0
M  V30 2 C 3.151553 -0.006213 1.114065 0
M  V30 3 N 4.493890 -0.066313 1.588633 0
M  V30 4 C 5.434766 -0.258252 0.515468 0
M  V30 5 C 5.700337 -1.602247 0.228494 0
M  V30 6 C 6.579188 -1.969074 -0.771610 0
M  V30 7 C 7.185509 -0.946091 -1.477352 0
M  V30 8 C 6.940790 0.388544 -1.214099 0
M  V30 9 C 6.059723 0.735455 -0.211215 0
M  V30 10 N 2.027113 0.174161 1.936739 0
M  V30 11 C 0.680421 0.233873 1.455089 0 CFG=1
M  V30 12 C -0.175434 -0.854712 2.089725 0
M  V30 13 O -1.442332 -0.438576 1.710582 0
M  V30 14 C -1.516674 0.921032 1.797024 0 CFG=1
M  V30 15 C -0.095226 1.447550 1.931032 0 CFG=2
M  V30 16 O 0.047876 2.509726 1.068955 0
M  V30 17 C -1.178007 2.804543 0.519973 0
M  V30 18 C -1.871474 1.488199 0.438343 0 CFG=2
M  V30 19 N -3.266966 1.571477 0.170818 0
M  V30 20 C -4.183198 0.494109 0.127184 0
M  V30 21 N -5.498191 0.663499 -0.130351 0
M  V30 22 C -6.321315 -0.401887 -0.160894 0
M  V30 23 C -5.888365 -1.714740 0.064071 0
M  V30 24 C -4.562029 -1.820653 0.316525 0
M  V30 25 C -4.006667 -3.155340 0.565234 0
M  V30 26 C -2.738726 -3.739863 0.855111 0
M  V30 27 C -2.666910 -5.080720 1.017955 0
M  V30 28 C -3.852629 -5.941875 0.904468 0
M  V30 29 S -5.177699 -4.635912 0.523677 0
M  V30 30 N -3.735068 -0.771947 0.349693 0
M  V30 31 H 4.554060 0.039998 2.632779 0
M  V30 32 H 5.235035 -2.419317 0.770492 0
M  V30 33 H 6.790641 -3.018437 -1.000355 0
M  V30 34 H 7.891111 -1.211418 -2.280667 0
M  V30 35 H 7.399695 1.193067 -1.748628 0
M  V30 36 H 5.801899 1.735018 0.071154 0
M  V30 37 H 2.157351 0.273276 2.967657 0
M  V30 38 H 0.608447 0.121973 0.349023 0
M  V30 39 H -0.071742 -0.799574 3.199241 0
M  V30 40 H 0.014372 -1.838835 1.660060 0
M  V30 41 H -2.172604 1.319931 2.596664 0
M  V30 42 H 0.167940 1.665919 2.968105 0
M  V30 43 H -1.740261 3.417824 1.270329 0
M  V30 44 H -1.067061 3.339935 -0.433686 0
M  V30 45 H -1.316205 0.865412 -0.309244 0
M  V30 46 H -3.638395 2.526705 -0.009199 0
M  V30 47 H -7.371037 -0.233451 -0.370151 0
M  V30 48 H -6.611589 -2.514063 0.021987 0
M  V30 49 H -1.960902 -3.008909 0.910388 0
M  V30 50 H -1.705451 -5.514490 1.236726 0
M  V30 51 H -3.800414 -6.972103 1.029061 0
M  V30 END ATOM
M  V30 BEGIN BOND
M  V30 1 2 1 2
M  V30 2 1 2 3
M  V30 3 1 3 4
M  V30 4 2 4 5
M  V30 5 1 5 6
M  V30 6 2 6 7
M  V30 7 1 7 8
M  V30 8 2 8 9
M  V30 9 1 2 10
M  V30 10 1 10 11
M  V30 11 1 11 12
M  V30 12 1 12 13
M  V30 13 1 13 14
M  V30 14 1 14 15
M  V30 15 1 15 16
M  V30 16 1 16 17
M  V30 17 1 17 18
M  V30 18 1 18 19
M  V30 19 1 19 20
M  V30 20 2 20 21
M  V30 21 1 21 22
M  V30 22 2 22 23
M  V30 23 1 23 24
M  V30 24 1 24 25
M  V30 25 2 25 26
M  V30 26 1 26 27
M  V30 27 2 27 28
M  V30 28 1 28 29
M  V30 29 2 24 30
M  V30 30 1 9 4
M  V30 31 1 15 11
M  V30 32 1 30 20
M  V30 33 1 18 14
M  V30 34 1 29 25
M  V30 35 1 3 31
M  V30 36 1 5 32
M  V30 37 1 6 33
M  V30 38 1 7 34
M  V30 39 1 8 35
M  V30 40 1 9 36
M  V30 41 1 10 37
M  V30 42 1 11 38 CFG=3
M  V30 43 1 12 39
M  V30 44 1 12 40
M  V30 45 1 14 41 CFG=1
M  V30 46 1 15 42 CFG=1
M  V30 47 1 17 43
M  V30 48 1 17 44
M  V30 49 1 18 45 CFG=3
M  V30 50 1 19 46
M  V30 51 1 22 47
M  V30 52 1 23 48
M  V30 53 1 26 49
M  V30 54 1 27 50
M  V30 55 1 28 51
M  V30 END BOND
M  V30 END CTAB
M  END
>  <Dataset>  (565) 
ChEMBL_Kinases

>  <Ligand_Instance>  (565) 
nan

>  <PDB_ID>  (565) 
nan

>  <Standardized_SMILES>  (565) 
O=C(Nc1ccccc1)N[C@H]1CO[C@H]2[C@@H]1OC[C@@H]2Nc1nccc(-c2cccs2)n1

>  <Name>  (565) 
nan

>  <Pocket>  (565) 
nan

>  <ATP_Site>  (565) 
nan

>  <Peripheral>  (565) 
nan

>  <Num_H_Atoms_ProtBoundConf>  (565) 
nan

>  <Num_Resolved_Atoms>  (565) 
nan

>  <Num_Not_Resolved_Atoms>  (565) 
nan

$$$$
CHEMBL4288045
     RDKit          3D

  0  0  0  0  0  0  0  0  0  0999 V3000
M  V30 BEGIN CTAB
M  V30 COUNTS 71 74 0 0 0
M  V30 BEGIN ATOM
M  V30 1 C 5.625939 -1.130713 8.876004 0
M  V30 2 O 4.480652 -1.744922 8.338936 0
M  V30 3 C 4.774900 -2.439704 7.188290 0
M  V30 4 C 3.611028 -3.125340 6.545383 0
M  V30 5 C 2.534380 -2.197258 6.148111 0
M  V30 6 C 2.399338 -1.859721 4.813317 0
M  V30 7 C 1.417762 -0.996686 4.385918 0
M  V30 8 C 1.303073 -0.673104 3.053600 0
M  V30 9 C 0.326204 0.197729 2.577884 0
M  V30 10 C 0.374423 0.422009 1.139752 0
M  V30 11 O 1.203936 -0.119843 0.377735 0
M  V30 12 N -0.495281 1.266813 0.418137 0
M  V30 13 C -0.440565 1.482494 -1.000344 0
M  V30 14 C -1.178681 0.574202 -1.717245 0
M  V30 15 C -1.187871 0.713853 -3.090315 0
M  V30 16 C -1.949563 -0.237323 -3.893615 0
M  V30 17 O -2.522111 -1.191355 -3.307624 0
M  V30 18 N -2.102970 -0.182157 -5.279574 0
M  V30 19 C -2.888680 -1.195992 -5.981886 0 CFG=2
M  V30 20 C -1.997164 -1.866879 -7.000768 0
M  V30 21 C -0.839634 -2.498888 -6.234676 0
M  V30 22 N -1.308022 -3.464919 -5.291615 0
M  V30 23 C -4.083625 -0.595570 -6.633170 0
M  V30 24 C -4.813178 0.292477 -5.875290 0
M  V30 25 C -5.960420 0.956298 -6.300813 0
M  V30 26 C -6.334304 0.646949 -7.600912 0
M  V30 27 C -5.650668 -0.225633 -8.400312 0
M  V30 28 C -4.503306 -0.869863 -7.931213 0
M  V30 29 C -0.469967 1.740253 -3.673714 0
M  V30 30 C 0.255577 2.624796 -2.901669 0
M  V30 31 C 0.302327 2.532174 -1.506239 0
M  V30 32 Cl 1.197564 3.616660 -0.468549 0
M  V30 33 C -0.508508 0.701974 3.550325 0
M  V30 34 O -1.386975 1.483265 3.129155 0
M  V30 35 N -0.405425 0.392788 4.852407 0
M  V30 36 C 0.543961 -0.450648 5.300229 0
M  V30 37 C 0.675917 -0.785604 6.631286 0
M  V30 38 C 1.653357 -1.648536 7.079487 0
M  V30 39 O 1.862260 -2.040168 8.386549 0
M  V30 40 C 1.110878 -1.628626 9.503807 0
M  V30 41 H 6.014810 -0.422961 8.101469 0
M  V30 42 H 5.300714 -0.509110 9.733636 0
M  V30 43 H 6.356381 -1.912143 9.132046 0
M  V30 44 H 5.494947 -3.256934 7.474255 0
M  V30 45 H 5.328221 -1.820861 6.452679 0
M  V30 46 H 3.256525 -3.900338 7.264529 0
M  V30 47 H 3.988818 -3.660218 5.649289 0
M  V30 48 H 3.079397 -2.282133 4.094079 0
M  V30 49 H 2.037028 -1.149311 2.383582 0
M  V30 50 H -1.251325 1.798568 0.897534 0
M  V30 51 H -1.735431 -0.218068 -1.284042 0
M  V30 52 H -1.650072 0.590665 -5.812642 0
M  V30 53 H -3.230058 -1.972090 -5.274164 0
M  V30 54 H -2.526502 -2.680546 -7.523671 0
M  V30 55 H -1.624020 -1.117832 -7.735124 0
M  V30 56 H -0.050143 -2.876870 -6.894923 0
M  V30 57 H -0.388144 -1.660385 -5.644441 0
M  V30 58 H -1.046510 -3.282614 -4.315927 0
M  V30 59 H -2.247911 -3.841992 -5.438826 0
M  V30 60 H -4.507697 0.530914 -4.843946 0
M  V30 61 H -6.499243 1.639112 -5.678107 0
M  V30 62 H -7.210797 1.110091 -8.020207 0
M  V30 63 H -5.973750 -0.438647 -9.399816 0
M  V30 64 H -3.929363 -1.556941 -8.500663 0
M  V30 65 H -0.457036 1.880151 -4.747977 0
M  V30 66 H 0.834760 3.448207 -3.330959 0
M  V30 67 H -1.082202 0.826368 5.509336 0
M  V30 68 H -0.001199 -0.360192 7.336101 0
M  V30 69 H 0.790061 -2.522682 10.106857 0
M  V30 70 H 1.719695 -0.945534 10.158199 0
M  V30 71 H 0.220761 -1.040387 9.214670 0
M  V30 END ATOM
M  V30 BEGIN BOND
M  V30 1 1 1 2
M  V30 2 1 2 3
M  V30 3 1 3 4
M  V30 4 1 4 5
M  V30 5 2 5 6
M  V30 6 1 6 7
M  V30 7 1 7 8
M  V30 8 2 8 9
M  V30 9 1 9 10
M  V30 10 2 10 11
M  V30 11 1 10 12
M  V30 12 1 12 13
M  V30 13 2 13 14
M  V30 14 1 14 15
M  V30 15 1 15 16
M  V30 16 2 16 17
M  V30 17 1 16 18
M  V30 18 1 18 19
M  V30 19 1 19 20
M  V30 20 1 20 21
M  V30 21 1 21 22
M  V30 22 1 19 23
M  V30 23 2 23 24
M  V30 24 1 24 25
M  V30 25 2 25 26
M  V30 26 1 26 27
M  V30 27 2 27 28
M  V30 28 2 15 29
M  V30 29 1 29 30
M  V30 30 2 30 31
M  V30 31 1 31 32
M  V30 32 1 9 33
M  V30 33 2 33 34
M  V30 34 1 33 35
M  V30 35 1 35 36
M  V30 36 1 36 37
M  V30 37 2 37 38
M  V30 38 1 38 39
M  V30 39 1 39 40
M  V30 40 1 38 5
M  V30 41 2 36 7
M  V30 42 1 31 13
M  V30 43 1 28 23
M  V30 44 1 1 41
M  V30 45 1 1 42
M  V30 46 1 1 43
M  V30 47 1 3 44
M  V30 48 1 3 45
M  V30 49 1 4 46
M  V30 50 1 4 47
M  V30 51 1 6 48
M  V30 52 1 8 49
M  V30 53 1 12 50
M  V30 54 1 14 51
M  V30 55 1 18 52
M  V30 56 1 19 53 CFG=1
M  V30 57 1 20 54
M  V30 58 1 20 55
M  V30 59 1 21 56
M  V30 60 1 21 57
M  V30 61 1 22 58
M  V30 62 1 22 59
M  V30 63 1 24 60
M  V30 64 1 25 61
M  V30 65 1 26 62
M  V30 66 1 27 63
M  V30 67 1 28 64
M  V30 68 1 29 65
M  V30 69 1 30 66
M  V30 70 1 35 67
M  V30 71 1 37 68
M  V30 72 1 40 69
M  V30 73 1 40 70
M  V30 74 1 40 71
M  V30 END BOND
M  V30 END CTAB
M  END
>  <Dataset>  (566) 
ChEMBL_Kinases

>  <Ligand_Instance>  (566) 
nan

>  <PDB_ID>  (566) 
nan

>  <Standardized_SMILES>  (566) 
COCCc1cc2cc(C(=O)Nc3cc(C(=O)N[C@H](CCN)c4ccccc4)ccc3Cl)c(=O)[nH]c2cc1OC

>  <Name>  (566) 
nan

>  <Pocket>  (566) 
nan

>  <ATP_Site>  (566) 
nan

>  <Peripheral>  (566) 
nan

>  <Num_H_Atoms_ProtBoundConf>  (566) 
nan

>  <Num_Resolved_Atoms>  (566) 
nan

>  <Num_Not_Resolved_Atoms>  (566) 
nan

$$$$
CHEMBL4287985
     RDKit          3D

  0  0  0  0  0  0  0  0  0  0999 V3000
M  V30 BEGIN CTAB
M  V30 COUNTS 24 26 0 0 0
M  V30 BEGIN ATOM
M  V30 1 C 2.345248 -3.934639 2.438410 0
M  V30 2 C 1.121672 -4.447274 2.869239 0
M  V30 3 N -0.012555 -3.732320 2.667497 0
M  V30 4 C 0.031062 -2.519236 2.048678 0
M  V30 5 C 1.259612 -2.006758 1.617230 0
M  V30 6 C 1.261875 -0.726849 0.970452 0
M  V30 7 C 0.304398 0.167503 0.653195 0
M  V30 8 C 0.552770 1.325607 0.033357 0
M  V30 9 C -0.434677 2.313340 -0.326866 0
M  V30 10 C -0.324634 3.509042 -0.946268 0
M  V30 11 N -1.465027 4.149656 -1.109686 0
M  V30 12 C -2.520929 3.883351 -0.826886 0
M  V30 13 S -2.154309 2.178418 -0.017209 0
M  V30 14 C 1.937373 1.537802 -0.268291 0
M  V30 15 S 2.781060 0.027101 0.376262 0
M  V30 16 C 2.426806 -2.709959 1.808403 0
M  V30 17 H 3.254357 -4.504857 2.598681 0
M  V30 18 H 1.120740 -5.413271 3.357264 0
M  V30 19 H -0.878185 -1.947761 1.887797 0
M  V30 20 H -0.685020 -0.145659 0.950337 0
M  V30 21 H 0.659446 3.880932 -1.272311 0
M  V30 22 H -3.441628 4.477664 -0.997775 0
M  V30 23 H 2.317543 2.573506 -0.844814 0
M  V30 24 H 3.395141 -2.343594 1.487314 0
M  V30 END ATOM
M  V30 BEGIN BOND
M  V30 1 2 1 2
M  V30 2 1 2 3
M  V30 3 2 3 4
M  V30 4 1 4 5
M  V30 5 1 5 6
M  V30 6 2 6 7
M  V30 7 1 7 8
M  V30 8 1 8 9
M  V30 9 2 9 10
M  V30 10 1 10 11
M  V30 11 2 11 12
M  V30 12 1 12 13
M  V30 13 2 8 14
M  V30 14 1 14 15
M  V30 15 2 5 16
M  V30 16 1 16 1
M  V30 17 1 15 6
M  V30 18 1 13 9
M  V30 19 1 1 17
M  V30 20 1 2 18
M  V30 21 1 4 19
M  V30 22 1 7 20
M  V30 23 1 10 21
M  V30 24 1 12 22
M  V30 25 1 14 23
M  V30 26 1 16 24
M  V30 END BOND
M  V30 END CTAB
M  END
>  <Dataset>  (567) 
ChEMBL_Kinases

>  <Ligand_Instance>  (567) 
nan

>  <PDB_ID>  (567) 
nan

>  <Standardized_SMILES>  (567) 
c1cncc(-c2cc(-c3cncs3)cs2)c1

>  <Name>  (567) 
nan

>  <Pocket>  (567) 
nan

>  <ATP_Site>  (567) 
nan

>  <Peripheral>  (567) 
nan

>  <Num_H_Atoms_ProtBoundConf>  (567) 
nan

>  <Num_Resolved_Atoms>  (567) 
nan

>  <Num_Not_Resolved_Atoms>  (567) 
nan

$$$$
CHEMBL4287934
     RDKit          3D

  0  0  0  0  0  0  0  0  0  0999 V3000
M  V30 BEGIN CTAB
M  V30 COUNTS 66 70 0 0 0
M  V30 BEGIN ATOM
M  V30 1 C 2.457436 -2.305981 4.742029 0
M  V30 2 N 3.643412 -1.785403 4.102786 0
M  V30 3 C 3.704425 -2.048058 2.694463 0
M  V30 4 C 4.137706 -0.898147 1.843902 0
M  V30 5 C 3.431562 0.397285 2.137889 0
M  V30 6 C 2.070369 0.408643 1.402283 0
M  V30 7 N 1.528287 0.983988 0.545481 0
M  V30 8 C 0.302093 0.762384 0.111611 0
M  V30 9 C -0.282152 1.561753 -0.987133 0
M  V30 10 C -0.674201 1.040090 -2.185781 0
M  V30 11 C -1.213470 1.907272 -3.143789 0
M  V30 12 C -1.353801 3.263599 -2.900100 0
M  V30 13 C -0.960563 3.799635 -1.692034 0
M  V30 14 S -1.111590 5.512834 -1.319238 0
M  V30 15 C -2.720370 5.736333 -0.573745 0
M  V30 16 O -0.078380 5.946077 -0.322254 0
M  V30 17 O -0.996996 6.286325 -2.603538 0
M  V30 18 C -0.435561 2.931767 -0.769762 0
M  V30 19 C -0.404508 -0.275877 0.760893 0
M  V30 20 C -1.803819 -0.663365 0.397574 0
M  V30 21 C -2.793270 0.282160 0.559758 0
M  V30 22 C -4.057207 -0.129997 0.212652 0
M  V30 23 N -4.311744 -1.361025 -0.250076 0
M  V30 24 C -3.323684 -2.278976 -0.402979 0
M  V30 25 N -3.611963 -3.573681 -0.891394 0
M  V30 26 C -2.590259 -4.562472 -1.062706 0
M  V30 27 C -1.523194 -4.135959 -2.025999 0
M  V30 28 C -0.392196 -5.143331 -2.034470 0
M  V30 29 O 0.091812 -5.196806 -0.730401 0
M  V30 30 C -0.779446 -5.812472 0.137349 0
M  V30 31 C -2.014154 -4.944783 0.297064 0
M  V30 32 N -2.077808 -1.895793 -0.068735 0
M  V30 33 S 0.851752 -0.847763 1.994642 0
M  V30 34 C 3.204693 0.595776 3.611965 0
M  V30 35 C 3.924709 -0.417094 4.451774 0
M  V30 36 H 1.999633 -3.128741 4.153158 0
M  V30 37 H 2.763992 -2.725050 5.730876 0
M  V30 38 H 1.648267 -1.539276 4.829560 0
M  V30 39 H 4.486898 -2.848508 2.572170 0
M  V30 40 H 2.783549 -2.484670 2.308655 0
M  V30 41 H 5.237465 -0.710306 1.917685 0
M  V30 42 H 3.951325 -1.188432 0.788203 0
M  V30 43 H 3.976690 1.213636 1.642869 0
M  V30 44 H -0.555784 -0.025878 -2.357119 0
M  V30 45 H -1.525234 1.501381 -4.092790 0
M  V30 46 H -1.771940 3.925071 -3.647907 0
M  V30 47 H -2.756730 6.669007 0.034583 0
M  V30 48 H -3.480168 5.691104 -1.371305 0
M  V30 49 H -2.854870 4.856428 0.099076 0
M  V30 50 H -0.120239 3.336158 0.187589 0
M  V30 51 H -2.509125 1.254285 0.938505 0
M  V30 52 H -4.861522 0.606874 0.333590 0
M  V30 53 H -4.586819 -3.821288 -1.133960 0
M  V30 54 H -3.003688 -5.519303 -1.469773 0
M  V30 55 H -1.077335 -3.166018 -1.810056 0
M  V30 56 H -2.021780 -4.046814 -3.020333 0
M  V30 57 H -0.697327 -6.139648 -2.411232 0
M  V30 58 H 0.443212 -4.730933 -2.651041 0
M  V30 59 H -0.272298 -5.838714 1.133940 0
M  V30 60 H -1.079173 -6.817011 -0.215916 0
M  V30 61 H -2.815704 -5.572748 0.780671 0
M  V30 62 H -1.816889 -4.050148 0.902046 0
M  V30 63 H 2.111518 0.477088 3.807483 0
M  V30 64 H 3.558163 1.589872 3.905967 0
M  V30 65 H 3.552709 -0.276125 5.503189 0
M  V30 66 H 5.012069 -0.204531 4.488875 0
M  V30 END ATOM
M  V30 BEGIN BOND
M  V30 1 1 1 2
M  V30 2 1 2 3
M  V30 3 1 3 4
M  V30 4 1 4 5
M  V30 5 1 5 6
M  V30 6 2 6 7
M  V30 7 1 7 8
M  V30 8 1 8 9
M  V30 9 2 9 10
M  V30 10 1 10 11
M  V30 11 2 11 12
M  V30 12 1 12 13
M  V30 13 1 13 14
M  V30 14 1 14 15
M  V30 15 2 14 16
M  V30 16 2 14 17
M  V30 17 2 13 18
M  V30 18 2 8 19
M  V30 19 1 19 20
M  V30 20 2 20 21
M  V30 21 1 21 22
M  V30 22 2 22 23
M  V30 23 1 23 24
M  V30 24 1 24 25
M  V30 25 1 25 26
M  V30 26 1 26 27
M  V30 27 1 27 28
M  V30 28 1 28 29
M  V30 29 1 29 30
M  V30 30 1 30 31
M  V30 31 2 24 32
M  V30 32 1 19 33
M  V30 33 1 5 34
M  V30 34 1 34 35
M  V30 35 1 35 2
M  V30 36 1 33 6
M  V30 37 1 18 9
M  V30 38 1 32 20
M  V30 39 1 31 26
M  V30 40 1 1 36
M  V30 41 1 1 37
M  V30 42 1 1 38
M  V30 43 1 3 39
M  V30 44 1 3 40
M  V30 45 1 4 41
M  V30 46 1 4 42
M  V30 47 1 5 43
M  V30 48 1 10 44
M  V30 49 1 11 45
M  V30 50 1 12 46
M  V30 51 1 15 47
M  V30 52 1 15 48
M  V30 53 1 15 49
M  V30 54 1 18 50
M  V30 55 1 21 51
M  V30 56 1 22 52
M  V30 57 1 25 53
M  V30 58 1 26 54
M  V30 59 1 27 55
M  V30 60 1 27 56
M  V30 61 1 28 57
M  V30 62 1 28 58
M  V30 63 1 30 59
M  V30 64 1 30 60
M  V30 65 1 31 61
M  V30 66 1 31 62
M  V30 67 1 34 63
M  V30 68 1 34 64
M  V30 69 1 35 65
M  V30 70 1 35 66
M  V30 END BOND
M  V30 END CTAB
M  END
>  <Dataset>  (568) 
ChEMBL_Kinases

>  <Ligand_Instance>  (568) 
nan

>  <PDB_ID>  (568) 
nan

>  <Standardized_SMILES>  (568) 
CN1CCC(c2nc(-c3cccc(S(C)(=O)=O)c3)c(-c3ccnc(NC4CCOCC4)n3)s2)CC1

>  <Name>  (568) 
nan

>  <Pocket>  (568) 
nan

>  <ATP_Site>  (568) 
nan

>  <Peripheral>  (568) 
nan

>  <Num_H_Atoms_ProtBoundConf>  (568) 
nan

>  <Num_Resolved_Atoms>  (568) 
nan

>  <Num_Not_Resolved_Atoms>  (568) 
nan

$$$$
CHEMBL4287843
     RDKit          3D

  0  0  0  0  0  0  0  0  0  0999 V3000
M  V30 BEGIN CTAB
M  V30 COUNTS 49 52 0 0 0
M  V30 BEGIN ATOM
M  V30 1 C -0.131650 -5.468364 0.267274 0
M  V30 2 C 0.724709 -4.250349 0.157737 0
M  V30 3 C 0.076198 -3.053568 0.407300 0
M  V30 4 C 0.713244 -1.822986 0.351708 0
M  V30 5 C 0.069536 -0.551411 0.605533 0
M  V30 6 C -0.123012 0.568343 -0.178385 0
M  V30 7 C 0.391987 0.561869 -1.551963 0
M  V30 8 C 0.053265 -0.249474 -2.615348 0
M  V30 9 C 0.691979 -0.050735 -3.820023 0
M  V30 10 C 1.644362 0.925621 -3.976676 0
M  V30 11 C 1.969443 1.731805 -2.889906 0
M  V30 12 C 3.008607 2.805000 -3.041660 0
M  V30 13 N 1.335619 1.525497 -1.716187 0
M  V30 14 N -0.789110 1.509852 0.517741 0
M  V30 15 N -1.037492 1.037727 1.734291 0
M  V30 16 C -0.526766 -0.224790 1.828930 0
M  V30 17 C -0.822729 -0.729083 3.211591 0
M  V30 18 C 0.364708 -0.384474 4.066630 0
M  V30 19 C -2.044006 0.084366 3.545985 0
M  V30 20 C -3.191235 -0.481701 2.738354 0
M  V30 21 C -2.382546 0.133618 4.999009 0
M  V30 22 C -1.669814 1.426928 2.981292 0
M  V30 23 C 2.061953 -1.894736 0.023052 0
M  V30 24 C 2.700521 -3.083207 -0.223470 0
M  V30 25 N 2.033246 -4.246648 -0.155310 0
M  V30 26 H -1.173132 -5.231852 -0.032649 0
M  V30 27 H 0.304245 -6.274841 -0.332648 0
M  V30 28 H -0.163005 -5.854181 1.314883 0
M  V30 29 H -0.992128 -3.008729 0.666693 0
M  V30 30 H -0.707460 -0.972648 -2.354213 0
M  V30 31 H 0.369053 -0.735297 -4.618791 0
M  V30 32 H 2.120429 1.046823 -4.939220 0
M  V30 33 H 2.768459 3.522699 -3.842771 0
M  V30 34 H 3.010469 3.389718 -2.087834 0
M  V30 35 H 3.998975 2.368145 -3.272012 0
M  V30 36 H -1.069600 -1.796912 3.206431 0
M  V30 37 H 0.195029 0.561566 4.626598 0
M  V30 38 H 0.519046 -1.179994 4.803423 0
M  V30 39 H 1.265601 -0.194767 3.434501 0
M  V30 40 H -3.234254 -1.585718 2.811532 0
M  V30 41 H -4.167173 -0.043608 3.072998 0
M  V30 42 H -3.068234 -0.232550 1.663516 0
M  V30 43 H -1.496283 0.027443 5.633066 0
M  V30 44 H -2.800851 1.147121 5.205778 0
M  V30 45 H -3.113854 -0.672372 5.200333 0
M  V30 46 H -0.944697 1.956787 3.605165 0
M  V30 47 H -2.568246 2.043591 2.749414 0
M  V30 48 H 2.676913 -1.012396 -0.054578 0
M  V30 49 H 3.742583 -3.194577 -0.481514 0
M  V30 END ATOM
M  V30 BEGIN BOND
M  V30 1 1 1 2
M  V30 2 2 2 3
M  V30 3 1 3 4
M  V30 4 1 4 5
M  V30 5 1 5 6
M  V30 6 1 6 7
M  V30 7 2 7 8
M  V30 8 1 8 9
M  V30 9 2 9 10
M  V30 10 1 10 11
M  V30 11 1 11 12
M  V30 12 2 11 13
M  V30 13 2 6 14
M  V30 14 1 14 15
M  V30 15 1 15 16
M  V30 16 1 16 17
M  V30 17 1 17 18
M  V30 18 1 17 19
M  V30 19 1 19 20
M  V30 20 1 19 21
M  V30 21 1 19 22
M  V30 22 2 4 23
M  V30 23 1 23 24
M  V30 24 2 24 25
M  V30 25 1 25 2
M  V30 26 2 16 5
M  V30 27 1 13 7
M  V30 28 1 22 15
M  V30 29 1 1 26
M  V30 30 1 1 27
M  V30 31 1 1 28
M  V30 32 1 3 29
M  V30 33 1 8 30
M  V30 34 1 9 31
M  V30 35 1 10 32
M  V30 36 1 12 33
M  V30 37 1 12 34
M  V30 38 1 12 35
M  V30 39 1 17 36
M  V30 40 1 18 37
M  V30 41 1 18 38
M  V30 42 1 18 39
M  V30 43 1 20 40
M  V30 44 1 20 41
M  V30 45 1 20 42
M  V30 46 1 21 43
M  V30 47 1 21 44
M  V30 48 1 21 45
M  V30 49 1 22 46
M  V30 50 1 22 47
M  V30 51 1 23 48
M  V30 52 1 24 49
M  V30 END BOND
M  V30 END CTAB
M  END
>  <Dataset>  (569) 
ChEMBL_Kinases

>  <Ligand_Instance>  (569) 
nan

>  <PDB_ID>  (569) 
nan

>  <Standardized_SMILES>  (569) 
Cc1cc(-c2c(-c3cccc(C)n3)nn3c2C(C)C(C)(C)C3)ccn1

>  <Name>  (569) 
nan

>  <Pocket>  (569) 
nan

>  <ATP_Site>  (569) 
nan

>  <Peripheral>  (569) 
nan

>  <Num_H_Atoms_ProtBoundConf>  (569) 
nan

>  <Num_Resolved_Atoms>  (569) 
nan

>  <Num_Not_Resolved_Atoms>  (569) 
nan

$$$$
CHEMBL4288275
     RDKit          3D

  0  0  0  0  0  0  0  0  0  0999 V3000
M  V30 BEGIN CTAB
M  V30 COUNTS 33 35 0 0 0
M  V30 BEGIN ATOM
M  V30 1 C -2.100848 -0.743097 1.978801 0
M  V30 2 C -0.799246 -0.938543 1.282270 0
M  V30 3 N 0.034058 -1.959285 1.415179 0
M  V30 4 N 1.099464 -1.837037 0.662647 0
M  V30 5 C 2.274761 -2.599592 0.412486 0
M  V30 6 O 3.210627 -2.328018 -0.354212 0
M  V30 7 C 2.441583 -3.903101 1.148951 0
M  V30 8 C 1.914536 -4.004161 2.561524 0
M  V30 9 C 1.225466 -4.680574 1.434817 0
M  V30 10 C 0.945735 -0.654504 -0.004436 0
M  V30 11 N 1.792325 0.002117 -0.963998 0
M  V30 12 C -0.245032 -0.064731 0.367166 0
M  V30 13 C -0.849612 1.195131 -0.064889 0
M  V30 14 C -0.563517 2.354636 0.629771 0
M  V30 15 C -1.138949 3.566129 0.222070 0
M  V30 16 C -1.974167 3.499354 -0.879346 0
M  V30 17 Cl -2.719822 5.011836 -1.423656 0
M  V30 18 C -2.287018 2.364074 -1.601928 0
M  V30 19 Cl -3.370063 2.447783 -2.982621 0
M  V30 20 C -1.690779 1.179011 -1.159872 0
M  V30 21 H -2.353180 0.334138 2.032599 0
M  V30 22 H -2.116454 -1.276342 2.935813 0
M  V30 23 H -2.940986 -1.197866 1.375657 0
M  V30 24 H 3.373755 -4.477827 0.934697 0
M  V30 25 H 2.430106 -4.643368 3.288748 0
M  V30 26 H 1.446340 -3.116102 3.030080 0
M  V30 27 H 1.310987 -5.798904 1.347383 0
M  V30 28 H 0.227588 -4.313640 1.146888 0
M  V30 29 H 2.494038 0.774948 -0.883449 0
M  V30 30 H 1.676884 -0.374493 -1.933201 0
M  V30 31 H 0.096962 2.384156 1.494266 0
M  V30 32 H -0.972245 4.526183 0.706250 0
M  V30 33 H -1.932318 0.289615 -1.721347 0
M  V30 END ATOM
M  V30 BEGIN BOND
M  V30 1 1 1 2
M  V30 2 2 2 3
M  V30 3 1 3 4
M  V30 4 1 4 5
M  V30 5 2 5 6
M  V30 6 1 5 7
M  V30 7 1 7 8
M  V30 8 1 8 9
M  V30 9 1 4 10
M  V30 10 1 10 11
M  V30 11 2 10 12
M  V30 12 1 12 13
M  V30 13 2 13 14
M  V30 14 1 14 15
M  V30 15 2 15 16
M  V30 16 1 16 17
M  V30 17 1 16 18
M  V30 18 1 18 19
M  V30 19 2 18 20
M  V30 20 1 12 2
M  V30 21 1 20 13
M  V30 22 1 9 7
M  V30 23 1 1 21
M  V30 24 1 1 22
M  V30 25 1 1 23
M  V30 26 1 7 24
M  V30 27 1 8 25
M  V30 28 1 8 26
M  V30 29 1 9 27
M  V30 30 1 9 28
M  V30 31 1 11 29
M  V30 32 1 11 30
M  V30 33 1 14 31
M  V30 34 1 15 32
M  V30 35 1 20 33
M  V30 END BOND
M  V30 END CTAB
M  END
>  <Dataset>  (570) 
ChEMBL_Kinases

>  <Ligand_Instance>  (570) 
nan

>  <PDB_ID>  (570) 
nan

>  <Standardized_SMILES>  (570) 
Cc1nn(C(=O)C2CC2)c(N)c1-c1ccc(Cl)c(Cl)c1

>  <Name>  (570) 
nan

>  <Pocket>  (570) 
nan

>  <ATP_Site>  (570) 
nan

>  <Peripheral>  (570) 
nan

>  <Num_H_Atoms_ProtBoundConf>  (570) 
nan

>  <Num_Resolved_Atoms>  (570) 
nan

>  <Num_Not_Resolved_Atoms>  (570) 
nan

$$$$
CHEMBL4279935
     RDKit          3D

  0  0  0  0  0  0  0  0  0  0999 V3000
M  V30 BEGIN CTAB
M  V30 COUNTS 46 49 0 0 0
M  V30 BEGIN ATOM
M  V30 1 C 3.232813 -3.446924 4.783552 0
M  V30 2 C 3.166526 -2.300653 3.839681 0
M  V30 3 C 4.119080 -1.303324 3.854516 0
M  V30 4 C 4.169318 -0.193271 3.035948 0
M  V30 5 C 3.119075 -0.122530 2.112769 0
M  V30 6 C 2.155963 -1.101150 2.074623 0
M  V30 7 C 1.087953 -0.960751 1.083199 0
M  V30 8 N 1.032122 -1.945060 0.139656 0
M  V30 9 N 0.032275 -1.701204 -0.688241 0
M  V30 10 C -0.580380 -0.568885 -0.311665 0
M  V30 11 C 0.053024 -0.071400 0.798939 0
M  V30 12 C -0.086951 1.062808 1.672641 0
M  V30 13 C 0.052806 2.335799 1.123733 0
M  V30 14 C -0.061056 3.502058 1.866823 0
M  V30 15 N -0.321364 3.407657 3.194793 0
M  V30 16 C -0.464833 2.190822 3.770098 0
M  V30 17 C -0.354909 1.021580 3.046883 0
M  V30 18 C -1.721496 -0.196538 -1.171442 0
M  V30 19 C -3.050296 -0.360440 -0.468812 0
M  V30 20 C -1.556242 -1.167400 -2.327122 0
M  V30 21 C -2.868189 -1.788927 -2.754649 0
M  V30 22 C -0.949557 -0.352449 -3.476593 0
M  V30 23 C -0.625626 -2.236973 -1.858918 0
M  V30 24 N 2.198440 -2.155232 2.926524 0
M  V30 25 H 3.327520 -3.099986 5.823314 0
M  V30 26 H 2.302740 -4.061470 4.607816 0
M  V30 27 H 4.065826 -4.102550 4.460309 0
M  V30 28 H 4.934457 -1.378910 4.587590 0
M  V30 29 H 4.965067 0.531486 3.132574 0
M  V30 30 H 3.139597 0.751189 1.452471 0
M  V30 31 H 0.263491 2.420894 0.050845 0
M  V30 32 H 0.064966 4.454466 1.346379 0
M  V30 33 H -0.671098 2.110512 4.821530 0
M  V30 34 H -0.464227 0.024454 3.476327 0
M  V30 35 H -1.615074 0.862063 -1.491302 0
M  V30 36 H -2.894410 -0.110731 0.607428 0
M  V30 37 H -3.466719 -1.366299 -0.513502 0
M  V30 38 H -3.826771 0.321856 -0.878963 0
M  V30 39 H -2.961236 -2.777464 -2.233597 0
M  V30 40 H -2.832343 -1.984495 -3.849432 0
M  V30 41 H -3.736924 -1.143749 -2.534600 0
M  V30 42 H -0.680563 -0.970150 -4.339698 0
M  V30 43 H -1.681234 0.442338 -3.694530 0
M  V30 44 H -0.069127 0.170989 -3.022141 0
M  V30 45 H -1.141110 -3.162652 -1.538896 0
M  V30 46 H 0.086975 -2.525870 -2.648957 0
M  V30 END ATOM
M  V30 BEGIN BOND
M  V30 1 1 1 2
M  V30 2 2 2 3
M  V30 3 1 3 4
M  V30 4 2 4 5
M  V30 5 1 5 6
M  V30 6 1 6 7
M  V30 7 2 7 8
M  V30 8 1 8 9
M  V30 9 1 9 10
M  V30 10 2 10 11
M  V30 11 1 11 12
M  V30 12 2 12 13
M  V30 13 1 13 14
M  V30 14 2 14 15
M  V30 15 1 15 16
M  V30 16 2 16 17
M  V30 17 1 10 18
M  V30 18 1 18 19
M  V30 19 1 18 20
M  V30 20 1 20 21
M  V30 21 1 20 22
M  V30 22 1 20 23
M  V30 23 2 6 24
M  V30 24 1 24 2
M  V30 25 1 11 7
M  V30 26 1 17 12
M  V30 27 1 23 9
M  V30 28 1 1 25
M  V30 29 1 1 26
M  V30 30 1 1 27
M  V30 31 1 3 28
M  V30 32 1 4 29
M  V30 33 1 5 30
M  V30 34 1 13 31
M  V30 35 1 14 32
M  V30 36 1 16 33
M  V30 37 1 17 34
M  V30 38 1 18 35
M  V30 39 1 19 36
M  V30 40 1 19 37
M  V30 41 1 19 38
M  V30 42 1 21 39
M  V30 43 1 21 40
M  V30 44 1 21 41
M  V30 45 1 22 42
M  V30 46 1 22 43
M  V30 47 1 22 44
M  V30 48 1 23 45
M  V30 49 1 23 46
M  V30 END BOND
M  V30 END CTAB
M  END
>  <Dataset>  (571) 
ChEMBL_Kinases

>  <Ligand_Instance>  (571) 
nan

>  <PDB_ID>  (571) 
nan

>  <Standardized_SMILES>  (571) 
Cc1cccc(-c2nn3c(c2-c2ccncc2)C(C)C(C)(C)C3)n1

>  <Name>  (571) 
nan

>  <Pocket>  (571) 
nan

>  <ATP_Site>  (571) 
nan

>  <Peripheral>  (571) 
nan

>  <Num_H_Atoms_ProtBoundConf>  (571) 
nan

>  <Num_Resolved_Atoms>  (571) 
nan

>  <Num_Not_Resolved_Atoms>  (571) 
nan

$$$$
CHEMBL476189
     RDKit          3D

  0  0  0  0  0  0  0  0  0  0999 V3000
M  V30 BEGIN CTAB
M  V30 COUNTS 28 29 0 0 0
M  V30 BEGIN ATOM
M  V30 1 C -1.097007 -0.239856 2.080558 0
M  V30 2 C -1.155096 -1.721124 2.126850 0
M  V30 3 C -2.518614 -2.248496 2.487270 0
M  V30 4 C -0.185164 -2.588861 1.892352 0
M  V30 5 C 1.239811 -2.743343 1.522554 0
M  V30 6 N 1.804881 -1.430157 1.306934 0
M  V30 7 C 1.307504 -0.718296 0.153256 0
M  V30 8 N 0.388006 -1.223479 -0.689512 0
M  V30 9 C -0.081338 -0.594628 -1.759464 0
M  V30 10 N 0.359202 0.637419 -2.069982 0
M  V30 11 C 1.278658 1.228695 -1.289388 0
M  V30 12 N 1.922964 2.418446 -1.301875 0
M  V30 13 C 2.771862 2.524550 -0.263865 0
M  V30 14 N 2.653419 1.356416 0.423455 0
M  V30 15 C 1.759668 0.565243 -0.179156 0
M  V30 16 H -1.905325 0.205342 2.734686 0
M  V30 17 H -0.116277 0.078840 2.496765 0
M  V30 18 H -1.307177 0.112758 1.066731 0
M  V30 19 H -2.424403 -3.294079 2.802702 0
M  V30 20 H -3.247045 -2.138855 1.674955 0
M  V30 21 H -2.902211 -1.676248 3.369301 0
M  V30 22 H -0.478110 -3.636582 1.995715 0
M  V30 23 H 1.401286 -3.407548 0.647758 0
M  V30 24 H 1.806440 -3.212570 2.372790 0
M  V30 25 H 2.519768 -0.928557 1.868360 0
M  V30 26 H -0.828803 -1.061436 -2.404048 0
M  V30 27 H 1.804111 3.172047 -2.001661 0
M  V30 28 H 3.434593 3.311375 0.038567 0
M  V30 END ATOM
M  V30 BEGIN BOND
M  V30 1 1 1 2
M  V30 2 1 2 3
M  V30 3 2 2 4 CFG=2
M  V30 4 1 4 5
M  V30 5 1 5 6
M  V30 6 1 6 7
M  V30 7 2 7 8
M  V30 8 1 8 9
M  V30 9 2 9 10
M  V30 10 1 10 11
M  V30 11 1 11 12
M  V30 12 1 12 13
M  V30 13 2 13 14
M  V30 14 1 14 15
M  V30 15 1 15 7
M  V30 16 2 15 11
M  V30 17 1 1 16
M  V30 18 1 1 17
M  V30 19 1 1 18
M  V30 20 1 3 19
M  V30 21 1 3 20
M  V30 22 1 3 21
M  V30 23 1 4 22
M  V30 24 1 5 23
M  V30 25 1 5 24
M  V30 26 1 6 25
M  V30 27 1 9 26
M  V30 28 1 12 27
M  V30 29 1 13 28
M  V30 END BOND
M  V30 END CTAB
M  END
>  <Dataset>  (572) 
ChEMBL_Kinases

>  <Ligand_Instance>  (572) 
nan

>  <PDB_ID>  (572) 
nan

>  <Standardized_SMILES>  (572) 
CC(C)=CCNc1ncnc2[nH]cnc12

>  <Name>  (572) 
nan

>  <Pocket>  (572) 
nan

>  <ATP_Site>  (572) 
nan

>  <Peripheral>  (572) 
nan

>  <Num_H_Atoms_ProtBoundConf>  (572) 
nan

>  <Num_Resolved_Atoms>  (572) 
nan

>  <Num_Not_Resolved_Atoms>  (572) 
nan

$$$$
CHEMBL4279865
     RDKit          3D

  0  0  0  0  0  0  0  0  0  0999 V3000
M  V30 BEGIN CTAB
M  V30 COUNTS 73 78 0 0 0
M  V30 BEGIN ATOM
M  V30 1 C 2.464797 -1.150886 7.159912 0
M  V30 2 N 2.949522 0.213782 6.935660 0
M  V30 3 C 1.865233 0.959825 6.374907 0
M  V30 4 C 2.254466 2.354178 5.940803 0
M  V30 5 C 3.477241 2.374748 5.083580 0
M  V30 6 C 3.197373 2.119138 3.644024 0
M  V30 7 N 3.408094 2.880533 2.515404 0
M  V30 8 C 2.993377 2.239831 1.419602 0
M  V30 9 C 3.250129 3.114524 0.257621 0
M  V30 10 C 4.153732 2.896427 -0.732996 0
M  V30 11 C 4.338551 3.750933 -1.794107 0
M  V30 12 C 3.581588 4.892335 -1.879129 0
M  V30 13 F 3.729840 5.772406 -2.916685 0
M  V30 14 C 2.632790 5.207812 -0.920882 0
M  V30 15 C 2.512032 4.294782 0.110838 0
M  V30 16 C 2.426070 0.993900 1.348201 0
M  V30 17 C 1.957632 0.220654 0.277496 0
M  V30 18 C 2.782935 -0.322137 -0.680691 0
M  V30 19 C 2.193158 -1.057590 -1.675809 0
M  V30 20 N 0.868037 -1.221588 -1.685655 0
M  V30 21 C 0.042733 -0.710971 -0.775663 0
M  V30 22 N -1.373805 -0.860559 -0.745039 0
M  V30 23 C -2.182246 -1.595387 -1.646526 0
M  V30 24 C -1.730494 -2.367437 -2.684071 0
M  V30 25 C -2.539282 -3.060350 -3.537963 0
M  V30 26 C -3.907580 -3.025994 -3.405461 0
M  V30 27 N -4.837345 -3.723589 -4.234470 0
M  V30 28 C -6.296196 -3.539434 -4.244169 0
M  V30 29 C -6.990458 -4.856417 -4.000453 0
M  V30 30 N -6.074769 -5.920383 -3.686305 0
M  V30 31 C -5.654031 -5.904539 -2.302366 0
M  V30 32 C -4.994437 -6.053486 -4.616188 0
M  V30 33 C -4.503005 -4.749737 -5.201373 0
M  V30 34 C -4.380566 -2.253897 -2.366018 0
M  V30 35 C -3.554046 -1.565932 -1.520048 0
M  V30 36 N 0.639255 -0.002674 0.177508 0
M  V30 37 S 2.437675 0.561011 3.121897 0
M  V30 38 C 4.562167 1.450408 5.589877 0
M  V30 39 C 4.026781 0.102169 5.979786 0
M  V30 40 H 3.333434 -1.779414 7.470460 0
M  V30 41 H 1.664586 -1.181349 7.901926 0
M  V30 42 H 2.124863 -1.537159 6.172788 0
M  V30 43 H 1.042455 1.064406 7.119643 0
M  V30 44 H 1.445036 0.442504 5.491977 0
M  V30 45 H 2.429658 2.956878 6.842628 0
M  V30 46 H 1.399765 2.778487 5.396314 0
M  V30 47 H 3.911512 3.393591 5.111454 0
M  V30 48 H 4.754466 2.006236 -0.672693 0
M  V30 49 H 5.076341 3.499066 -2.534091 0
M  V30 50 H 2.024280 6.080403 -0.946538 0
M  V30 51 H 1.771219 4.531540 0.869282 0
M  V30 52 H 3.853816 -0.192413 -0.670553 0
M  V30 53 H 2.724518 -1.530458 -2.478019 0
M  V30 54 H -1.870845 -0.370014 0.037060 0
M  V30 55 H -0.674387 -2.457793 -2.866935 0
M  V30 56 H -2.117075 -3.644084 -4.330157 0
M  V30 57 H -6.538489 -3.241547 -5.308756 0
M  V30 58 H -6.624884 -2.713502 -3.624639 0
M  V30 59 H -7.650872 -4.715701 -3.111041 0
M  V30 60 H -7.602664 -5.167605 -4.850532 0
M  V30 61 H -5.842824 -6.925715 -1.895759 0
M  V30 62 H -6.259647 -5.170933 -1.723315 0
M  V30 63 H -4.585523 -5.697272 -2.168960 0
M  V30 64 H -4.131498 -6.526195 -4.078571 0
M  V30 65 H -5.280342 -6.738141 -5.425079 0
M  V30 66 H -3.408828 -4.791088 -5.312389 0
M  V30 67 H -5.011168 -4.503095 -6.150966 0
M  V30 68 H -5.444488 -2.128404 -2.129898 0
M  V30 69 H -3.975959 -0.961002 -0.702861 0
M  V30 70 H 5.302363 1.313428 4.768727 0
M  V30 71 H 5.063112 1.886071 6.466519 0
M  V30 72 H 3.747710 -0.515102 5.105726 0
M  V30 73 H 4.864147 -0.426657 6.505328 0
M  V30 END ATOM
M  V30 BEGIN BOND
M  V30 1 1 1 2
M  V30 2 1 2 3
M  V30 3 1 3 4
M  V30 4 1 4 5
M  V30 5 1 5 6
M  V30 6 2 6 7
M  V30 7 1 7 8
M  V30 8 1 8 9
M  V30 9 2 9 10
M  V30 10 1 10 11
M  V30 11 2 11 12
M  V30 12 1 12 13
M  V30 13 1 12 14
M  V30 14 2 14 15
M  V30 15 2 8 16
M  V30 16 1 16 17
M  V30 17 2 17 18
M  V30 18 1 18 19
M  V30 19 2 19 20
M  V30 20 1 20 21
M  V30 21 1 21 22
M  V30 22 1 22 23
M  V30 23 2 23 24
M  V30 24 1 24 25
M  V30 25 2 25 26
M  V30 26 1 26 27
M  V30 27 1 27 28
M  V30 28 1 28 29
M  V30 29 1 29 30
M  V30 30 1 30 31
M  V30 31 1 30 32
M  V30 32 1 32 33
M  V30 33 1 26 34
M  V30 34 2 34 35
M  V30 35 2 21 36
M  V30 36 1 16 37
M  V30 37 1 5 38
M  V30 38 1 38 39
M  V30 39 1 39 2
M  V30 40 1 37 6
M  V30 41 1 15 9
M  V30 42 1 36 17
M  V30 43 1 35 23
M  V30 44 1 33 27
M  V30 45 1 1 40
M  V30 46 1 1 41
M  V30 47 1 1 42
M  V30 48 1 3 43
M  V30 49 1 3 44
M  V30 50 1 4 45
M  V30 51 1 4 46
M  V30 52 1 5 47
M  V30 53 1 10 48
M  V30 54 1 11 49
M  V30 55 1 14 50
M  V30 56 1 15 51
M  V30 57 1 18 52
M  V30 58 1 19 53
M  V30 59 1 22 54
M  V30 60 1 24 55
M  V30 61 1 25 56
M  V30 62 1 28 57
M  V30 63 1 28 58
M  V30 64 1 29 59
M  V30 65 1 29 60
M  V30 66 1 31 61
M  V30 67 1 31 62
M  V30 68 1 31 63
M  V30 69 1 32 64
M  V30 70 1 32 65
M  V30 71 1 33 66
M  V30 72 1 33 67
M  V30 73 1 34 68
M  V30 74 1 35 69
M  V30 75 1 38 70
M  V30 76 1 38 71
M  V30 77 1 39 72
M  V30 78 1 39 73
M  V30 END BOND
M  V30 END CTAB
M  END
>  <Dataset>  (573) 
ChEMBL_Kinases

>  <Ligand_Instance>  (573) 
nan

>  <PDB_ID>  (573) 
nan

>  <Standardized_SMILES>  (573) 
CN1CCC(c2nc(-c3ccc(F)cc3)c(-c3ccnc(Nc4ccc(N5CCN(C)CC5)cc4)n3)s2)CC1

>  <Name>  (573) 
nan

>  <Pocket>  (573) 
nan

>  <ATP_Site>  (573) 
nan

>  <Peripheral>  (573) 
nan

>  <Num_H_Atoms_ProtBoundConf>  (573) 
nan

>  <Num_Resolved_Atoms>  (573) 
nan

>  <Num_Not_Resolved_Atoms>  (573) 
nan

$$$$
CHEMBL4761941
     RDKit          3D

  0  0  0  0  0  0  0  0  0  0999 V3000
M  V30 BEGIN CTAB
M  V30 COUNTS 34 36 0 0 0
M  V30 BEGIN ATOM
M  V30 1 O 0.040730 -0.672887 0.361497 0
M  V30 2 C 0.168739 -0.299288 1.575282 0
M  V30 3 C 0.957082 -0.911859 2.703459 0
M  V30 4 C 1.627206 -2.122281 2.160743 0
M  V30 5 S 2.638238 -3.050024 3.298344 0
M  V30 6 C 3.204668 -4.542195 2.393059 0
M  V30 7 C 2.950826 -4.293253 0.917358 0
M  V30 8 N 3.308525 -2.928470 0.546684 0
M  V30 9 C 2.487374 -1.819308 0.967897 0
M  V30 10 O 2.669187 -0.798086 0.224631 0
M  V30 11 N -0.585368 0.884862 1.799315 0
M  V30 12 C -1.300453 1.390840 0.667848 0
M  V30 13 C -0.629523 2.298879 -0.142809 0
M  V30 14 C -1.307204 2.794820 -1.237333 0
M  V30 15 C -2.605258 2.452772 -1.584482 0
M  V30 16 C -3.225217 1.558936 -0.761232 0
M  V30 17 C -2.594541 1.032167 0.345683 0
M  V30 18 O -4.489240 1.366027 -1.289064 0
M  V30 19 C -4.642869 2.037654 -2.529314 0
M  V30 20 O -3.469524 2.806780 -2.603301 0
M  V30 21 H 1.732169 -0.177814 2.996374 0
M  V30 22 H 0.322568 -1.209245 3.535843 0
M  V30 23 H 0.814984 -2.786272 1.752970 0
M  V30 24 H 2.543865 -5.386210 2.685826 0
M  V30 25 H 4.274704 -4.730473 2.547319 0
M  V30 26 H 1.840700 -4.381902 0.740762 0
M  V30 27 H 3.443260 -5.003993 0.250052 0
M  V30 28 H 4.185524 -2.795452 -0.036666 0
M  V30 29 H -0.598332 1.343382 2.757671 0
M  V30 30 H 0.381541 2.591755 0.091772 0
M  V30 31 H -0.751507 3.501827 -1.847722 0
M  V30 32 H -3.084933 0.318365 1.006055 0
M  V30 33 H -5.557520 2.666833 -2.464328 0
M  V30 34 H -4.752006 1.319627 -3.371949 0
M  V30 END ATOM
M  V30 BEGIN BOND
M  V30 1 2 1 2
M  V30 2 1 2 3
M  V30 3 1 3 4
M  V30 4 1 4 5
M  V30 5 1 5 6
M  V30 6 1 6 7
M  V30 7 1 7 8
M  V30 8 1 8 9
M  V30 9 2 9 10
M  V30 10 1 2 11
M  V30 11 1 11 12
M  V30 12 2 12 13
M  V30 13 1 13 14
M  V30 14 2 14 15
M  V30 15 1 15 16
M  V30 16 2 16 17
M  V30 17 1 16 18
M  V30 18 1 18 19
M  V30 19 1 19 20
M  V30 20 1 9 4
M  V30 21 1 17 12
M  V30 22 1 20 15
M  V30 23 1 3 21
M  V30 24 1 3 22
M  V30 25 1 4 23
M  V30 26 1 6 24
M  V30 27 1 6 25
M  V30 28 1 7 26
M  V30 29 1 7 27
M  V30 30 1 8 28
M  V30 31 1 11 29
M  V30 32 1 13 30
M  V30 33 1 14 31
M  V30 34 1 17 32
M  V30 35 1 19 33
M  V30 36 1 19 34
M  V30 END BOND
M  V30 END CTAB
M  END
>  <Dataset>  (574) 
ChEMBL_Kinases

>  <Ligand_Instance>  (574) 
nan

>  <PDB_ID>  (574) 
nan

>  <Standardized_SMILES>  (574) 
O=C(CC1SCCNC1=O)Nc1ccc2c(c1)OCO2

>  <Name>  (574) 
nan

>  <Pocket>  (574) 
nan

>  <ATP_Site>  (574) 
nan

>  <Peripheral>  (574) 
nan

>  <Num_H_Atoms_ProtBoundConf>  (574) 
nan

>  <Num_Resolved_Atoms>  (574) 
nan

>  <Num_Not_Resolved_Atoms>  (574) 
nan

$$$$
CHEMBL4761952
     RDKit          3D

  0  0  0  0  0  0  0  0  0  0999 V3000
M  V30 BEGIN CTAB
M  V30 COUNTS 38 40 0 0 0
M  V30 BEGIN ATOM
M  V30 1 N 2.031363 -5.749062 4.470054 0
M  V30 2 C 2.910116 -4.650533 4.262286 0
M  V30 3 O 4.045028 -4.605371 4.791286 0
M  V30 4 C 2.499109 -3.537549 3.415158 0
M  V30 5 C 3.345976 -2.471124 3.210362 0
M  V30 6 C 2.977080 -1.413284 2.415844 0
M  V30 7 C 1.753998 -1.346917 1.779033 0
M  V30 8 N 1.395871 -0.243329 0.963206 0
M  V30 9 C 0.194242 -0.015711 0.243158 0
M  V30 10 N 0.070313 1.110716 -0.471437 0
M  V30 11 C -1.013593 1.427362 -1.185577 0
M  V30 12 N -1.085747 2.632794 -1.929910 0
M  V30 13 C -0.097289 3.683378 -2.052553 0
M  V30 14 C 0.169509 4.360875 -0.733574 0
M  V30 15 F 0.639926 3.537373 0.244643 0
M  V30 16 F -1.040561 4.961166 -0.357472 0
M  V30 17 F 1.115317 5.357448 -0.919404 0
M  V30 18 C -2.068435 0.539409 -1.186153 0
M  V30 19 C -3.297478 0.583969 -1.813344 0
M  V30 20 C -3.962987 -0.580431 -1.462945 0
M  V30 21 N -3.154698 -1.287004 -0.657273 0
M  V30 22 C -1.996151 -0.632196 -0.470598 0
M  V30 23 N -0.854237 -0.826040 0.200630 0
M  V30 24 C 0.950233 -2.438684 2.019624 0
M  V30 25 C 1.264317 -3.525984 2.804431 0
M  V30 26 H 1.511902 -5.450842 5.322063 0
M  V30 27 H 1.956774 -6.615614 3.892585 0
M  V30 28 H 4.324725 -2.451689 3.677844 0
M  V30 29 H 3.687999 -0.597177 2.289861 0
M  V30 30 H 2.143750 0.502846 0.895996 0
M  V30 31 H -1.983554 2.805038 -2.480019 0
M  V30 32 H -0.412788 4.470448 -2.763891 0
M  V30 33 H 0.870760 3.257166 -2.441282 0
M  V30 34 H -3.681456 1.371188 -2.458237 0
M  V30 35 H -4.950925 -0.899763 -1.760914 0
M  V30 36 H -3.348897 -2.223239 -0.208740 0
M  V30 37 H -0.030093 -2.502997 1.577423 0
M  V30 38 H 0.595301 -4.357768 2.960014 0
M  V30 END ATOM
M  V30 BEGIN BOND
M  V30 1 1 1 2
M  V30 2 2 2 3
M  V30 3 1 2 4
M  V30 4 2 4 5
M  V30 5 1 5 6
M  V30 6 2 6 7
M  V30 7 1 7 8
M  V30 8 1 8 9
M  V30 9 2 9 10
M  V30 10 1 10 11
M  V30 11 1 11 12
M  V30 12 1 12 13
M  V30 13 1 13 14
M  V30 14 1 14 15
M  V30 15 1 14 16
M  V30 16 1 14 17
M  V30 17 2 11 18
M  V30 18 1 18 19
M  V30 19 2 19 20
M  V30 20 1 20 21
M  V30 21 1 21 22
M  V30 22 2 22 23
M  V30 23 1 7 24
M  V30 24 2 24 25
M  V30 25 1 25 4
M  V30 26 1 23 9
M  V30 27 1 22 18
M  V30 28 1 1 26
M  V30 29 1 1 27
M  V30 30 1 5 28
M  V30 31 1 6 29
M  V30 32 1 8 30
M  V30 33 1 12 31
M  V30 34 1 13 32
M  V30 35 1 13 33
M  V30 36 1 19 34
M  V30 37 1 20 35
M  V30 38 1 21 36
M  V30 39 1 24 37
M  V30 40 1 25 38
M  V30 END BOND
M  V30 END CTAB
M  END
>  <Dataset>  (575) 
ChEMBL_Kinases

>  <Ligand_Instance>  (575) 
nan

>  <PDB_ID>  (575) 
nan

>  <Standardized_SMILES>  (575) 
NC(=O)c1ccc(Nc2nc(NCC(F)(F)F)c3cc[nH]c3n2)cc1

>  <Name>  (575) 
nan

>  <Pocket>  (575) 
nan

>  <ATP_Site>  (575) 
nan

>  <Peripheral>  (575) 
nan

>  <Num_H_Atoms_ProtBoundConf>  (575) 
nan

>  <Num_Resolved_Atoms>  (575) 
nan

>  <Num_Not_Resolved_Atoms>  (575) 
nan

$$$$
CHEMBL4279795
     RDKit          3D

  0  0  0  0  0  0  0  0  0  0999 V3000
M  V30 BEGIN CTAB
M  V30 COUNTS 81 86 0 0 0
M  V30 BEGIN ATOM
M  V30 1 O -0.042698 -2.588733 -0.985506 0
M  V30 2 C -1.028769 -3.064879 -0.428778 0
M  V30 3 S -1.558368 -4.357984 -1.607115 0
M  V30 4 C -3.294773 -4.238198 -1.096842 0
M  V30 5 C -4.344390 -4.494564 -1.834053 0
M  V30 6 C -4.145939 -4.929297 -3.227338 0
M  V30 7 C -3.191998 -5.871780 -3.532781 0
M  V30 8 C -3.004025 -6.259239 -4.865399 0
M  V30 9 C -3.774672 -5.696953 -5.878839 0
M  V30 10 O -3.455424 -6.199094 -7.154788 0
M  V30 11 C -2.398058 -5.673508 -7.879618 0
M  V30 12 C -2.057904 -6.031695 -9.166925 0
M  V30 13 C -0.968757 -5.431478 -9.788621 0
M  V30 14 C -0.188235 -4.482301 -9.193981 0
M  V30 15 N 0.910301 -3.915908 -9.893846 0 CHG=1 VAL=4
M  V30 16 O 1.593488 -3.058984 -9.291720 0
M  V30 17 O 1.374394 -4.152137 -11.160296 0 CHG=-1 VAL=1
M  V30 18 C -0.508876 -4.110383 -7.911864 0
M  V30 19 C -1.582115 -4.698365 -7.292928 0
M  V30 20 C -4.740810 -4.745622 -5.586477 0
M  V30 21 C -4.890881 -4.394176 -4.255359 0
M  V30 22 C -3.201800 -3.801356 0.265114 0
M  V30 23 O -4.097195 -3.927796 1.160027 0
M  V30 24 N -2.003778 -3.174615 0.638363 0
M  V30 25 C -1.404940 -2.564624 1.778311 0
M  V30 26 C -1.737251 -1.214180 1.890368 0
M  V30 27 C -1.200071 -0.477141 2.958011 0
M  V30 28 C -0.361248 -1.091404 3.867734 0
M  V30 29 O 0.141199 -0.282807 4.914655 0
M  V30 30 C -0.283794 1.072231 4.933300 0
M  V30 31 C 0.377314 1.790305 6.070966 0
M  V30 32 C -0.088489 3.233043 6.158842 0
M  V30 33 C 0.195133 3.971375 4.874322 0
M  V30 34 N 1.638363 4.007316 4.565932 0
M  V30 35 C 1.730061 4.490308 3.206054 0
M  V30 36 C 2.931641 5.353252 3.017987 0
M  V30 37 N 4.046324 4.883711 3.755993 0
M  V30 38 C 4.442888 3.534990 3.666737 0
M  V30 39 C 5.018149 3.033070 2.392066 0
M  V30 40 C 4.365277 2.987908 1.091885 0
M  V30 41 C 4.449026 1.688044 1.851120 0
M  V30 42 C 3.746097 5.159224 5.169231 0
M  V30 43 C 2.276428 5.001847 5.432603 0
M  V30 44 C -0.026232 -2.425740 3.767990 0
M  V30 45 C -0.564482 -3.130179 2.714673 0
M  V30 46 H -5.310309 -4.354865 -1.327202 0
M  V30 47 H -2.580962 -6.332466 -2.796888 0
M  V30 48 H -2.237980 -7.007995 -5.056597 0
M  V30 49 H -2.675042 -6.795247 -9.662815 0
M  V30 50 H -0.746587 -5.751204 -10.802455 0
M  V30 51 H 0.093991 -3.364532 -7.427824 0
M  V30 52 H -1.779754 -4.359222 -6.282470 0
M  V30 53 H -5.288173 -4.363357 -6.422770 0
M  V30 54 H -5.646287 -3.651777 -4.037604 0
M  V30 55 H -2.393569 -0.686976 1.196480 0
M  V30 56 H -1.485618 0.575247 3.005269 0
M  V30 57 H 0.055186 1.569066 3.975915 0
M  V30 58 H -1.389086 1.171998 4.947370 0
M  V30 59 H 1.467251 1.838120 5.837551 0
M  V30 60 H 0.232676 1.270739 7.018968 0
M  V30 61 H -1.153405 3.313164 6.413951 0
M  V30 62 H 0.457034 3.742947 6.973130 0
M  V30 63 H -0.140204 5.034530 4.936588 0
M  V30 64 H -0.385798 3.527383 4.060645 0
M  V30 65 H 1.758821 3.580449 2.557260 0
M  V30 66 H 0.829129 5.090238 2.942993 0
M  V30 67 H 2.712647 6.395041 3.437551 0
M  V30 68 H 3.112141 5.441833 1.922374 0
M  V30 69 H 3.567792 2.854473 3.922843 0
M  V30 70 H 5.163557 3.290167 4.519677 0
M  V30 71 H 6.163549 3.053535 2.372450 0
M  V30 72 H 3.377836 3.377832 0.828382 0
M  V30 73 H 5.046106 2.977250 0.188387 0
M  V30 74 H 5.187641 0.914832 1.595193 0
M  V30 75 H 3.578897 1.299817 2.420824 0
M  V30 76 H 4.021034 6.207886 5.368553 0
M  V30 77 H 4.303115 4.473443 5.805696 0
M  V30 78 H 2.178216 4.631592 6.468615 0
M  V30 79 H 1.725640 5.966346 5.408803 0
M  V30 80 H 0.627228 -2.908849 4.477828 0
M  V30 81 H -0.376343 -4.169872 2.535294 0
M  V30 END ATOM
M  V30 BEGIN BOND
M  V30 1 2 1 2
M  V30 2 1 2 3
M  V30 3 1 3 4
M  V30 4 2 4 5
M  V30 5 1 5 6
M  V30 6 2 6 7
M  V30 7 1 7 8
M  V30 8 2 8 9
M  V30 9 1 9 10
M  V30 10 1 10 11
M  V30 11 2 11 12
M  V30 12 1 12 13
M  V30 13 2 13 14
M  V30 14 1 14 15
M  V30 15 2 15 16
M  V30 16 1 15 17
M  V30 17 1 14 18
M  V30 18 2 18 19
M  V30 19 1 9 20
M  V30 20 2 20 21
M  V30 21 1 4 22
M  V30 22 2 22 23
M  V30 23 1 22 24
M  V30 24 1 24 25
M  V30 25 2 25 26
M  V30 26 1 26 27
M  V30 27 2 27 28
M  V30 28 1 28 29
M  V30 29 1 29 30
M  V30 30 1 30 31
M  V30 31 1 31 32
M  V30 32 1 32 33
M  V30 33 1 33 34
M  V30 34 1 34 35
M  V30 35 1 35 36
M  V30 36 1 36 37
M  V30 37 1 37 38
M  V30 38 1 38 39
M  V30 39 1 39 40
M  V30 40 1 40 41
M  V30 41 1 37 42
M  V30 42 1 42 43
M  V30 43 1 28 44
M  V30 44 2 44 45
M  V30 45 1 24 2
M  V30 46 1 45 25
M  V30 47 1 21 6
M  V30 48 1 43 34
M  V30 49 1 19 11
M  V30 50 1 41 39
M  V30 51 1 5 46
M  V30 52 1 7 47
M  V30 53 1 8 48
M  V30 54 1 12 49
M  V30 55 1 13 50
M  V30 56 1 18 51
M  V30 57 1 19 52
M  V30 58 1 20 53
M  V30 59 1 21 54
M  V30 60 1 26 55
M  V30 61 1 27 56
M  V30 62 1 30 57
M  V30 63 1 30 58
M  V30 64 1 31 59
M  V30 65 1 31 60
M  V30 66 1 32 61
M  V30 67 1 32 62
M  V30 68 1 33 63
M  V30 69 1 33 64
M  V30 70 1 35 65
M  V30 71 1 35 66
M  V30 72 1 36 67
M  V30 73 1 36 68
M  V30 74 1 38 69
M  V30 75 1 38 70
M  V30 76 1 39 71
M  V30 77 1 40 72
M  V30 78 1 40 73
M  V30 79 1 41 74
M  V30 80 1 41 75
M  V30 81 1 42 76
M  V30 82 1 42 77
M  V30 83 1 43 78
M  V30 84 1 43 79
M  V30 85 1 44 80
M  V30 86 1 45 81
M  V30 END BOND
M  V30 END CTAB
M  END
>  <Dataset>  (576) 
ChEMBL_Kinases

>  <Ligand_Instance>  (576) 
nan

>  <PDB_ID>  (576) 
nan

>  <Standardized_SMILES>  (576) 
O=C1S/C(=C\c2ccc(Oc3ccc([N+](=O)[O-])cc3)cc2)C(=O)N1c1ccc(OCCCCN2CCN(CC3CC3)CC2)cc1

>  <Name>  (576) 
nan

>  <Pocket>  (576) 
nan

>  <ATP_Site>  (576) 
nan

>  <Peripheral>  (576) 
nan

>  <Num_H_Atoms_ProtBoundConf>  (576) 
nan

>  <Num_Resolved_Atoms>  (576) 
nan

>  <Num_Not_Resolved_Atoms>  (576) 
nan

$$$$
CHEMBL4761972
     RDKit          3D

  0  0  0  0  0  0  0  0  0  0999 V3000
M  V30 BEGIN CTAB
M  V30 COUNTS 57 61 0 0 0
M  V30 BEGIN ATOM
M  V30 1 O 0.543391 1.401537 0.744028 0
M  V30 2 C -0.257966 1.347646 1.729822 0
M  V30 3 C 0.493601 1.476573 3.027337 0
M  V30 4 C 1.963448 1.659008 2.692999 0
M  V30 5 N 2.515194 0.568417 1.952734 0
M  V30 6 C 2.635585 -0.663867 2.656145 0
M  V30 7 C 3.615977 -0.675340 3.777992 0
M  V30 8 C 4.948498 -0.052206 3.439325 0
M  V30 9 C 4.801146 1.167318 2.560132 0
M  V30 10 C 3.814470 0.954468 1.447967 0
M  V30 11 N -1.642797 1.186447 1.500771 0
M  V30 12 C -1.843165 1.113694 0.096468 0
M  V30 13 C -2.052108 2.369270 -0.476092 0
M  V30 14 C -2.262965 2.482201 -1.830902 0
M  V30 15 C -2.272800 1.379956 -2.645438 0
M  V30 16 C -2.066819 0.156257 -2.077447 0
M  V30 17 C -1.857575 0.022090 -0.737448 0
M  V30 18 C -2.134940 -0.838763 -3.115565 0
M  V30 19 C -1.925273 -2.114400 -2.924467 0
M  V30 20 C -1.583784 -2.918740 -1.773894 0
M  V30 21 C -0.635581 -3.066137 -0.748661 0
M  V30 22 N -0.916804 -4.072356 0.078014 0
M  V30 23 C -2.050865 -4.662916 -0.322844 0
M  V30 24 C -2.681836 -5.725144 0.245485 0
M  V30 25 C -3.846727 -6.170973 -0.338356 0
M  V30 26 C -4.342089 -5.547794 -1.462565 0
M  V30 27 C -3.644386 -4.479775 -1.976063 0
M  V30 28 C -2.460427 -3.970500 -1.442801 0
M  V30 29 C -2.401845 -0.155119 -4.371566 0
M  V30 30 O -2.527028 -0.700130 -5.479320 0
M  V30 31 N -2.480450 1.226405 -4.038471 0
M  V30 32 H 0.151496 2.441186 3.476162 0
M  V30 33 H 0.306270 0.599514 3.644760 0
M  V30 34 H 2.500012 1.897173 3.638964 0
M  V30 35 H 2.054630 2.572698 2.061995 0
M  V30 36 H 2.955812 -1.432568 1.899594 0
M  V30 37 H 1.671532 -1.041464 3.056828 0
M  V30 38 H 3.810484 -1.749924 4.051060 0
M  V30 39 H 3.149439 -0.242846 4.681433 0
M  V30 40 H 5.403074 0.289390 4.394736 0
M  V30 41 H 5.664123 -0.801930 3.011708 0
M  V30 42 H 5.794196 1.363597 2.095542 0
M  V30 43 H 4.499226 2.042252 3.142707 0
M  V30 44 H 4.207015 0.246775 0.670099 0
M  V30 45 H 3.720899 1.941122 0.919162 0
M  V30 46 H -2.201539 1.156379 2.378802 0
M  V30 47 H -2.065537 3.301062 0.060473 0
M  V30 48 H -2.427874 3.432588 -2.308876 0
M  V30 49 H -1.706169 -0.823059 -0.113188 0
M  V30 50 H -2.023325 -2.719991 -3.846103 0
M  V30 51 H 0.165075 -2.312228 -0.828433 0
M  V30 52 H -0.262459 -4.248330 0.865727 0
M  V30 53 H -2.311113 -6.218502 1.115442 0
M  V30 54 H -4.438969 -7.002554 0.017172 0
M  V30 55 H -5.268804 -5.867122 -1.964292 0
M  V30 56 H -4.064666 -4.004450 -2.873280 0
M  V30 57 H -2.663897 1.970352 -4.744425 0
M  V30 END ATOM
M  V30 BEGIN BOND
M  V30 1 2 1 2
M  V30 2 1 2 3
M  V30 3 1 3 4
M  V30 4 1 4 5
M  V30 5 1 5 6
M  V30 6 1 6 7
M  V30 7 1 7 8
M  V30 8 1 8 9
M  V30 9 1 9 10
M  V30 10 1 2 11
M  V30 11 1 11 12
M  V30 12 2 12 13
M  V30 13 1 13 14
M  V30 14 2 14 15
M  V30 15 1 15 16
M  V30 16 2 16 17
M  V30 17 1 16 18
M  V30 18 2 18 19
M  V30 19 1 19 20
M  V30 20 2 20 21
M  V30 21 1 21 22
M  V30 22 1 22 23
M  V30 23 2 23 24
M  V30 24 1 24 25
M  V30 25 2 25 26
M  V30 26 1 26 27
M  V30 27 2 27 28
M  V30 28 1 18 29
M  V30 29 2 29 30
M  V30 30 1 29 31
M  V30 31 1 10 5
M  V30 32 1 17 12
M  V30 33 1 28 20
M  V30 34 1 31 15
M  V30 35 1 28 23
M  V30 36 1 3 32
M  V30 37 1 3 33
M  V30 38 1 4 34
M  V30 39 1 4 35
M  V30 40 1 6 36
M  V30 41 1 6 37
M  V30 42 1 7 38
M  V30 43 1 7 39
M  V30 44 1 8 40
M  V30 45 1 8 41
M  V30 46 1 9 42
M  V30 47 1 9 43
M  V30 48 1 10 44
M  V30 49 1 10 45
M  V30 50 1 11 46
M  V30 51 1 13 47
M  V30 52 1 14 48
M  V30 53 1 17 49
M  V30 54 1 19 50
M  V30 55 1 21 51
M  V30 56 1 22 52
M  V30 57 1 24 53
M  V30 58 1 25 54
M  V30 59 1 26 55
M  V30 60 1 27 56
M  V30 61 1 31 57
M  V30 END BOND
M  V30 END CTAB
M  END
>  <Dataset>  (577) 
ChEMBL_Kinases

>  <Ligand_Instance>  (577) 
nan

>  <PDB_ID>  (577) 
nan

>  <Standardized_SMILES>  (577) 
O=C(CCN1CCCCC1)Nc1ccc2c(c1)/C(=C\c1c[nH]c3ccccc13)C(=O)N2

>  <Name>  (577) 
nan

>  <Pocket>  (577) 
nan

>  <ATP_Site>  (577) 
nan

>  <Peripheral>  (577) 
nan

>  <Num_H_Atoms_ProtBoundConf>  (577) 
nan

>  <Num_Resolved_Atoms>  (577) 
nan

>  <Num_Not_Resolved_Atoms>  (577) 
nan

$$$$
CHEMBL4762021
     RDKit          3D

  0  0  0  0  0  0  0  0  0  0999 V3000
M  V30 BEGIN CTAB
M  V30 COUNTS 98 100 0 0 0
M  V30 BEGIN ATOM
M  V30 1 C 2.210131 -5.833377 0.873358 0
M  V30 2 C 3.687730 -5.496548 1.141945 0
M  V30 3 C 4.460789 -6.013286 -0.033843 0
M  V30 4 C 4.061445 -6.275436 2.386984 0
M  V30 5 O 3.742969 -4.121970 1.324828 0
M  V30 6 C 4.812959 -3.307937 1.563636 0
M  V30 7 O 5.375559 -4.419869 1.467658 0
M  V30 8 C 4.268094 -1.918405 1.701950 0
M  V30 9 C 5.437497 -1.009872 2.027466 0
M  V30 10 C 4.967930 0.412399 2.251244 0 CFG=2
M  V30 11 N 3.994995 0.393975 3.376829 0
M  V30 12 C 4.271399 1.041130 1.125999 0
M  V30 13 O 4.755147 1.658003 0.107406 0
M  V30 14 N 2.826447 1.050532 1.017795 0
M  V30 15 C 1.980955 1.629406 0.038767 0
M  V30 16 C 2.098396 1.285177 -1.362770 0
M  V30 17 O 1.937068 -0.011893 -1.807570 0
M  V30 18 C 2.023207 0.070401 -3.189407 0
M  V30 19 C 1.965220 -1.133921 -4.008912 0
M  V30 20 O 0.932249 -1.972962 -4.023446 0
M  V30 21 C 0.521593 -2.677418 -2.948301 0
M  V30 22 C -0.655785 -3.532479 -3.380409 0
M  V30 23 O -1.199236 -4.330760 -2.403444 0
M  V30 24 C -1.654854 -3.692794 -1.296000 0
M  V30 25 C -2.717853 -2.651338 -1.574517 0
M  V30 26 O -3.861104 -2.976561 -2.114426 0
M  V30 27 C -4.888206 -2.260093 -2.513371 0
M  V30 28 C -5.404901 -1.211400 -1.533871 0
M  V30 29 C -4.422354 -0.156786 -1.311593 0
M  V30 30 O -4.185101 -0.349507 -2.589756 0
M  V30 31 N -3.450073 0.897771 -1.059053 0
M  V30 32 C -2.667351 1.326346 -2.207963 0
M  V30 33 C -1.650713 2.350193 -1.838702 0
M  V30 34 C -2.172328 3.628272 -1.292143 0
M  V30 35 N -2.936982 3.528539 -0.078212 0
M  V30 36 C -2.268534 3.450021 1.093126 0
M  V30 37 O -0.994388 3.387485 1.175861 0
M  V30 38 C -3.040033 3.440443 2.231085 0
M  V30 39 C -2.392831 3.361393 3.454489 0
M  V30 40 C -3.091695 3.349649 4.628359 0
M  V30 41 F -2.429335 3.267850 5.813190 0
M  V30 42 C -4.478217 3.415112 4.668300 0
M  V30 43 C -5.118829 3.493505 3.448059 0
M  V30 44 C -4.436301 3.506089 2.254289 0
M  V30 45 N -5.025509 3.582124 1.060725 0
M  V30 46 C -6.327895 3.665392 0.757649 0
M  V30 47 S -7.680186 3.706535 1.651276 0
M  V30 48 N -6.404063 3.728499 -0.590386 0
M  V30 49 N -5.202109 3.684968 -1.068246 0
M  V30 50 C -4.296828 3.592218 -0.093726 0
M  V30 51 H 1.589750 -5.004734 1.234080 0
M  V30 52 H 1.921672 -6.748381 1.423760 0
M  V30 53 H 2.071495 -5.951364 -0.214254 0
M  V30 54 H 4.663706 -5.199700 -0.771587 0
M  V30 55 H 3.898414 -6.839334 -0.530573 0
M  V30 56 H 5.400949 -6.440683 0.302386 0
M  V30 57 H 3.123075 -6.654435 2.900191 0
M  V30 58 H 4.549208 -5.653792 3.164541 0
M  V30 59 H 4.653333 -7.165369 2.092536 0
M  V30 60 H 3.810395 -1.659246 0.722282 0
M  V30 61 H 3.579634 -1.913681 2.557741 0
M  V30 62 H 6.215388 -1.014522 1.266285 0
M  V30 63 H 5.853753 -1.349469 3.005228 0
M  V30 64 H 5.831907 0.983892 2.635526 0
M  V30 65 H 4.532383 0.036120 4.222227 0
M  V30 66 H 3.830293 1.416158 3.619111 0
M  V30 67 H 2.390245 0.527202 1.843859 0
M  V30 68 H 2.058048 2.780978 0.090284 0
M  V30 69 H 0.917112 1.483009 0.411139 0
M  V30 70 H 3.072117 1.679782 -1.785661 0
M  V30 71 H 1.331139 1.906148 -1.937807 0
M  V30 72 H 3.018998 0.599010 -3.376547 0
M  V30 73 H 1.271870 0.871059 -3.549526 0
M  V30 74 H 2.000607 -0.721466 -5.105827 0
M  V30 75 H 2.973689 -1.636930 -3.979153 0
M  V30 76 H 1.274697 -3.380142 -2.561456 0
M  V30 77 H 0.187369 -2.078149 -2.076420 0
M  V30 78 H -1.489367 -2.900931 -3.784819 0
M  V30 79 H -0.311812 -4.246631 -4.188819 0
M  V30 80 H -2.029926 -4.482439 -0.582128 0
M  V30 81 H -0.798589 -3.226384 -0.771111 0
M  V30 82 H -2.158634 -1.766248 -1.930423 0
M  V30 83 H -2.974117 -2.309067 -0.506196 0
M  V30 84 H -4.875939 -1.812257 -3.505010 0
M  V30 85 H -5.759255 -2.990607 -2.598907 0
M  V30 86 H -5.648003 -1.658614 -0.552512 0
M  V30 87 H -6.360303 -0.798564 -1.897545 0
M  V30 88 H -3.825211 0.826162 -0.056977 0
M  V30 89 H -3.340859 1.671795 -3.017287 0
M  V30 90 H -2.131504 0.421945 -2.623532 0
M  V30 91 H -0.911011 1.892402 -1.096244 0
M  V30 92 H -1.023103 2.598311 -2.726840 0
M  V30 93 H -2.822123 4.082720 -2.114652 0
M  V30 94 H -1.369006 4.390160 -1.132531 0
M  V30 95 H -1.308069 3.309299 3.452422 0
M  V30 96 H -4.970304 3.400514 5.626851 0
M  V30 97 H -6.181541 3.547316 3.499891 0
M  V30 98 H -7.270347 3.806622 -1.192574 0
M  V30 END ATOM
M  V30 BEGIN BOND
M  V30 1 1 1 2
M  V30 2 1 2 3
M  V30 3 1 2 4
M  V30 4 1 2 5
M  V30 5 1 5 6
M  V30 6 2 6 7
M  V30 7 1 6 8
M  V30 8 1 8 9
M  V30 9 1 9 10
M  V30 10 1 10 11
M  V30 11 1 10 12
M  V30 12 2 12 13
M  V30 13 1 12 14
M  V30 14 1 14 15
M  V30 15 1 15 16
M  V30 16 1 16 17
M  V30 17 1 17 18
M  V30 18 1 18 19
M  V30 19 1 19 20
M  V30 20 1 20 21
M  V30 21 1 21 22
M  V30 22 1 22 23
M  V30 23 1 23 24
M  V30 24 1 24 25
M  V30 25 1 25 26
M  V30 26 1 26 27
M  V30 27 1 27 28
M  V30 28 1 28 29
M  V30 29 2 29 30
M  V30 30 1 29 31
M  V30 31 1 31 32
M  V30 32 1 32 33
M  V30 33 1 33 34
M  V30 34 1 34 35
M  V30 35 1 35 36
M  V30 36 2 36 37
M  V30 37 1 36 38
M  V30 38 2 38 39
M  V30 39 1 39 40
M  V30 40 1 40 41
M  V30 41 2 40 42
M  V30 42 1 42 43
M  V30 43 2 43 44
M  V30 44 1 44 45
M  V30 45 1 45 46
M  V30 46 2 46 47
M  V30 47 1 46 48
M  V30 48 1 48 49
M  V30 49 2 49 50
M  V30 50 1 50 35
M  V30 51 1 44 38
M  V30 52 1 50 45
M  V30 53 1 1 51
M  V30 54 1 1 52
M  V30 55 1 1 53
M  V30 56 1 3 54
M  V30 57 1 3 55
M  V30 58 1 3 56
M  V30 59 1 4 57
M  V30 60 1 4 58
M  V30 61 1 4 59
M  V30 62 1 8 60
M  V30 63 1 8 61
M  V30 64 1 9 62
M  V30 65 1 9 63
M  V30 66 1 10 64 CFG=1
M  V30 67 1 11 65
M  V30 68 1 11 66
M  V30 69 1 14 67
M  V30 70 1 15 68
M  V30 71 1 15 69
M  V30 72 1 16 70
M  V30 73 1 16 71
M  V30 74 1 18 72
M  V30 75 1 18 73
M  V30 76 1 19 74
M  V30 77 1 19 75
M  V30 78 1 21 76
M  V30 79 1 21 77
M  V30 80 1 22 78
M  V30 81 1 22 79
M  V30 82 1 24 80
M  V30 83 1 24 81
M  V30 84 1 25 82
M  V30 85 1 25 83
M  V30 86 1 27 84
M  V30 87 1 27 85
M  V30 88 1 28 86
M  V30 89 1 28 87
M  V30 90 1 31 88
M  V30 91 1 32 89
M  V30 92 1 32 90
M  V30 93 1 33 91
M  V30 94 1 33 92
M  V30 95 1 34 93
M  V30 96 1 34 94
M  V30 97 1 39 95
M  V30 98 1 42 96
M  V30 99 1 43 97
M  V30 100 1 48 98
M  V30 END BOND
M  V30 END CTAB
M  END
>  <Dataset>  (578) 
ChEMBL_Kinases

>  <Ligand_Instance>  (578) 
nan

>  <PDB_ID>  (578) 
nan

>  <Standardized_SMILES>  (578) 
CC(C)(C)OC(=O)CC[C@H](N)C(=O)NCCOCCOCCOCCOCCC(=O)NCCCn1c(=O)c2cc(F)ccc2n2c(=S)[nH]nc12

>  <Name>  (578) 
nan

>  <Pocket>  (578) 
nan

>  <ATP_Site>  (578) 
nan

>  <Peripheral>  (578) 
nan

>  <Num_H_Atoms_ProtBoundConf>  (578) 
nan

>  <Num_Resolved_Atoms>  (578) 
nan

>  <Num_Not_Resolved_Atoms>  (578) 
nan

$$$$
CHEMBL4762037
     RDKit          3D

  0  0  0  0  0  0  0  0  0  0999 V3000
M  V30 BEGIN CTAB
M  V30 COUNTS 68 72 0 0 0
M  V30 BEGIN ATOM
M  V30 1 O 3.271314 -0.408659 -1.345420 0
M  V30 2 S 4.355561 -0.416030 -0.302523 0
M  V30 3 O 5.271168 0.761625 -0.433096 0
M  V30 4 N 3.609734 -0.410911 1.240795 0
M  V30 5 C 2.635994 -1.467717 1.389116 0
M  V30 6 C 1.961486 -1.505548 2.715847 0
M  V30 7 C 1.191975 -0.293912 3.120403 0
M  V30 8 N 0.107364 0.088766 2.295850 0
M  V30 9 C -0.173585 0.654536 1.028527 0
M  V30 10 C -1.416058 0.831887 0.459738 0
M  V30 11 C -1.547169 1.428850 -0.772235 0
M  V30 12 C -2.953344 1.527366 -1.208098 0
M  V30 13 N -3.835048 2.221089 -0.430720 0
M  V30 14 C -5.076730 2.215697 -0.949061 0
M  V30 15 C -6.276539 2.846312 -0.404339 0
M  V30 16 C -7.487684 2.744870 -1.064246 0
M  V30 17 C -8.631000 3.347065 -0.540726 0
M  V30 18 C -8.519710 4.052466 0.663687 0
M  V30 19 C -7.315183 4.152376 1.317620 0
M  V30 20 C -6.202114 3.549227 0.780016 0
M  V30 21 N -4.981842 1.500295 -2.085869 0
M  V30 22 C -3.711829 1.077543 -2.259608 0
M  V30 23 C -3.119519 0.292334 -3.324742 0
M  V30 24 C -2.272114 0.872933 -4.262575 0
M  V30 25 C -1.645252 0.227526 -5.316250 0
M  V30 26 C -1.877904 -1.120349 -5.457140 0
M  V30 27 C -2.707502 -1.749320 -4.559688 0
M  V30 28 O -2.915989 -3.113247 -4.740009 0
M  V30 29 C -3.313887 -1.080260 -3.525886 0
M  V30 30 C -0.416525 1.849601 -1.435734 0
M  V30 31 C 0.801942 1.650070 -0.827529 0
M  V30 32 N 0.916358 1.068385 0.371658 0
M  V30 33 C 5.233207 -1.932322 -0.562149 0
M  V30 34 C 6.571274 -1.930807 -0.152445 0
M  V30 35 C 7.346452 -3.060462 -0.305346 0
M  V30 36 C 6.786172 -4.194152 -0.867878 0
M  V30 37 C 7.495003 -5.490148 -1.094367 0
M  V30 38 F 8.542652 -5.655156 -0.195486 0
M  V30 39 F 6.637339 -6.548603 -0.877448 0
M  V30 40 F 7.988058 -5.591925 -2.369911 0
M  V30 41 C 5.461238 -4.184897 -1.269756 0
M  V30 42 C 4.660284 -3.057413 -1.125648 0
M  V30 43 H 3.339004 0.506613 1.604948 0
M  V30 44 H 1.864076 -1.487584 0.582648 0
M  V30 45 H 3.225869 -2.441238 1.277254 0
M  V30 46 H 1.211266 -2.346763 2.663825 0
M  V30 47 H 2.661790 -1.797491 3.542603 0
M  V30 48 H 0.878212 -0.477584 4.191108 0
M  V30 49 H 1.853609 0.610081 3.217460 0
M  V30 50 H -0.824997 -0.111873 2.778777 0
M  V30 51 H -2.268949 0.470249 1.048679 0
M  V30 52 H -3.651841 2.730765 0.482414 0
M  V30 53 H -7.549014 2.195402 -1.991428 0
M  V30 54 H -9.571929 3.239503 -1.099234 0
M  V30 55 H -9.455051 4.488594 1.001320 0
M  V30 56 H -7.291942 4.713648 2.249264 0
M  V30 57 H -5.293324 3.671499 1.348165 0
M  V30 58 H -2.089608 1.935359 -4.164317 0
M  V30 59 H -1.013341 0.776113 -5.976712 0
M  V30 60 H -1.373264 -1.589304 -6.285255 0
M  V30 61 H -2.232355 -3.707046 -5.181857 0
M  V30 62 H -3.972523 -1.580284 -2.814486 0
M  V30 63 H -0.585614 2.304062 -2.378787 0
M  V30 64 H 1.639652 2.018605 -1.438129 0
M  V30 65 H 7.061284 -1.069682 0.294614 0
M  V30 66 H 8.397954 -3.138066 -0.010313 0
M  V30 67 H 4.940859 -5.019551 -1.716002 0
M  V30 68 H 3.631200 -2.968146 -1.409038 0
M  V30 END ATOM
M  V30 BEGIN BOND
M  V30 1 2 1 2
M  V30 2 2 2 3
M  V30 3 1 2 4
M  V30 4 1 4 5
M  V30 5 1 5 6
M  V30 6 1 6 7
M  V30 7 1 7 8
M  V30 8 1 8 9
M  V30 9 2 9 10
M  V30 10 1 10 11
M  V30 11 1 11 12
M  V30 12 1 12 13
M  V30 13 1 13 14
M  V30 14 1 14 15
M  V30 15 2 15 16
M  V30 16 1 16 17
M  V30 17 2 17 18
M  V30 18 1 18 19
M  V30 19 2 19 20
M  V30 20 2 14 21
M  V30 21 1 21 22
M  V30 22 1 22 23
M  V30 23 2 23 24
M  V30 24 1 24 25
M  V30 25 2 25 26
M  V30 26 1 26 27
M  V30 27 1 27 28
M  V30 28 2 27 29
M  V30 29 2 11 30
M  V30 30 1 30 31
M  V30 31 2 31 32
M  V30 32 1 2 33
M  V30 33 2 33 34
M  V30 34 1 34 35
M  V30 35 2 35 36
M  V30 36 1 36 37
M  V30 37 1 37 38
M  V30 38 1 37 39
M  V30 39 1 37 40
M  V30 40 1 36 41
M  V30 41 2 41 42
M  V30 42 1 32 9
M  V30 43 1 42 33
M  V30 44 2 22 12
M  V30 45 1 29 23
M  V30 46 1 20 15
M  V30 47 1 4 43
M  V30 48 1 5 44
M  V30 49 1 5 45
M  V30 50 1 6 46
M  V30 51 1 6 47
M  V30 52 1 7 48
M  V30 53 1 7 49
M  V30 54 1 8 50
M  V30 55 1 10 51
M  V30 56 1 13 52
M  V30 57 1 16 53
M  V30 58 1 17 54
M  V30 59 1 18 55
M  V30 60 1 19 56
M  V30 61 1 20 57
M  V30 62 1 24 58
M  V30 63 1 25 59
M  V30 64 1 26 60
M  V30 65 1 28 61
M  V30 66 1 29 62
M  V30 67 1 30 63
M  V30 68 1 31 64
M  V30 69 1 34 65
M  V30 70 1 35 66
M  V30 71 1 41 67
M  V30 72 1 42 68
M  V30 END BOND
M  V30 END CTAB
M  END
>  <Dataset>  (579) 
ChEMBL_Kinases

>  <Ligand_Instance>  (579) 
nan

>  <PDB_ID>  (579) 
nan

>  <Standardized_SMILES>  (579) 
O=S(=O)(NCCCNc1cc(-c2[nH]c(-c3ccccc3)nc2-c2cccc(O)c2)ccn1)c1ccc(C(F)(F)F)cc1

>  <Name>  (579) 
nan

>  <Pocket>  (579) 
nan

>  <ATP_Site>  (579) 
nan

>  <Peripheral>  (579) 
nan

>  <Num_H_Atoms_ProtBoundConf>  (579) 
nan

>  <Num_Resolved_Atoms>  (579) 
nan

>  <Num_Not_Resolved_Atoms>  (579) 
nan

$$$$
CHEMBL4762099
     RDKit          3D

  0  0  0  0  0  0  0  0  0  0999 V3000
M  V30 BEGIN CTAB
M  V30 COUNTS 46 49 0 0 0
M  V30 BEGIN ATOM
M  V30 1 O -2.083153 -2.275601 -0.104283 0
M  V30 2 C -1.697971 -3.373678 0.401817 0
M  V30 3 N -0.305101 -3.479835 0.610492 0
M  V30 4 C 0.375374 -2.300450 0.195957 0
M  V30 5 C 0.510487 -1.353988 1.174321 0
M  V30 6 C 1.146535 -0.155599 0.929869 0
M  V30 7 C 1.672478 0.139404 -0.309641 0
M  V30 8 O 2.333252 1.221631 -0.811100 0
M  V30 9 C 2.655400 2.391536 -0.186603 0
M  V30 10 C 4.038115 2.575410 -0.138540 0
M  V30 11 C 4.595559 3.710431 0.457799 0
M  V30 12 C 3.799648 4.678776 1.014339 0
M  V30 13 C 4.302005 5.811395 1.611731 0
M  V30 14 C 3.421115 6.721080 2.139533 0
M  V30 15 C 2.040746 6.556851 2.101776 0
M  V30 16 C 1.557334 5.408745 1.495245 0
M  V30 17 C 2.427884 4.485825 0.960626 0
M  V30 18 C 1.881323 3.374592 0.376535 0
M  V30 19 Br -0.000370 3.047151 0.247608 0
M  V30 20 C 1.532056 -0.832423 -1.308263 0
M  V30 21 Cl 2.109460 -0.707883 -2.964301 0
M  V30 22 C 0.886284 -2.050421 -1.061461 0
M  V30 23 C -2.684877 -4.401327 0.716697 0
M  V30 24 C -2.297823 -5.594289 1.263060 0
M  V30 25 C -3.225606 -6.592650 1.572804 0
M  V30 26 N -2.779776 -7.836580 2.147580 0 CHG=1 VAL=4
M  V30 27 O -3.659016 -8.679016 2.397677 0
M  V30 28 O -1.455401 -8.092354 2.410983 0 CHG=-1 VAL=1
M  V30 29 C -4.575289 -6.340896 1.308074 0
M  V30 30 C -4.975128 -5.141931 0.757659 0
M  V30 31 C -4.039679 -4.166024 0.458252 0
M  V30 32 O -4.456595 -2.963412 -0.095718 0
M  V30 33 H 0.054981 -4.363718 1.023653 0
M  V30 34 H 0.161220 -1.422281 2.186670 0
M  V30 35 H 1.308138 0.648381 1.633387 0
M  V30 36 H 4.789353 1.916209 -0.525238 0
M  V30 37 H 5.654077 3.898134 0.520079 0
M  V30 38 H 5.371480 5.969568 1.657822 0
M  V30 39 H 3.746084 7.630888 2.622359 0
M  V30 40 H 1.334453 7.253727 2.507289 0
M  V30 41 H 0.479412 5.249502 1.448902 0
M  V30 42 H 0.745466 -2.830415 -1.773276 0
M  V30 43 H -1.279619 -5.835777 1.484410 0
M  V30 44 H -5.303022 -7.117316 1.548203 0
M  V30 45 H -6.008665 -4.933803 0.548507 0
M  V30 46 H -5.214329 -2.894039 -0.765389 0
M  V30 END ATOM
M  V30 BEGIN BOND
M  V30 1 2 1 2
M  V30 2 1 2 3
M  V30 3 1 3 4
M  V30 4 2 4 5
M  V30 5 1 5 6
M  V30 6 2 6 7
M  V30 7 1 7 8
M  V30 8 1 8 9
M  V30 9 2 9 10
M  V30 10 1 10 11
M  V30 11 2 11 12
M  V30 12 1 12 13
M  V30 13 2 13 14
M  V30 14 1 14 15
M  V30 15 2 15 16
M  V30 16 1 16 17
M  V30 17 2 17 18
M  V30 18 1 18 19
M  V30 19 1 7 20
M  V30 20 1 20 21
M  V30 21 2 20 22
M  V30 22 1 2 23
M  V30 23 2 23 24
M  V30 24 1 24 25
M  V30 25 1 25 26
M  V30 26 2 26 27
M  V30 27 1 26 28
M  V30 28 2 25 29
M  V30 29 1 29 30
M  V30 30 2 30 31
M  V30 31 1 31 32
M  V30 32 1 22 4
M  V30 33 1 31 23
M  V30 34 1 18 9
M  V30 35 1 17 12
M  V30 36 1 3 33
M  V30 37 1 5 34
M  V30 38 1 6 35
M  V30 39 1 10 36
M  V30 40 1 11 37
M  V30 41 1 13 38
M  V30 42 1 14 39
M  V30 43 1 15 40
M  V30 44 1 16 41
M  V30 45 1 22 42
M  V30 46 1 24 43
M  V30 47 1 29 44
M  V30 48 1 30 45
M  V30 49 1 32 46
M  V30 END BOND
M  V30 END CTAB
M  END
>  <Dataset>  (580) 
ChEMBL_Kinases

>  <Ligand_Instance>  (580) 
nan

>  <PDB_ID>  (580) 
nan

>  <Standardized_SMILES>  (580) 
O=C(Nc1ccc(Oc2ccc3ccccc3c2Br)c(Cl)c1)c1cc([N+](=O)[O-])ccc1O

>  <Name>  (580) 
nan

>  <Pocket>  (580) 
nan

>  <ATP_Site>  (580) 
nan

>  <Peripheral>  (580) 
nan

>  <Num_H_Atoms_ProtBoundConf>  (580) 
nan

>  <Num_Resolved_Atoms>  (580) 
nan

>  <Num_Not_Resolved_Atoms>  (580) 
nan

$$$$
CHEMBL4762139
     RDKit          3D

  0  0  0  0  0  0  0  0  0  0999 V3000
M  V30 BEGIN CTAB
M  V30 COUNTS 53 56 0 0 0
M  V30 BEGIN ATOM
M  V30 1 C 2.374835 -3.256734 3.394563 0
M  V30 2 N 1.745121 -3.676920 2.151633 0
M  V30 3 C 2.694122 -3.389106 1.123055 0
M  V30 4 C 3.646141 -4.339990 0.738063 0
M  V30 5 C 4.545889 -4.015494 -0.261068 0
M  V30 6 C 4.545020 -2.790682 -0.896413 0
M  V30 7 C 3.587280 -1.896430 -0.476746 0
M  V30 8 C 3.422445 -0.511524 -1.041345 0
M  V30 9 N 2.778941 0.412900 -0.932908 0
M  V30 10 C 2.863874 1.550995 -1.597930 0
M  V30 11 C 1.961102 2.704235 -1.374283 0
M  V30 12 C 0.688645 2.579950 -1.109407 0
M  V30 13 S -0.051550 0.931223 -1.000995 0
M  V30 14 C -1.695273 1.608675 -0.635461 0
M  V30 15 N -2.868600 0.816396 -0.412590 0
M  V30 16 C -3.870448 1.263562 0.500662 0 CFG=1
M  V30 17 C -4.964381 0.183393 0.484251 0
M  V30 18 C -4.812904 -0.469178 1.850164 0
M  V30 19 C -4.517723 0.747090 2.700459 0
M  V30 20 C -3.528990 1.544617 1.872374 0 CFG=2
M  V30 21 O -3.771469 2.898537 2.203851 0
M  V30 22 N -1.629530 2.881849 -0.612210 0
M  V30 23 C -0.407882 3.471444 -0.852334 0
M  V30 24 O -0.213004 4.733286 -0.856546 0
M  V30 25 C 3.876717 1.629674 -2.560495 0
M  V30 26 S 4.649624 -0.034282 -2.404948 0
M  V30 27 C 2.664452 -2.137452 0.500336 0
M  V30 28 S 0.177665 -4.387150 1.881710 0
M  V30 29 C -0.783239 -3.295909 0.836889 0
M  V30 30 O -0.503660 -4.439906 3.210909 0
M  V30 31 O 0.299068 -5.715171 1.214622 0
M  V30 32 H 3.253885 -3.906556 3.564951 0
M  V30 33 H 2.670722 -2.185679 3.378562 0
M  V30 34 H 1.666232 -3.406278 4.244491 0
M  V30 35 H 3.656818 -5.302527 1.228032 0
M  V30 36 H 5.289589 -4.740731 -0.570740 0
M  V30 37 H 5.220072 -2.484006 -1.678772 0
M  V30 38 H 2.312946 3.748006 -1.418307 0
M  V30 39 H -2.915858 -0.093615 -0.968317 0
M  V30 40 H -4.347783 2.153847 0.035549 0
M  V30 41 H -4.840710 -0.528515 -0.341515 0
M  V30 42 H -5.976921 0.608020 0.442581 0
M  V30 43 H -3.901704 -1.099426 1.834688 0
M  V30 44 H -5.711183 -1.011262 2.149587 0
M  V30 45 H -4.044321 0.328669 3.636107 0
M  V30 46 H -5.428698 1.323206 2.947648 0
M  V30 47 H -2.536665 1.289191 2.254980 0
M  V30 48 H -4.778568 2.963192 2.197359 0
M  V30 49 H 4.106515 2.452151 -3.194321 0
M  V30 50 H 1.917056 -1.456911 0.836550 0
M  V30 51 H -1.356472 -2.569348 1.480469 0
M  V30 52 H -1.454686 -3.935648 0.237218 0
M  V30 53 H -0.116486 -2.761660 0.132937 0
M  V30 END ATOM
M  V30 BEGIN BOND
M  V30 1 1 1 2
M  V30 2 1 2 3
M  V30 3 2 3 4
M  V30 4 1 4 5
M  V30 5 2 5 6
M  V30 6 1 6 7
M  V30 7 1 7 8
M  V30 8 2 8 9
M  V30 9 1 9 10
M  V30 10 1 10 11
M  V30 11 2 11 12
M  V30 12 1 12 13
M  V30 13 1 13 14
M  V30 14 1 14 15
M  V30 15 1 15 16
M  V30 16 1 16 17
M  V30 17 1 17 18
M  V30 18 1 18 19
M  V30 19 1 19 20
M  V30 20 1 20 21
M  V30 21 2 14 22
M  V30 22 1 22 23
M  V30 23 2 23 24
M  V30 24 2 10 25
M  V30 25 1 25 26
M  V30 26 2 7 27
M  V30 27 1 2 28
M  V30 28 1 28 29
M  V30 29 2 28 30
M  V30 30 2 28 31
M  V30 31 1 27 3
M  V30 32 1 26 8
M  V30 33 1 23 12
M  V30 34 1 20 16
M  V30 35 1 1 32
M  V30 36 1 1 33
M  V30 37 1 1 34
M  V30 38 1 4 35
M  V30 39 1 5 36
M  V30 40 1 6 37
M  V30 41 1 11 38
M  V30 42 1 15 39
M  V30 43 1 16 40 CFG=3
M  V30 44 1 17 41
M  V30 45 1 17 42
M  V30 46 1 18 43
M  V30 47 1 18 44
M  V30 48 1 19 45
M  V30 49 1 19 46
M  V30 50 1 20 47 CFG=1
M  V30 51 1 21 48
M  V30 52 1 25 49
M  V30 53 1 27 50
M  V30 54 1 29 51
M  V30 55 1 29 52
M  V30 56 1 29 53
M  V30 END BOND
M  V30 END CTAB
M  END
>  <Dataset>  (581) 
ChEMBL_Kinases

>  <Ligand_Instance>  (581) 
nan

>  <PDB_ID>  (581) 
nan

>  <Standardized_SMILES>  (581) 
CN(c1cccc(-c2nc(/C=C3\SC(N[C@H]4CCC[C@@H]4O)=NC3=O)cs2)c1)S(C)(=O)=O

>  <Name>  (581) 
nan

>  <Pocket>  (581) 
nan

>  <ATP_Site>  (581) 
nan

>  <Peripheral>  (581) 
nan

>  <Num_H_Atoms_ProtBoundConf>  (581) 
nan

>  <Num_Resolved_Atoms>  (581) 
nan

>  <Num_Not_Resolved_Atoms>  (581) 
nan

$$$$
CHEMBL4759123
     RDKit          3D

  0  0  0  0  0  0  0  0  0  0999 V3000
M  V30 BEGIN CTAB
M  V30 COUNTS 68 73 0 0 0
M  V30 BEGIN ATOM
M  V30 1 C 5.405915 -3.144524 4.349307 0
M  V30 2 N 4.681541 -3.811276 3.287634 0
M  V30 3 C 5.472460 -3.928528 2.080053 0
M  V30 4 C 5.757730 -2.513765 1.639489 0
M  V30 5 N 4.614819 -1.703382 1.459398 0
M  V30 6 C 4.585603 -0.997210 0.229840 0
M  V30 7 C 3.407870 -0.147320 -0.000041 0
M  V30 8 C 2.282918 -0.636186 -0.635247 0
M  V30 9 C 1.151427 0.120741 -0.873579 0
M  V30 10 C 1.115191 1.439841 -0.465879 0
M  V30 11 C -0.022831 2.336007 -0.663301 0
M  V30 12 C 0.198048 3.706806 -0.841210 0
M  V30 13 N -0.861929 4.538029 -1.025380 0
M  V30 14 C -2.124287 4.044005 -1.036857 0
M  V30 15 N -3.319702 4.656674 -1.199022 0
M  V30 16 C -4.318269 3.757377 -1.136852 0
M  V30 17 C -3.775865 2.487844 -0.924444 0
M  V30 18 C -4.485336 1.222557 -0.793149 0
M  V30 19 C -5.473774 1.079387 -1.755576 0
M  V30 20 C -6.251078 -0.072419 -1.777934 0
M  V30 21 C -7.285210 -0.258708 -2.758830 0
M  V30 22 N -8.116917 -0.419335 -3.564923 0
M  V30 23 C -6.005046 -1.041997 -0.827878 0
M  V30 24 C -5.029781 -0.923211 0.137599 0
M  V30 25 N -4.708868 -1.855732 1.139143 0
M  V30 26 S -3.220535 -2.470872 1.694482 0
M  V30 27 O -2.391887 -1.347764 2.287005 0
M  V30 28 O -3.516532 -3.398443 2.848390 0
M  V30 29 C -2.289870 -3.342652 0.493655 0
M  V30 30 C -2.305783 -2.779293 -0.900987 0
M  V30 31 C -2.961987 -4.138719 -0.567085 0
M  V30 32 C -4.264086 0.246215 0.134972 0
M  V30 33 C -2.400281 2.691644 -0.865057 0
M  V30 34 C -1.325870 1.824239 -0.674900 0
M  V30 35 C 2.237020 1.949519 0.174635 0
M  V30 36 C 3.364047 1.179294 0.406808 0
M  V30 37 C 3.399385 -2.084801 2.048109 0
M  V30 38 C 3.407697 -3.191578 3.022112 0
M  V30 39 H 5.004186 -3.515750 5.313757 0
M  V30 40 H 5.144650 -2.051937 4.299487 0
M  V30 41 H 6.480659 -3.314488 4.317507 0
M  V30 42 H 4.860655 -4.494750 1.351384 0
M  V30 43 H 6.416090 -4.429879 2.328199 0
M  V30 44 H 6.267079 -2.615936 0.636451 0
M  V30 45 H 6.515320 -2.103728 2.350666 0
M  V30 46 H 4.767779 -1.723841 -0.586568 0
M  V30 47 H 5.499797 -0.334940 0.212813 0
M  V30 48 H 2.206391 -1.641373 -0.991781 0
M  V30 49 H 0.272043 -0.264573 -1.371028 0
M  V30 50 H 1.202554 4.116847 -0.834202 0
M  V30 51 H -3.434819 5.697437 -1.352047 0
M  V30 52 H -5.388830 3.922483 -1.228183 0
M  V30 53 H -5.714868 1.814169 -2.534206 0
M  V30 54 H -6.583172 -1.968177 -0.795430 0
M  V30 55 H -5.642376 -2.150797 1.542248 0
M  V30 56 H -1.299044 -3.761026 0.819318 0
M  V30 57 H -2.972981 -1.965586 -1.195160 0
M  V30 58 H -1.378332 -2.818760 -1.508188 0
M  V30 59 H -4.045358 -4.147860 -0.683787 0
M  V30 60 H -2.453139 -5.014699 -0.990869 0
M  V30 61 H -3.462181 0.479026 0.833088 0
M  V30 62 H -1.508022 0.767315 -0.538426 0
M  V30 63 H 2.256891 2.989002 0.516503 0
M  V30 64 H 4.208070 1.634622 0.911711 0
M  V30 65 H 2.981291 -1.165303 2.559734 0
M  V30 66 H 2.622813 -2.320548 1.262844 0
M  V30 67 H 3.023161 -2.860491 4.018903 0
M  V30 68 H 2.710522 -4.009784 2.725533 0
M  V30 END ATOM
M  V30 BEGIN BOND
M  V30 1 1 1 2
M  V30 2 1 2 3
M  V30 3 1 3 4
M  V30 4 1 4 5
M  V30 5 1 5 6
M  V30 6 1 6 7
M  V30 7 2 7 8
M  V30 8 1 8 9
M  V30 9 2 9 10
M  V30 10 1 10 11
M  V30 11 2 11 12
M  V30 12 1 12 13
M  V30 13 2 13 14
M  V30 14 1 14 15
M  V30 15 1 15 16
M  V30 16 2 16 17
M  V30 17 1 17 18
M  V30 18 2 18 19
M  V30 19 1 19 20
M  V30 20 1 20 21
M  V30 21 3 21 22
M  V30 22 2 20 23
M  V30 23 1 23 24
M  V30 24 1 24 25
M  V30 25 1 25 26
M  V30 26 2 26 27
M  V30 27 2 26 28
M  V30 28 1 26 29
M  V30 29 1 29 30
M  V30 30 1 30 31
M  V30 31 2 24 32
M  V30 32 1 17 33
M  V30 33 2 33 34
M  V30 34 1 10 35
M  V30 35 2 35 36
M  V30 36 1 5 37
M  V30 37 1 37 38
M  V30 38 1 38 2
M  V30 39 1 36 7
M  V30 40 1 34 11
M  V30 41 1 33 14
M  V30 42 1 32 18
M  V30 43 1 31 29
M  V30 44 1 1 39
M  V30 45 1 1 40
M  V30 46 1 1 41
M  V30 47 1 3 42
M  V30 48 1 3 43
M  V30 49 1 4 44
M  V30 50 1 4 45
M  V30 51 1 6 46
M  V30 52 1 6 47
M  V30 53 1 8 48
M  V30 54 1 9 49
M  V30 55 1 12 50
M  V30 56 1 15 51
M  V30 57 1 16 52
M  V30 58 1 19 53
M  V30 59 1 23 54
M  V30 60 1 25 55
M  V30 61 1 29 56
M  V30 62 1 30 57
M  V30 63 1 30 58
M  V30 64 1 31 59
M  V30 65 1 31 60
M  V30 66 1 32 61
M  V30 67 1 34 62
M  V30 68 1 35 63
M  V30 69 1 36 64
M  V30 70 1 37 65
M  V30 71 1 37 66
M  V30 72 1 38 67
M  V30 73 1 38 68
M  V30 END BOND
M  V30 END CTAB
M  END
>  <Dataset>  (582) 
ChEMBL_Kinases

>  <Ligand_Instance>  (582) 
nan

>  <PDB_ID>  (582) 
nan

>  <Standardized_SMILES>  (582) 
CN1CCN(Cc2ccc(-c3cnc4[nH]cc(-c5cc(C#N)cc(NS(=O)(=O)C6CC6)c5)c4c3)cc2)CC1

>  <Name>  (582) 
nan

>  <Pocket>  (582) 
nan

>  <ATP_Site>  (582) 
nan

>  <Peripheral>  (582) 
nan

>  <Num_H_Atoms_ProtBoundConf>  (582) 
nan

>  <Num_Resolved_Atoms>  (582) 
nan

>  <Num_Not_Resolved_Atoms>  (582) 
nan

$$$$
CHEMBL4762235
     RDKit          3D

  0  0  0  0  0  0  0  0  0  0999 V3000
M  V30 BEGIN CTAB
M  V30 COUNTS 44 46 0 0 0
M  V30 BEGIN ATOM
M  V30 1 C -0.127994 -4.013512 -1.222999 0
M  V30 2 C 0.414988 -2.594802 -1.051070 0
M  V30 3 C -0.230835 -1.735465 -2.080171 0
M  V30 4 N 1.844538 -2.684983 -1.134197 0
M  V30 5 C 2.629728 -3.788943 -1.173058 0
M  V30 6 N 3.928218 -3.441085 -1.251331 0
M  V30 7 N 3.938567 -2.118021 -1.260464 0
M  V30 8 C 2.682690 -1.639666 -1.190012 0
M  V30 9 C 2.409812 -0.206835 -1.183266 0
M  V30 10 C 3.209650 0.644735 -1.953394 0
M  V30 11 C 3.061923 2.012607 -2.037702 0
M  V30 12 C 2.031342 2.520988 -1.283905 0
M  V30 13 C 1.209831 1.708402 -0.502129 0
M  V30 14 N 0.138898 2.278357 0.275004 0
M  V30 15 C -0.692214 1.426121 1.070394 0
M  V30 16 O -0.442308 0.218919 1.048598 0
M  V30 17 O -1.686065 2.012591 1.783049 0
M  V30 18 C -2.601318 1.346852 2.620917 0
M  V30 19 C -1.842141 0.662190 3.694806 0
M  V30 20 C -1.547662 1.478540 4.784876 0
M  V30 21 C -0.862602 1.065574 5.908794 0
M  V30 22 C -0.430289 -0.224249 5.989521 0
M  V30 23 C -0.715652 -1.054127 4.910112 0
M  V30 24 C -1.396419 -0.637633 3.797532 0
M  V30 25 N 1.409525 0.369672 -0.463965 0
M  V30 26 H -1.205364 -4.027058 -1.403350 0
M  V30 27 H 0.390100 -4.412939 -2.126997 0
M  V30 28 H 0.149027 -4.672421 -0.379138 0
M  V30 29 H 0.145302 -2.248090 -0.014781 0
M  V30 30 H -0.952958 -0.991345 -1.638724 0
M  V30 31 H 0.506729 -1.206940 -2.748915 0
M  V30 32 H -0.850064 -2.319454 -2.793218 0
M  V30 33 H 2.210120 -4.801217 -1.141965 0
M  V30 34 H 4.007585 0.175189 -2.525742 0
M  V30 35 H 3.716622 2.595869 -2.651176 0
M  V30 36 H 1.842844 3.585767 -1.290385 0
M  V30 37 H 0.004470 3.308898 0.230107 0
M  V30 38 H -3.123191 0.536415 2.023117 0
M  V30 39 H -3.338844 2.017449 3.068109 0
M  V30 40 H -1.844629 2.536689 4.834536 0
M  V30 41 H -0.643967 1.702615 6.737003 0
M  V30 42 H 0.113302 -0.697956 6.791762 0
M  V30 43 H -0.422249 -2.107516 4.856279 0
M  V30 44 H -1.641162 -1.251003 2.955125 0
M  V30 END ATOM
M  V30 BEGIN BOND
M  V30 1 1 1 2
M  V30 2 1 2 3
M  V30 3 1 2 4
M  V30 4 1 4 5
M  V30 5 2 5 6
M  V30 6 1 6 7
M  V30 7 2 7 8
M  V30 8 1 8 9
M  V30 9 2 9 10
M  V30 10 1 10 11
M  V30 11 2 11 12
M  V30 12 1 12 13
M  V30 13 1 13 14
M  V30 14 1 14 15
M  V30 15 2 15 16
M  V30 16 1 15 17
M  V30 17 1 17 18
M  V30 18 1 18 19
M  V30 19 2 19 20
M  V30 20 1 20 21
M  V30 21 2 21 22
M  V30 22 1 22 23
M  V30 23 2 23 24
M  V30 24 2 13 25
M  V30 25 1 8 4
M  V30 26 1 25 9
M  V30 27 1 24 19
M  V30 28 1 1 26
M  V30 29 1 1 27
M  V30 30 1 1 28
M  V30 31 1 2 29
M  V30 32 1 3 30
M  V30 33 1 3 31
M  V30 34 1 3 32
M  V30 35 1 5 33
M  V30 36 1 10 34
M  V30 37 1 11 35
M  V30 38 1 12 36
M  V30 39 1 14 37
M  V30 40 1 18 38
M  V30 41 1 18 39
M  V30 42 1 20 40
M  V30 43 1 21 41
M  V30 44 1 22 42
M  V30 45 1 23 43
M  V30 46 1 24 44
M  V30 END BOND
M  V30 END CTAB
M  END
>  <Dataset>  (583) 
ChEMBL_Kinases

>  <Ligand_Instance>  (583) 
nan

>  <PDB_ID>  (583) 
nan

>  <Standardized_SMILES>  (583) 
CC(C)n1cnnc1-c1cccc(NC(=O)OCc2ccccc2)n1

>  <Name>  (583) 
nan

>  <Pocket>  (583) 
nan

>  <ATP_Site>  (583) 
nan

>  <Peripheral>  (583) 
nan

>  <Num_H_Atoms_ProtBoundConf>  (583) 
nan

>  <Num_Resolved_Atoms>  (583) 
nan

>  <Num_Not_Resolved_Atoms>  (583) 
nan

$$$$
CHEMBL4279484
     RDKit          3D

  0  0  0  0  0  0  0  0  0  0999 V3000
M  V30 BEGIN CTAB
M  V30 COUNTS 40 43 0 0 0
M  V30 BEGIN ATOM
M  V30 1 C 3.581038 -5.616635 1.249593 0
M  V30 2 O 3.104425 -4.481198 1.986254 0
M  V30 3 C 2.242227 -3.622493 1.315073 0
M  V30 4 C 1.864581 -3.848598 0.011490 0
M  V30 5 C 1.005646 -2.952263 -0.588634 0
M  V30 6 C 0.495117 -1.821382 0.057394 0
M  V30 7 N -0.402379 -0.926961 -0.640395 0
M  V30 8 C -0.848401 0.181748 0.128810 0
M  V30 9 C -0.209058 1.394449 0.060119 0
M  V30 10 C 0.933169 1.684464 -0.783200 0
M  V30 11 C 1.651600 0.963918 -1.702598 0
M  V30 12 C 2.666688 1.715946 -2.240394 0
M  V30 13 C 2.520268 2.914673 -1.600960 0
M  V30 14 O 1.519119 2.846460 -0.780958 0
M  V30 15 O -0.736554 2.298633 0.845520 0
M  V30 16 C -1.760045 2.097568 1.620585 0
M  V30 17 C -2.176338 3.184101 2.383136 0
M  V30 18 C -3.269215 3.052187 3.242343 0
M  V30 19 C -3.913396 1.834678 3.312401 0
M  V30 20 C -3.527741 0.733545 2.569781 0
M  V30 21 C -2.444396 0.905504 1.733836 0
M  V30 22 C -1.938005 -0.095844 0.929241 0
M  V30 23 O -2.491452 -1.224399 0.957863 0
M  V30 24 C 0.902084 -1.638115 1.360976 0
M  V30 25 C 1.759725 -2.517700 1.986032 0
M  V30 26 H 2.651933 -6.138290 0.885458 0
M  V30 27 H 4.100517 -5.242149 0.340263 0
M  V30 28 H 4.205127 -6.248639 1.890821 0
M  V30 29 H 2.227582 -4.709932 -0.543710 0
M  V30 30 H 0.683413 -3.094333 -1.615662 0
M  V30 31 H -0.643734 -1.159870 -1.614746 0
M  V30 32 H 1.439236 -0.060063 -1.967947 0
M  V30 33 H 3.406382 1.438959 -2.986904 0
M  V30 34 H 3.132889 3.819294 -1.731850 0
M  V30 35 H -1.685907 4.127101 2.335959 0
M  V30 36 H -3.598964 3.889605 3.837470 0
M  V30 37 H -4.752033 1.742868 3.975357 0
M  V30 38 H -4.018027 -0.231450 2.608425 0
M  V30 39 H 0.502912 -0.760073 1.855757 0
M  V30 40 H 2.023444 -2.283758 3.023828 0
M  V30 END ATOM
M  V30 BEGIN BOND
M  V30 1 1 1 2
M  V30 2 1 2 3
M  V30 3 2 3 4
M  V30 4 1 4 5
M  V30 5 2 5 6
M  V30 6 1 6 7
M  V30 7 1 7 8
M  V30 8 2 8 9
M  V30 9 1 9 10
M  V30 10 2 10 11
M  V30 11 1 11 12
M  V30 12 2 12 13
M  V30 13 1 13 14
M  V30 14 1 9 15
M  V30 15 1 15 16
M  V30 16 2 16 17
M  V30 17 1 17 18
M  V30 18 2 18 19
M  V30 19 1 19 20
M  V30 20 2 20 21
M  V30 21 1 21 22
M  V30 22 2 22 23
M  V30 23 1 6 24
M  V30 24 2 24 25
M  V30 25 1 25 3
M  V30 26 1 22 8
M  V30 27 1 14 10
M  V30 28 1 21 16
M  V30 29 1 1 26
M  V30 30 1 1 27
M  V30 31 1 1 28
M  V30 32 1 4 29
M  V30 33 1 5 30
M  V30 34 1 7 31
M  V30 35 1 11 32
M  V30 36 1 12 33
M  V30 37 1 13 34
M  V30 38 1 17 35
M  V30 39 1 18 36
M  V30 40 1 19 37
M  V30 41 1 20 38
M  V30 42 1 24 39
M  V30 43 1 25 40
M  V30 END BOND
M  V30 END CTAB
M  END
>  <Dataset>  (584) 
ChEMBL_Kinases

>  <Ligand_Instance>  (584) 
nan

>  <PDB_ID>  (584) 
nan

>  <Standardized_SMILES>  (584) 
COc1ccc(Nc2c(-c3ccco3)oc3ccccc3c2=O)cc1

>  <Name>  (584) 
nan

>  <Pocket>  (584) 
nan

>  <ATP_Site>  (584) 
nan

>  <Peripheral>  (584) 
nan

>  <Num_H_Atoms_ProtBoundConf>  (584) 
nan

>  <Num_Resolved_Atoms>  (584) 
nan

>  <Num_Not_Resolved_Atoms>  (584) 
nan

$$$$
CHEMBL4279439
     RDKit          3D

  0  0  0  0  0  0  0  0  0  0999 V3000
M  V30 BEGIN CTAB
M  V30 COUNTS 64 67 0 0 0
M  V30 BEGIN ATOM
M  V30 1 C 5.160730 1.744973 -0.540521 0
M  V30 2 C 5.506018 0.295243 -0.682709 0
M  V30 3 C 4.766993 -0.576747 0.261246 0
M  V30 4 N 3.323216 -0.540484 0.151338 0
M  V30 5 C 2.660224 0.366874 1.004648 0
M  V30 6 O 3.464636 0.971309 1.791525 0
M  V30 7 N 1.310000 0.719499 1.143142 0
M  V30 8 C 0.653329 1.626337 1.999665 0
M  V30 9 C -0.715504 1.767907 1.910247 0
M  V30 10 C -1.433956 2.623574 2.699321 0
M  V30 11 C -0.785743 3.394318 3.638042 0
M  V30 12 C 0.590166 3.309915 3.789780 0
M  V30 13 C 1.314381 4.113415 4.776484 0
M  V30 14 O 2.561032 4.066676 4.946318 0
M  V30 15 O 0.565457 4.977306 5.567921 0
M  V30 16 C 1.224534 2.427822 2.957653 0
M  V30 17 C 2.668208 -1.446359 -0.806797 0
M  V30 18 C 1.812900 -2.463525 -0.082793 0
M  V30 19 C 0.952702 -3.261199 -1.001449 0
M  V30 20 C -0.046490 -2.387299 -1.713690 0
M  V30 21 N -1.298636 -2.659676 -1.982606 0
M  V30 22 C -2.005638 -1.772648 -2.605979 0
M  V30 23 N -3.322629 -1.610723 -3.089473 0
M  V30 24 C -4.286336 -2.636907 -2.921130 0
M  V30 25 C -4.580192 -3.026390 -1.533716 0
M  V30 26 C -3.947471 -4.036099 -0.839241 0
M  V30 27 C -4.258795 -4.363658 0.482312 0
M  V30 28 C -5.250876 -3.622127 1.091295 0
M  V30 29 C -5.545974 -3.993112 2.468863 0
M  V30 30 O -4.912835 -4.930749 3.016991 0
M  V30 31 O -6.478301 -3.441160 3.336629 0
M  V30 32 C -5.917281 -2.601948 0.446752 0
M  V30 33 C -5.571746 -2.318553 -0.858188 0
M  V30 34 S -0.792506 -0.376326 -2.858686 0
M  V30 35 C 0.577168 -1.155905 -2.076189 0
M  V30 36 C 1.906329 -0.698366 -1.862129 0
M  V30 37 H 5.512442 2.100107 0.449263 0
M  V30 38 H 4.088637 1.981949 -0.622544 0
M  V30 39 H 5.730368 2.376232 -1.275932 0
M  V30 40 H 5.460192 -0.052553 -1.739651 0
M  V30 41 H 6.606593 0.213148 -0.426554 0
M  V30 42 H 5.105012 -1.652450 0.180361 0
M  V30 43 H 5.082967 -0.310002 1.314145 0
M  V30 44 H 0.718762 0.193111 0.462420 0
M  V30 45 H -1.281865 1.178981 1.180294 0
M  V30 46 H -2.503498 2.691154 2.583384 0
M  V30 47 H -1.363777 4.056628 4.244987 0
M  V30 48 H 0.888526 5.353440 6.450132 0
M  V30 49 H 2.293838 2.386666 3.101874 0
M  V30 50 H 3.517508 -1.987232 -1.322322 0
M  V30 51 H 1.228712 -2.082081 0.746648 0
M  V30 52 H 2.557916 -3.198813 0.352155 0
M  V30 53 H 0.491877 -4.084005 -0.459468 0
M  V30 54 H 1.606123 -3.644189 -1.834817 0
M  V30 55 H -3.634768 -0.763714 -3.572460 0
M  V30 56 H -3.932843 -3.515736 -3.536845 0
M  V30 57 H -5.285177 -2.397625 -3.386643 0
M  V30 58 H -3.181614 -4.600260 -1.336531 0
M  V30 59 H -3.707052 -5.175693 0.950430 0
M  V30 60 H -6.218277 -3.157700 4.293122 0
M  V30 61 H -6.664961 -2.102723 1.026574 0
M  V30 62 H -6.152275 -1.498341 -1.280827 0
M  V30 63 H 2.475266 -0.767141 -2.812950 0
M  V30 64 H 1.904718 0.388251 -1.619409 0
M  V30 END ATOM
M  V30 BEGIN BOND
M  V30 1 1 1 2
M  V30 2 1 2 3
M  V30 3 1 3 4
M  V30 4 1 4 5
M  V30 5 2 5 6
M  V30 6 1 5 7
M  V30 7 1 7 8
M  V30 8 2 8 9
M  V30 9 1 9 10
M  V30 10 2 10 11
M  V30 11 1 11 12
M  V30 12 1 12 13
M  V30 13 2 13 14
M  V30 14 1 13 15
M  V30 15 2 12 16
M  V30 16 1 4 17
M  V30 17 1 17 18
M  V30 18 1 18 19
M  V30 19 1 19 20
M  V30 20 1 20 21
M  V30 21 2 21 22
M  V30 22 1 22 23
M  V30 23 1 23 24
M  V30 24 1 24 25
M  V30 25 2 25 26
M  V30 26 1 26 27
M  V30 27 2 27 28
M  V30 28 1 28 29
M  V30 29 2 29 30
M  V30 30 1 29 31
M  V30 31 1 28 32
M  V30 32 2 32 33
M  V30 33 1 22 34
M  V30 34 1 34 35
M  V30 35 1 35 36
M  V30 36 1 16 8
M  V30 37 1 36 17
M  V30 38 2 35 20
M  V30 39 1 33 25
M  V30 40 1 1 37
M  V30 41 1 1 38
M  V30 42 1 1 39
M  V30 43 1 2 40
M  V30 44 1 2 41
M  V30 45 1 3 42
M  V30 46 1 3 43
M  V30 47 1 7 44
M  V30 48 1 9 45
M  V30 49 1 10 46
M  V30 50 1 11 47
M  V30 51 1 15 48
M  V30 52 1 16 49
M  V30 53 1 17 50
M  V30 54 1 18 51
M  V30 55 1 18 52
M  V30 56 1 19 53
M  V30 57 1 19 54
M  V30 58 1 23 55
M  V30 59 1 24 56
M  V30 60 1 24 57
M  V30 61 1 26 58
M  V30 62 1 27 59
M  V30 63 1 31 60
M  V30 64 1 32 61
M  V30 65 1 33 62
M  V30 66 1 36 63
M  V30 67 1 36 64
M  V30 END BOND
M  V30 END CTAB
M  END
>  <Dataset>  (585) 
ChEMBL_Kinases

>  <Ligand_Instance>  (585) 
nan

>  <PDB_ID>  (585) 
nan

>  <Standardized_SMILES>  (585) 
CCCN(C(=O)Nc1cccc(C(=O)O)c1)C1CCc2nc(NCc3ccc(C(=O)O)cc3)sc2C1

>  <Name>  (585) 
nan

>  <Pocket>  (585) 
nan

>  <ATP_Site>  (585) 
nan

>  <Peripheral>  (585) 
nan

>  <Num_H_Atoms_ProtBoundConf>  (585) 
nan

>  <Num_Resolved_Atoms>  (585) 
nan

>  <Num_Not_Resolved_Atoms>  (585) 
nan

$$$$
CHEMBL4762260
     RDKit          3D

  0  0  0  0  0  0  0  0  0  0999 V3000
M  V30 BEGIN CTAB
M  V30 COUNTS 52 55 0 0 0
M  V30 BEGIN ATOM
M  V30 1 O 1.700874 -0.343885 0.507777 0
M  V30 2 C 2.092967 -1.251879 -0.253373 0
M  V30 3 C 3.425353 -1.298281 0.254417 0
M  V30 4 C 3.821194 -0.392742 1.333836 0
M  V30 5 C 3.136713 -0.425958 2.638682 0
M  V30 6 C 4.101063 -0.154779 3.806374 0
M  V30 7 N 5.123825 -1.128421 3.943660 0
M  V30 8 C 5.349949 -1.755022 2.657725 0
M  V30 9 C 5.291781 -0.668707 1.587643 0
M  V30 10 N 1.312839 -1.861971 -1.199749 0
M  V30 11 C 0.056941 -1.964540 -1.823454 0
M  V30 12 C -0.515897 -0.773423 -2.488220 0
M  V30 13 C -0.934995 0.388118 -1.672842 0
M  V30 14 N -2.050768 0.100709 -0.798792 0
M  V30 15 C -3.273259 0.330116 -1.378822 0
M  V30 16 O -3.382295 0.752220 -2.561703 0
M  V30 17 C -4.503282 0.134957 -0.762674 0
M  V30 18 C -5.701222 0.380315 -1.388986 0
M  V30 19 C -6.866538 0.155611 -0.693162 0
M  V30 20 F -8.031251 0.406322 -1.336563 0
M  V30 21 C -6.888436 -0.311907 0.624739 0
M  V30 22 C -5.667541 -0.548458 1.225022 0
M  V30 23 C -4.513453 -0.325679 0.535281 0
M  V30 24 N -3.336128 -0.547370 1.096021 0
M  V30 25 C -3.004543 -0.983999 2.305932 0
M  V30 26 S -3.872688 -1.429946 3.607581 0
M  V30 27 N -1.667541 -1.051057 2.421138 0
M  V30 28 N -1.197136 -0.646602 1.257764 0
M  V30 29 C -2.194205 -0.339442 0.448648 0
M  V30 30 H 4.142771 -1.147750 -0.582246 0
M  V30 31 H 3.616394 -2.359474 0.574160 0
M  V30 32 H 3.811438 0.659498 0.920796 0
M  V30 33 H 2.611976 -1.351676 2.898245 0
M  V30 34 H 2.467791 0.481729 2.727688 0
M  V30 35 H 3.437715 -0.035006 4.702335 0
M  V30 36 H 4.519456 0.866765 3.620389 0
M  V30 37 H 6.019647 -0.672147 4.226083 0
M  V30 38 H 4.516346 -2.477636 2.540370 0
M  V30 39 H 6.329598 -2.273518 2.654571 0
M  V30 40 H 5.825389 0.237553 1.930219 0
M  V30 41 H 5.776119 -1.116906 0.696275 0
M  V30 42 H 2.061279 -2.539684 -1.584659 0
M  V30 43 H 0.116288 -2.769074 -2.582880 0
M  V30 44 H -0.682700 -2.344213 -1.031019 0
M  V30 45 H 0.179060 -0.442165 -3.318837 0
M  V30 46 H -1.450062 -1.127965 -3.025983 0
M  V30 47 H -0.156628 0.842578 -1.027559 0
M  V30 48 H -1.259579 1.196598 -2.381591 0
M  V30 49 H -5.698703 0.741134 -2.405363 0
M  V30 50 H -7.853309 -0.464525 1.106645 0
M  V30 51 H -5.769574 -0.902665 2.228113 0
M  V30 52 H -1.008696 -1.342293 3.204037 0
M  V30 END ATOM
M  V30 BEGIN BOND
M  V30 1 2 1 2
M  V30 2 1 2 3
M  V30 3 1 3 4
M  V30 4 1 4 5
M  V30 5 1 5 6
M  V30 6 1 6 7
M  V30 7 1 7 8
M  V30 8 1 8 9
M  V30 9 1 2 10
M  V30 10 1 10 11
M  V30 11 1 11 12
M  V30 12 1 12 13
M  V30 13 1 13 14
M  V30 14 1 14 15
M  V30 15 2 15 16
M  V30 16 1 15 17
M  V30 17 2 17 18
M  V30 18 1 18 19
M  V30 19 1 19 20
M  V30 20 2 19 21
M  V30 21 1 21 22
M  V30 22 2 22 23
M  V30 23 1 23 24
M  V30 24 1 24 25
M  V30 25 2 25 26
M  V30 26 1 25 27
M  V30 27 1 27 28
M  V30 28 2 28 29
M  V30 29 1 9 4
M  V30 30 1 29 14
M  V30 31 1 23 17
M  V30 32 1 29 24
M  V30 33 1 3 30
M  V30 34 1 3 31
M  V30 35 1 4 32
M  V30 36 1 5 33
M  V30 37 1 5 34
M  V30 38 1 6 35
M  V30 39 1 6 36
M  V30 40 1 7 37
M  V30 41 1 8 38
M  V30 42 1 8 39
M  V30 43 1 9 40
M  V30 44 1 9 41
M  V30 45 1 10 42
M  V30 46 1 11 43
M  V30 47 1 11 44
M  V30 48 1 12 45
M  V30 49 1 12 46
M  V30 50 1 13 47
M  V30 51 1 13 48
M  V30 52 1 18 49
M  V30 53 1 21 50
M  V30 54 1 22 51
M  V30 55 1 27 52
M  V30 END BOND
M  V30 END CTAB
M  END
>  <Dataset>  (586) 
ChEMBL_Kinases

>  <Ligand_Instance>  (586) 
nan

>  <PDB_ID>  (586) 
nan

>  <Standardized_SMILES>  (586) 
O=C(CC1CCNCC1)NCCCn1c(=O)c2cc(F)ccc2n2c(=S)[nH]nc12

>  <Name>  (586) 
nan

>  <Pocket>  (586) 
nan

>  <ATP_Site>  (586) 
nan

>  <Peripheral>  (586) 
nan

>  <Num_H_Atoms_ProtBoundConf>  (586) 
nan

>  <Num_Resolved_Atoms>  (586) 
nan

>  <Num_Not_Resolved_Atoms>  (586) 
nan

$$$$
CHEMBL4279376
     RDKit          3D

  0  0  0  0  0  0  0  0  0  0999 V3000
M  V30 BEGIN CTAB
M  V30 COUNTS 54 58 0 0 0
M  V30 BEGIN ATOM
M  V30 1 N 2.517433 -4.616932 -2.130556 0
M  V30 2 C 2.835949 -3.574186 -1.780582 0
M  V30 3 C 3.228151 -2.264756 -1.318978 0
M  V30 4 C 4.431133 -1.699866 -1.726227 0
M  V30 5 N 4.795722 -0.475187 -1.291039 0
M  V30 6 C 3.960397 0.172166 -0.455755 0
M  V30 7 N 4.073041 1.473838 0.139449 0
M  V30 8 C 3.271942 2.490384 -0.445279 0
M  V30 9 C 2.427198 2.152152 -1.486378 0
M  V30 10 C 1.605120 3.100393 -2.099585 0
M  V30 11 C 1.605809 4.415444 -1.686905 0
M  V30 12 C 2.449842 4.769127 -0.641736 0
M  V30 13 C 3.246831 3.807872 -0.060745 0
M  V30 14 N 2.819261 -0.362500 -0.067186 0
M  V30 15 C 2.387998 -1.567155 -0.454208 0
M  V30 16 N 1.125063 -2.147655 -0.050285 0
M  V30 17 C 0.391884 -1.284469 0.846062 0
M  V30 18 C -0.974700 -1.749696 1.209851 0 CFG=2
M  V30 19 C -0.954384 -3.076627 1.879513 0
M  V30 20 C -2.350757 -3.486321 2.299573 0 CFG=2
M  V30 21 C -3.227724 -3.513915 1.084331 0
M  V30 22 C -3.280622 -2.161526 0.444610 0 CFG=2
M  V30 23 C -1.929382 -1.646281 0.037754 0
M  V30 24 C -3.828076 -1.176180 1.459647 0 CFG=1
M  V30 25 N -5.131024 -1.585917 1.878325 0
M  V30 26 C -2.903546 -1.151900 2.658497 0 CFG=1
M  V30 27 C -2.914960 -2.501033 3.304779 0
M  V30 28 C -1.500755 -0.751077 2.259529 0
M  V30 29 H 5.100519 -2.209091 -2.391682 0
M  V30 30 H 4.714717 1.579618 0.938094 0
M  V30 31 H 2.341367 1.140502 -1.898623 0
M  V30 32 H 0.938145 2.884471 -2.902067 0
M  V30 33 H 0.991713 5.182447 -2.123299 0
M  V30 34 H 2.458889 5.808187 -0.305306 0
M  V30 35 H 3.885347 4.114862 0.739984 0
M  V30 36 H 0.885833 -3.086695 -0.430635 0
M  V30 37 H 1.002456 -1.169476 1.778403 0
M  V30 38 H 0.332166 -0.264909 0.388836 0
M  V30 39 H -0.357146 -2.982018 2.795366 0
M  V30 40 H -0.562959 -3.896274 1.251165 0
M  V30 41 H -2.336089 -4.489340 2.737894 0
M  V30 42 H -2.803548 -4.253241 0.366552 0
M  V30 43 H -4.244092 -3.782823 1.407354 0
M  V30 44 H -3.947967 -2.164192 -0.446600 0
M  V30 45 H -2.071681 -0.536059 -0.122745 0
M  V30 46 H -1.541319 -2.040840 -0.901668 0
M  V30 47 H -3.847837 -0.153026 1.020087 0
M  V30 48 H -5.810845 -1.551320 1.071909 0
M  V30 49 H -5.451793 -0.958075 2.659508 0
M  V30 50 H -3.287323 -0.350070 3.332313 0
M  V30 51 H -3.959555 -2.781951 3.474915 0
M  V30 52 H -2.351393 -2.542531 4.241840 0
M  V30 53 H -1.517300 0.229243 1.786529 0
M  V30 54 H -0.846188 -0.839049 3.134103 0
M  V30 END ATOM
M  V30 BEGIN BOND
M  V30 1 3 1 2
M  V30 2 1 2 3
M  V30 3 2 3 4
M  V30 4 1 4 5
M  V30 5 2 5 6
M  V30 6 1 6 7
M  V30 7 1 7 8
M  V30 8 2 8 9
M  V30 9 1 9 10
M  V30 10 2 10 11
M  V30 11 1 11 12
M  V30 12 2 12 13
M  V30 13 1 6 14
M  V30 14 2 14 15
M  V30 15 1 15 16
M  V30 16 1 16 17
M  V30 17 1 18 17 CFG=3
M  V30 18 1 18 19
M  V30 19 1 19 20
M  V30 20 1 20 21
M  V30 21 1 21 22
M  V30 22 1 22 23
M  V30 23 1 22 24
M  V30 24 1 24 25
M  V30 25 1 24 26
M  V30 26 1 26 27
M  V30 27 1 26 28
M  V30 28 1 15 3
M  V30 29 1 23 18
M  V30 30 1 13 8
M  V30 31 1 28 18
M  V30 32 1 27 20
M  V30 33 1 4 29
M  V30 34 1 7 30
M  V30 35 1 9 31
M  V30 36 1 10 32
M  V30 37 1 11 33
M  V30 38 1 12 34
M  V30 39 1 13 35
M  V30 40 1 16 36
M  V30 41 1 17 37
M  V30 42 1 17 38
M  V30 43 1 19 39
M  V30 44 1 19 40
M  V30 45 1 20 41 CFG=1
M  V30 46 1 21 42
M  V30 47 1 21 43
M  V30 48 1 22 44 CFG=3
M  V30 49 1 23 45
M  V30 50 1 23 46
M  V30 51 1 24 47 CFG=3
M  V30 52 1 25 48
M  V30 53 1 25 49
M  V30 54 1 26 50 CFG=1
M  V30 55 1 27 51
M  V30 56 1 27 52
M  V30 57 1 28 53
M  V30 58 1 28 54
M  V30 END BOND
M  V30 END CTAB
M  END
>  <Dataset>  (587) 
ChEMBL_Kinases

>  <Ligand_Instance>  (587) 
nan

>  <PDB_ID>  (587) 
nan

>  <Standardized_SMILES>  (587) 
N#Cc1cnc(Nc2ccccc2)nc1NC[C@]12C[C@@H]3C[C@H](C1)[C@@H](N)[C@@H](C3)C2

>  <Name>  (587) 
nan

>  <Pocket>  (587) 
nan

>  <ATP_Site>  (587) 
nan

>  <Peripheral>  (587) 
nan

>  <Num_H_Atoms_ProtBoundConf>  (587) 
nan

>  <Num_Resolved_Atoms>  (587) 
nan

>  <Num_Not_Resolved_Atoms>  (587) 
nan

$$$$
CHEMBL4279373
     RDKit          3D

  0  0  0  0  0  0  0  0  0  0999 V3000
M  V30 BEGIN CTAB
M  V30 COUNTS 79 84 0 0 0
M  V30 BEGIN ATOM
M  V30 1 O -1.895568 -4.926132 0.585718 0
M  V30 2 C -1.985283 -3.707239 0.370739 0
M  V30 3 S -2.997011 -2.976871 -0.916266 0
M  V30 4 C -2.277996 -1.324393 -0.757548 0
M  V30 5 C -2.441977 -0.319033 -1.581863 0
M  V30 6 C -3.262344 -0.419777 -2.781490 0
M  V30 7 C -4.014925 0.719108 -3.094223 0
M  V30 8 C -4.846840 0.818824 -4.188048 0
M  V30 9 C -4.908009 -0.300234 -4.995467 0
M  V30 10 O -5.766329 -0.165109 -6.103492 0
M  V30 11 C -5.300565 0.337078 -7.329823 0
M  V30 12 C -5.408997 1.728190 -7.439215 0
M  V30 13 C -5.010307 2.434972 -8.561752 0
M  V30 14 C -4.483386 1.673881 -9.601635 0
M  V30 15 Br -3.893335 2.516869 -11.208837 0
M  V30 16 C -4.364717 0.300998 -9.521321 0
M  V30 17 C -4.769798 -0.377407 -8.390948 0
M  V30 18 C -4.194928 -1.453973 -4.747119 0
M  V30 19 C -3.382968 -1.491749 -3.641202 0
M  V30 20 C -1.500802 -1.359351 0.450060 0
M  V30 21 O -0.990202 -0.293663 0.934080 0
M  V30 22 N -1.348171 -2.631385 1.046552 0
M  V30 23 C -0.609202 -2.873602 2.250090 0
M  V30 24 C -1.041552 -2.857864 3.558011 0
M  V30 25 C -0.142466 -3.118971 4.571559 0
M  V30 26 C 1.210406 -3.404392 4.340750 0
M  V30 27 O 1.868198 -3.621449 5.509439 0
M  V30 28 C 3.179405 -3.921449 5.788298 0
M  V30 29 C 4.231450 -2.941756 5.403768 0
M  V30 30 C 4.143064 -1.601604 6.033806 0
M  V30 31 C 2.921852 -0.803989 5.786783 0
M  V30 32 N 2.628279 -0.471605 4.437298 0
M  V30 33 C 1.412835 0.315429 4.357114 0
M  V30 34 C 1.433054 1.233480 3.145685 0
M  V30 35 N 2.014084 0.569838 1.994017 0
M  V30 36 C 1.949869 1.442479 0.855959 0
M  V30 37 C 2.512922 0.866074 -0.410510 0
M  V30 38 C 2.414936 1.854824 -1.599520 0
M  V30 39 C 3.726538 1.372321 -1.063884 0
M  V30 40 C 3.307782 0.009865 2.224018 0
M  V30 41 C 3.639689 0.221940 3.708871 0
M  V30 42 C 1.593784 -3.408934 3.015980 0
M  V30 43 C 0.716755 -3.151506 1.985900 0
M  V30 44 H -1.945586 0.634749 -1.365752 0
M  V30 45 H -3.962239 1.609889 -2.446679 0
M  V30 46 H -5.402638 1.727680 -4.374813 0
M  V30 47 H -5.813031 2.352058 -6.652757 0
M  V30 48 H -5.096332 3.501023 -8.637804 0
M  V30 49 H -3.961000 -0.312602 -10.310352 0
M  V30 50 H -4.736012 -1.439234 -8.192089 0
M  V30 51 H -4.277283 -2.299002 -5.407462 0
M  V30 52 H -2.788813 -2.355294 -3.372895 0
M  V30 53 H -2.083935 -2.633069 3.662319 0
M  V30 54 H -0.637231 -3.069292 5.550115 0
M  V30 55 H 3.381751 -4.940156 5.329514 0
M  V30 56 H 3.241022 -4.155948 6.896648 0
M  V30 57 H 5.213119 -3.386798 5.772837 0
M  V30 58 H 4.317882 -2.859375 4.309063 0
M  V30 59 H 4.211309 -1.755460 7.151910 0
M  V30 60 H 5.039560 -0.960218 5.815281 0
M  V30 61 H 2.014463 -1.342735 6.187512 0
M  V30 62 H 2.926708 0.153163 6.365260 0
M  V30 63 H 0.501599 -0.305624 4.296174 0
M  V30 64 H 1.307758 0.974286 5.240331 0
M  V30 65 H 1.913405 2.217999 3.364330 0
M  V30 66 H 0.375208 1.456298 2.896080 0
M  V30 67 H 0.896844 1.732301 0.668477 0
M  V30 68 H 2.469406 2.392879 1.132567 0
M  V30 69 H 2.229682 -0.185707 -0.635190 0
M  V30 70 H 2.205311 2.909719 -1.382362 0
M  V30 71 H 1.979134 1.424943 -2.512034 0
M  V30 72 H 4.367195 2.059508 -0.496687 0
M  V30 73 H 4.272101 0.693864 -1.746910 0
M  V30 74 H 4.103166 0.426056 1.574187 0
M  V30 75 H 3.225195 -1.089442 2.096601 0
M  V30 76 H 3.667060 1.317625 3.893474 0
M  V30 77 H 4.670963 -0.127754 3.924606 0
M  V30 78 H 2.633404 -3.637751 2.880866 0
M  V30 79 H 1.194086 -3.197596 1.009108 0
M  V30 END ATOM
M  V30 BEGIN BOND
M  V30 1 2 1 2
M  V30 2 1 2 3
M  V30 3 1 3 4
M  V30 4 2 4 5
M  V30 5 1 5 6
M  V30 6 2 6 7
M  V30 7 1 7 8
M  V30 8 2 8 9
M  V30 9 1 9 10
M  V30 10 1 10 11
M  V30 11 2 11 12
M  V30 12 1 12 13
M  V30 13 2 13 14
M  V30 14 1 14 15
M  V30 15 1 14 16
M  V30 16 2 16 17
M  V30 17 1 9 18
M  V30 18 2 18 19
M  V30 19 1 4 20
M  V30 20 2 20 21
M  V30 21 1 20 22
M  V30 22 1 22 23
M  V30 23 2 23 24
M  V30 24 1 24 25
M  V30 25 2 25 26
M  V30 26 1 26 27
M  V30 27 1 27 28
M  V30 28 1 28 29
M  V30 29 1 29 30
M  V30 30 1 30 31
M  V30 31 1 31 32
M  V30 32 1 32 33
M  V30 33 1 33 34
M  V30 34 1 34 35
M  V30 35 1 35 36
M  V30 36 1 36 37
M  V30 37 1 37 38
M  V30 38 1 38 39
M  V30 39 1 35 40
M  V30 40 1 40 41
M  V30 41 1 26 42
M  V30 42 2 42 43
M  V30 43 1 22 2
M  V30 44 1 43 23
M  V30 45 1 19 6
M  V30 46 1 41 32
M  V30 47 1 17 11
M  V30 48 1 39 37
M  V30 49 1 5 44
M  V30 50 1 7 45
M  V30 51 1 8 46
M  V30 52 1 12 47
M  V30 53 1 13 48
M  V30 54 1 16 49
M  V30 55 1 17 50
M  V30 56 1 18 51
M  V30 57 1 19 52
M  V30 58 1 24 53
M  V30 59 1 25 54
M  V30 60 1 28 55
M  V30 61 1 28 56
M  V30 62 1 29 57
M  V30 63 1 29 58
M  V30 64 1 30 59
M  V30 65 1 30 60
M  V30 66 1 31 61
M  V30 67 1 31 62
M  V30 68 1 33 63
M  V30 69 1 33 64
M  V30 70 1 34 65
M  V30 71 1 34 66
M  V30 72 1 36 67
M  V30 73 1 36 68
M  V30 74 1 37 69
M  V30 75 1 38 70
M  V30 76 1 38 71
M  V30 77 1 39 72
M  V30 78 1 39 73
M  V30 79 1 40 74
M  V30 80 1 40 75
M  V30 81 1 41 76
M  V30 82 1 41 77
M  V30 83 1 42 78
M  V30 84 1 43 79
M  V30 END BOND
M  V30 END CTAB
M  END
>  <Dataset>  (588) 
ChEMBL_Kinases

>  <Ligand_Instance>  (588) 
nan

>  <PDB_ID>  (588) 
nan

>  <Standardized_SMILES>  (588) 
O=C1S/C(=C\c2ccc(Oc3ccc(Br)cc3)cc2)C(=O)N1c1ccc(OCCCCN2CCN(CC3CC3)CC2)cc1

>  <Name>  (588) 
nan

>  <Pocket>  (588) 
nan

>  <ATP_Site>  (588) 
nan

>  <Peripheral>  (588) 
nan

>  <Num_H_Atoms_ProtBoundConf>  (588) 
nan

>  <Num_Resolved_Atoms>  (588) 
nan

>  <Num_Not_Resolved_Atoms>  (588) 
nan

$$$$
CHEMBL4279366
     RDKit          3D

  0  0  0  0  0  0  0  0  0  0999 V3000
M  V30 BEGIN CTAB
M  V30 COUNTS 56 59 0 0 0
M  V30 BEGIN ATOM
M  V30 1 O 1.870529 1.955944 2.189320 0
M  V30 2 C 2.848285 2.303427 1.483825 0
M  V30 3 N 4.125473 2.673948 1.991327 0
M  V30 4 C 4.322049 2.652857 3.405273 0
M  V30 5 C 4.781955 1.459054 3.968213 0
M  V30 6 C 4.980454 1.415346 5.343988 0
M  V30 7 C 4.746563 2.495089 6.193448 0
M  V30 8 C 4.294397 3.643994 5.580468 0
M  V30 9 C 4.048436 4.773957 6.461566 0
M  V30 10 O 4.246014 4.673908 7.696553 0
M  V30 11 O 3.595148 6.033810 6.107026 0
M  V30 12 C 4.077631 3.752171 4.223180 0
M  V30 13 N 2.656565 2.324275 0.097436 0
M  V30 14 C 1.430376 1.981715 -0.612372 0
M  V30 15 N 0.989786 1.905415 -1.677438 0
M  V30 16 C -0.267424 1.528334 -1.954639 0
M  V30 17 C -1.116580 1.202427 -0.908678 0
M  V30 18 S -0.022256 1.463563 0.495314 0
M  V30 19 C -2.472477 0.789337 -1.108680 0
M  V30 20 C -2.467604 -0.288433 -2.203585 0
M  V30 21 N -2.087755 -1.575513 -1.683441 0
M  V30 22 C -3.030828 -2.636621 -1.581530 0
M  V30 23 O -4.228407 -2.542820 -1.923533 0
M  V30 24 N -2.467690 -3.828419 -1.045356 0
M  V30 25 C -3.088221 -5.083639 -0.795935 0
M  V30 26 C -3.697633 -5.409400 0.404538 0
M  V30 27 C -4.289129 -6.641594 0.605082 0
M  V30 28 C -4.290420 -7.604735 -0.405992 0
M  V30 29 C -3.696018 -7.301219 -1.592008 0
M  V30 30 C -3.671932 -8.270965 -2.673767 0
M  V30 31 O -4.189872 -9.403658 -2.553211 0
M  V30 32 O -3.082251 -8.014277 -3.898240 0
M  V30 33 C -3.112647 -6.063712 -1.766374 0
M  V30 34 C -1.742822 0.147813 -3.419532 0
M  V30 35 C -0.920671 1.399773 -3.266989 0
M  V30 36 H 4.903537 2.955256 1.352859 0
M  V30 37 H 4.989181 0.567787 3.372578 0
M  V30 38 H 5.340649 0.492633 5.813036 0
M  V30 39 H 4.923058 2.388767 7.253870 0
M  V30 40 H 4.124839 6.882522 6.344170 0
M  V30 41 H 3.718818 4.676491 3.767610 0
M  V30 42 H 3.387836 2.592020 -0.563831 0
M  V30 43 H -2.862311 0.328158 -0.184797 0
M  V30 44 H -3.167062 1.608581 -1.385362 0
M  V30 45 H -3.548240 -0.376877 -2.459125 0
M  V30 46 H -1.082871 -1.638349 -1.401369 0
M  V30 47 H -1.463024 -3.941191 -0.747410 0
M  V30 48 H -3.684804 -4.648073 1.174049 0
M  V30 49 H -4.768067 -6.891995 1.554772 0
M  V30 50 H -4.767323 -8.550949 -0.194834 0
M  V30 51 H -2.504210 -8.720632 -4.376082 0
M  V30 52 H -2.643059 -5.842418 -2.722852 0
M  V30 53 H -2.437582 0.394776 -4.255486 0
M  V30 54 H -1.157548 -0.701540 -3.843609 0
M  V30 55 H -1.521148 2.322946 -3.415256 0
M  V30 56 H -0.228188 1.385069 -4.135344 0
M  V30 END ATOM
M  V30 BEGIN BOND
M  V30 1 2 1 2
M  V30 2 1 2 3
M  V30 3 1 3 4
M  V30 4 2 4 5
M  V30 5 1 5 6
M  V30 6 2 6 7
M  V30 7 1 7 8
M  V30 8 1 8 9
M  V30 9 2 9 10
M  V30 10 1 9 11
M  V30 11 2 8 12
M  V30 12 1 2 13
M  V30 13 1 13 14
M  V30 14 2 14 15
M  V30 15 1 15 16
M  V30 16 2 16 17
M  V30 17 1 17 18
M  V30 18 1 17 19
M  V30 19 1 19 20
M  V30 20 1 20 21
M  V30 21 1 21 22
M  V30 22 2 22 23
M  V30 23 1 22 24
M  V30 24 1 24 25
M  V30 25 2 25 26
M  V30 26 1 26 27
M  V30 27 2 27 28
M  V30 28 1 28 29
M  V30 29 1 29 30
M  V30 30 2 30 31
M  V30 31 1 30 32
M  V30 32 2 29 33
M  V30 33 1 20 34
M  V30 34 1 34 35
M  V30 35 1 12 4
M  V30 36 1 18 14
M  V30 37 1 33 25
M  V30 38 1 35 16
M  V30 39 1 3 36
M  V30 40 1 5 37
M  V30 41 1 6 38
M  V30 42 1 7 39
M  V30 43 1 11 40
M  V30 44 1 12 41
M  V30 45 1 13 42
M  V30 46 1 19 43
M  V30 47 1 19 44
M  V30 48 1 20 45
M  V30 49 1 21 46
M  V30 50 1 24 47
M  V30 51 1 26 48
M  V30 52 1 27 49
M  V30 53 1 28 50
M  V30 54 1 32 51
M  V30 55 1 33 52
M  V30 56 1 34 53
M  V30 57 1 34 54
M  V30 58 1 35 55
M  V30 59 1 35 56
M  V30 END BOND
M  V30 END CTAB
M  END
>  <Dataset>  (589) 
ChEMBL_Kinases

>  <Ligand_Instance>  (589) 
nan

>  <PDB_ID>  (589) 
nan

>  <Standardized_SMILES>  (589) 
O=C(Nc1cccc(C(=O)O)c1)Nc1nc2c(s1)CC(NC(=O)Nc1cccc(C(=O)O)c1)CC2

>  <Name>  (589) 
nan

>  <Pocket>  (589) 
nan

>  <ATP_Site>  (589) 
nan

>  <Peripheral>  (589) 
nan

>  <Num_H_Atoms_ProtBoundConf>  (589) 
nan

>  <Num_Resolved_Atoms>  (589) 
nan

>  <Num_Not_Resolved_Atoms>  (589) 
nan

$$$$
CHEMBL4762307
     RDKit          3D

  0  0  0  0  0  0  0  0  0  0999 V3000
M  V30 BEGIN CTAB
M  V30 COUNTS 52 56 0 0 0
M  V30 BEGIN ATOM
M  V30 1 O -2.133386 -1.644424 1.458989 0
M  V30 2 C -1.773640 -2.787334 1.057312 0
M  V30 3 N -0.421498 -2.994851 0.660339 0
M  V30 4 C 0.320058 -1.743177 0.814056 0
M  V30 5 N 0.533395 -0.861552 0.144705 0
M  V30 6 C 1.217587 0.250395 0.345330 0
M  V30 7 C 1.346419 1.274301 -0.686791 0
M  V30 8 C 0.239636 1.749632 -1.404113 0
M  V30 9 C 0.273730 2.696845 -2.394865 0
M  V30 10 C 1.497769 3.236776 -2.723848 0
M  V30 11 N 2.590096 2.813645 -2.064728 0
M  V30 12 C 2.509024 1.883440 -1.101213 0
M  V30 13 C 1.769973 0.366849 1.577373 0
M  V30 14 C 2.577051 1.342839 2.295269 0
M  V30 15 N 1.837525 2.501026 2.741662 0
M  V30 16 C 2.618850 3.470105 3.448143 0
M  V30 17 C 2.544214 3.013196 4.885762 0
M  V30 18 C 1.137267 2.518758 5.012186 0
M  V30 19 C 0.751510 2.193033 3.606093 0
M  V30 20 S 1.235656 -1.211632 2.391141 0
M  V30 21 C -2.770528 -3.889543 1.008416 0
M  V30 22 C -3.990158 -3.490870 0.248293 0
M  V30 23 O -3.950697 -3.839239 -1.109032 0
M  V30 24 C -3.009097 -4.689951 -1.663185 0
M  V30 25 C -3.053048 -4.812239 -3.043162 0
M  V30 26 C -2.133295 -5.649663 -3.642743 0
M  V30 27 C -1.226093 -6.315062 -2.837584 0
M  V30 28 C -1.204348 -6.174851 -1.460942 0
M  V30 29 C -2.104611 -5.351432 -0.843595 0
M  V30 30 O -2.212120 -5.103054 0.534114 0
M  V30 31 H -0.082572 -3.923900 0.322151 0
M  V30 32 H -0.750956 1.344829 -1.171852 0
M  V30 33 H -0.625977 3.008084 -2.899062 0
M  V30 34 H 1.595433 3.987563 -3.495682 0
M  V30 35 H 3.432603 1.601221 -0.637077 0
M  V30 36 H 2.984149 0.878772 3.238129 0
M  V30 37 H 3.470718 1.586076 1.704048 0
M  V30 38 H 2.071509 4.447732 3.400110 0
M  V30 39 H 3.661382 3.560975 3.085028 0
M  V30 40 H 2.677922 3.881452 5.567337 0
M  V30 41 H 3.265613 2.194052 5.078897 0
M  V30 42 H 0.433867 3.286460 5.427674 0
M  V30 43 H 1.064004 1.636698 5.691357 0
M  V30 44 H -0.129228 2.819022 3.295370 0
M  V30 45 H 0.389042 1.153007 3.554854 0
M  V30 46 H -3.094522 -4.111842 2.067507 0
M  V30 47 H -4.916845 -3.947172 0.682407 0
M  V30 48 H -4.130738 -2.385413 0.307237 0
M  V30 49 H -3.779226 -4.273397 -3.635406 0
M  V30 50 H -2.172106 -5.740414 -4.718274 0
M  V30 51 H -0.507892 -6.970088 -3.316718 0
M  V30 52 H -0.509079 -6.682226 -0.817730 0
M  V30 END ATOM
M  V30 BEGIN BOND
M  V30 1 2 1 2
M  V30 2 1 2 3
M  V30 3 1 3 4
M  V30 4 2 4 5
M  V30 5 1 5 6
M  V30 6 1 6 7
M  V30 7 2 7 8
M  V30 8 1 8 9
M  V30 9 2 9 10
M  V30 10 1 10 11
M  V30 11 2 11 12
M  V30 12 2 6 13
M  V30 13 1 13 14
M  V30 14 1 14 15
M  V30 15 1 15 16
M  V30 16 1 16 17
M  V30 17 1 17 18
M  V30 18 1 18 19
M  V30 19 1 13 20
M  V30 20 1 2 21
M  V30 21 1 21 22
M  V30 22 1 22 23
M  V30 23 1 23 24
M  V30 24 2 24 25
M  V30 25 1 25 26
M  V30 26 2 26 27
M  V30 27 1 27 28
M  V30 28 2 28 29
M  V30 29 1 29 30
M  V30 30 1 20 4
M  V30 31 1 30 21
M  V30 32 1 12 7
M  V30 33 1 19 15
M  V30 34 1 29 24
M  V30 35 1 3 31
M  V30 36 1 8 32
M  V30 37 1 9 33
M  V30 38 1 10 34
M  V30 39 1 12 35
M  V30 40 1 14 36
M  V30 41 1 14 37
M  V30 42 1 16 38
M  V30 43 1 16 39
M  V30 44 1 17 40
M  V30 45 1 17 41
M  V30 46 1 18 42
M  V30 47 1 18 43
M  V30 48 1 19 44
M  V30 49 1 19 45
M  V30 50 1 21 46
M  V30 51 1 22 47
M  V30 52 1 22 48
M  V30 53 1 25 49
M  V30 54 1 26 50
M  V30 55 1 27 51
M  V30 56 1 28 52
M  V30 END BOND
M  V30 END CTAB
M  END
>  <Dataset>  (590) 
ChEMBL_Kinases

>  <Ligand_Instance>  (590) 
nan

>  <PDB_ID>  (590) 
nan

>  <Standardized_SMILES>  (590) 
O=C(Nc1nc(-c2cccnc2)c(CN2CCCC2)s1)C1COc2ccccc2O1

>  <Name>  (590) 
nan

>  <Pocket>  (590) 
nan

>  <ATP_Site>  (590) 
nan

>  <Peripheral>  (590) 
nan

>  <Num_H_Atoms_ProtBoundConf>  (590) 
nan

>  <Num_Resolved_Atoms>  (590) 
nan

>  <Num_Not_Resolved_Atoms>  (590) 
nan

$$$$
CHEMBL4279331
     RDKit          3D

  0  0  0  0  0  0  0  0  0  0999 V3000
M  V30 BEGIN CTAB
M  V30 COUNTS 47 50 0 0 0
M  V30 BEGIN ATOM
M  V30 1 C 0.564931 -3.638641 0.350386 0
M  V30 2 C -0.749761 -2.901510 0.410865 0
M  V30 3 C -0.665221 -1.494633 0.780664 0
M  V30 4 C 0.087695 -0.357492 0.660821 0
M  V30 5 C 1.341235 -0.084374 -0.025915 0
M  V30 6 C 2.596176 -0.582658 0.251853 0
M  V30 7 C 3.704698 -0.240823 -0.493230 0
M  V30 8 C 3.529839 0.633634 -1.551444 0
M  V30 9 O 4.636821 0.999732 -2.326143 0
M  V30 10 C 2.285894 1.170099 -1.880598 0
M  V30 11 C 1.219751 0.786546 -1.094680 0
M  V30 12 C -0.549637 0.652740 1.348851 0
M  V30 13 C -0.284932 2.071425 1.607729 0
M  V30 14 C 0.857350 2.417737 2.314610 0
M  V30 15 C 1.197430 3.720759 2.611312 0
M  V30 16 C 0.359838 4.737517 2.184931 0
M  V30 17 C -0.790145 4.412391 1.475195 0
M  V30 18 C -1.115203 3.099974 1.186708 0
M  V30 19 C -2.297463 2.741427 0.455626 0
M  V30 20 N -3.253537 2.458558 -0.155421 0
M  V30 21 N -1.674739 0.101535 1.869198 0
M  V30 22 N -1.738759 -1.177782 1.527775 0
M  V30 23 C -2.603176 -2.328371 1.709045 0
M  V30 24 C -1.622013 -3.464048 1.514190 0
M  V30 25 C -0.865570 -3.637510 2.801310 0
M  V30 26 C -2.303925 -4.742542 1.106563 0
M  V30 27 H 1.317776 -3.239725 1.061970 0
M  V30 28 H 0.975796 -3.486939 -0.668530 0
M  V30 29 H 0.437652 -4.733162 0.481574 0
M  V30 30 H -1.292030 -2.995182 -0.551876 0
M  V30 31 H 2.634831 -1.254996 1.096841 0
M  V30 32 H 4.663546 -0.666642 -0.225122 0
M  V30 33 H 4.782565 0.376923 -3.138135 0
M  V30 34 H 2.198987 1.850440 -2.719139 0
M  V30 35 H 0.270606 1.238657 -1.400374 0
M  V30 36 H 1.532206 1.646132 2.662132 0
M  V30 37 H 2.106599 3.934692 3.169663 0
M  V30 38 H 0.558442 5.768956 2.378780 0
M  V30 39 H -1.468143 5.183857 1.126280 0
M  V30 40 H -3.066716 -2.345694 2.715590 0
M  V30 41 H -3.363645 -2.345012 0.898227 0
M  V30 42 H -1.500060 -3.374857 3.675849 0
M  V30 43 H -0.578873 -4.716456 2.949047 0
M  V30 44 H 0.037000 -2.996504 2.861335 0
M  V30 45 H -1.924593 -5.152532 0.147248 0
M  V30 46 H -2.208030 -5.469848 1.945672 0
M  V30 47 H -3.391407 -4.520067 1.014363 0
M  V30 END ATOM
M  V30 BEGIN BOND
M  V30 1 1 1 2
M  V30 2 1 2 3
M  V30 3 2 3 4
M  V30 4 1 4 5
M  V30 5 2 5 6
M  V30 6 1 6 7
M  V30 7 2 7 8
M  V30 8 1 8 9
M  V30 9 1 8 10
M  V30 10 2 10 11
M  V30 11 1 4 12
M  V30 12 1 12 13
M  V30 13 2 13 14
M  V30 14 1 14 15
M  V30 15 2 15 16
M  V30 16 1 16 17
M  V30 17 2 17 18
M  V30 18 1 18 19
M  V30 19 3 19 20
M  V30 20 2 12 21
M  V30 21 1 21 22
M  V30 22 1 22 23
M  V30 23 1 23 24
M  V30 24 1 24 25
M  V30 25 1 24 26
M  V30 26 1 24 2
M  V30 27 1 22 3
M  V30 28 1 11 5
M  V30 29 1 18 13
M  V30 30 1 1 27
M  V30 31 1 1 28
M  V30 32 1 1 29
M  V30 33 1 2 30
M  V30 34 1 6 31
M  V30 35 1 7 32
M  V30 36 1 9 33
M  V30 37 1 10 34
M  V30 38 1 11 35
M  V30 39 1 14 36
M  V30 40 1 15 37
M  V30 41 1 16 38
M  V30 42 1 17 39
M  V30 43 1 23 40
M  V30 44 1 23 41
M  V30 45 1 25 42
M  V30 46 1 25 43
M  V30 47 1 25 44
M  V30 48 1 26 45
M  V30 49 1 26 46
M  V30 50 1 26 47
M  V30 END BOND
M  V30 END CTAB
M  END
>  <Dataset>  (591) 
ChEMBL_Kinases

>  <Ligand_Instance>  (591) 
nan

>  <PDB_ID>  (591) 
nan

>  <Standardized_SMILES>  (591) 
CC1c2c(-c3ccc(O)cc3)c(-c3ccccc3C#N)nn2CC1(C)C

>  <Name>  (591) 
nan

>  <Pocket>  (591) 
nan

>  <ATP_Site>  (591) 
nan

>  <Peripheral>  (591) 
nan

>  <Num_H_Atoms_ProtBoundConf>  (591) 
nan

>  <Num_Resolved_Atoms>  (591) 
nan

>  <Num_Not_Resolved_Atoms>  (591) 
nan

$$$$
CHEMBL4279198
     RDKit          3D

  0  0  0  0  0  0  0  0  0  0999 V3000
M  V30 BEGIN CTAB
M  V30 COUNTS 64 68 0 0 0
M  V30 BEGIN ATOM
M  V30 1 C 2.345443 -1.927733 2.621874 0
M  V30 2 C 3.194716 -1.972697 1.382958 0
M  V30 3 O 3.305888 -0.747694 0.748976 0
M  V30 4 C 3.804482 0.426514 1.233027 0
M  V30 5 C 4.318163 0.680388 2.480107 0
M  V30 6 C 4.803473 1.900885 2.863161 0
M  V30 7 C 4.797300 2.955610 1.988108 0
M  V30 8 C 4.281281 2.702947 0.727400 0
M  V30 9 C 3.770093 1.463597 0.294477 0
M  V30 10 C 3.196248 1.489833 -1.081885 0
M  V30 11 N 1.858894 1.907796 -1.137167 0
M  V30 12 C 0.477794 2.214520 -0.982357 0
M  V30 13 N 0.265910 3.485470 -0.534038 0
M  V30 14 C -0.992456 3.908843 -0.346956 0
M  V30 15 C -1.951019 2.973243 -0.643347 0
M  V30 16 C -3.308219 3.411169 -0.452389 0
M  V30 17 N -4.398150 3.778445 -0.286171 0
M  V30 18 C -1.768804 1.694139 -1.094237 0
M  V30 19 N -2.814650 0.803889 -1.410873 0
M  V30 20 C -2.643513 -0.544993 -1.846127 0
M  V30 21 C -2.489886 -1.564242 -0.767346 0 CFG=2
M  V30 22 C -1.323973 -1.260877 0.095633 0
M  V30 23 C -1.105176 -2.365773 1.150910 0 CFG=2
M  V30 24 C -0.765948 -3.595339 0.371490 0
M  V30 25 C -2.004530 -3.990834 -0.424558 0 CFG=2
M  V30 26 C -2.255210 -2.929603 -1.443027 0
M  V30 27 C -3.220584 -4.156000 0.441235 0 CFG=1
M  V30 28 N -3.045341 -5.113715 1.503150 0
M  V30 29 C -3.536191 -2.829299 1.067197 0 CFG=1
M  V30 30 C -2.368743 -2.476224 1.946789 0
M  V30 31 C -3.763065 -1.739013 0.042748 0
M  V30 32 N -0.496394 1.335671 -1.257537 0
M  V30 33 H 2.947732 -2.108927 3.568086 0
M  V30 34 H 1.747432 -1.014813 2.714224 0
M  V30 35 H 1.714628 -2.866965 2.569585 0
M  V30 36 H 2.816013 -2.702227 0.616825 0
M  V30 37 H 4.194537 -2.399315 1.680067 0
M  V30 38 H 4.310329 -0.165367 3.142059 0
M  V30 39 H 5.208213 2.092496 3.858606 0
M  V30 40 H 5.165027 3.935216 2.229720 0
M  V30 41 H 4.282015 3.554580 0.046850 0
M  V30 42 H 3.876167 2.174808 -1.653359 0
M  V30 43 H 3.377530 0.481133 -1.523237 0
M  V30 44 H 1.891415 2.365395 -2.104025 0
M  V30 45 H -1.218362 4.914257 0.003239 0
M  V30 46 H -3.795173 1.194914 -1.312538 0
M  V30 47 H -1.715526 -0.591397 -2.481545 0
M  V30 48 H -3.463648 -0.844300 -2.551990 0
M  V30 49 H -0.401732 -1.285440 -0.503881 0
M  V30 50 H -1.485576 -0.324877 0.674930 0
M  V30 51 H -0.322621 -2.005012 1.815268 0
M  V30 52 H -0.327111 -4.420128 0.936658 0
M  V30 53 H -0.023814 -3.285361 -0.414512 0
M  V30 54 H -1.785460 -4.932218 -0.971688 0
M  V30 55 H -3.082845 -3.182693 -2.098268 0
M  V30 56 H -1.340653 -2.844202 -2.066593 0
M  V30 57 H -4.028990 -4.540190 -0.208919 0
M  V30 58 H -2.053843 -5.346846 1.684929 0
M  V30 59 H -3.608676 -4.940578 2.342738 0
M  V30 60 H -4.444379 -2.892881 1.704827 0
M  V30 61 H -2.572945 -1.478598 2.389767 0
M  V30 62 H -2.282310 -3.211676 2.780075 0
M  V30 63 H -4.593691 -2.023477 -0.608320 0
M  V30 64 H -3.941052 -0.809614 0.622912 0
M  V30 END ATOM
M  V30 BEGIN BOND
M  V30 1 1 1 2
M  V30 2 1 2 3
M  V30 3 1 3 4
M  V30 4 2 4 5
M  V30 5 1 5 6
M  V30 6 2 6 7
M  V30 7 1 7 8
M  V30 8 2 8 9
M  V30 9 1 9 10
M  V30 10 1 10 11
M  V30 11 1 11 12
M  V30 12 2 12 13
M  V30 13 1 13 14
M  V30 14 2 14 15
M  V30 15 1 15 16
M  V30 16 3 16 17
M  V30 17 1 15 18
M  V30 18 1 18 19
M  V30 19 1 19 20
M  V30 20 1 21 20 CFG=3
M  V30 21 1 21 22
M  V30 22 1 22 23
M  V30 23 1 23 24
M  V30 24 1 24 25
M  V30 25 1 25 26
M  V30 26 1 25 27
M  V30 27 1 27 28
M  V30 28 1 27 29
M  V30 29 1 29 30
M  V30 30 1 29 31
M  V30 31 2 18 32
M  V30 32 1 9 4
M  V30 33 1 32 12
M  V30 34 1 26 21
M  V30 35 1 31 21
M  V30 36 1 30 23
M  V30 37 1 1 33
M  V30 38 1 1 34
M  V30 39 1 1 35
M  V30 40 1 2 36
M  V30 41 1 2 37
M  V30 42 1 5 38
M  V30 43 1 6 39
M  V30 44 1 7 40
M  V30 45 1 8 41
M  V30 46 1 10 42
M  V30 47 1 10 43
M  V30 48 1 11 44
M  V30 49 1 14 45
M  V30 50 1 19 46
M  V30 51 1 20 47
M  V30 52 1 20 48
M  V30 53 1 22 49
M  V30 54 1 22 50
M  V30 55 1 23 51 CFG=1
M  V30 56 1 24 52
M  V30 57 1 24 53
M  V30 58 1 25 54 CFG=3
M  V30 59 1 26 55
M  V30 60 1 26 56
M  V30 61 1 27 57 CFG=3
M  V30 62 1 28 58
M  V30 63 1 28 59
M  V30 64 1 29 60 CFG=1
M  V30 65 1 30 61
M  V30 66 1 30 62
M  V30 67 1 31 63
M  V30 68 1 31 64
M  V30 END BOND
M  V30 END CTAB
M  END
>  <Dataset>  (592) 
ChEMBL_Kinases

>  <Ligand_Instance>  (592) 
nan

>  <PDB_ID>  (592) 
nan

>  <Standardized_SMILES>  (592) 
CCOc1ccccc1CNc1ncc(C#N)c(NC[C@]23C[C@@H]4C[C@H](C2)[C@@H](N)[C@@H](C4)C3)n1

>  <Name>  (592) 
nan

>  <Pocket>  (592) 
nan

>  <ATP_Site>  (592) 
nan

>  <Peripheral>  (592) 
nan

>  <Num_H_Atoms_ProtBoundConf>  (592) 
nan

>  <Num_Resolved_Atoms>  (592) 
nan

>  <Num_Not_Resolved_Atoms>  (592) 
nan

$$$$
CHEMBL4279174
     RDKit          3D

  0  0  0  0  0  0  0  0  0  0999 V3000
M  V30 BEGIN CTAB
M  V30 COUNTS 51 53 0 0 0
M  V30 BEGIN ATOM
M  V30 1 C 2.236149 -2.800552 6.958976 0
M  V30 2 N 2.383537 -2.077484 5.702432 0
M  V30 3 C 3.379347 -1.099707 5.431057 0
M  V30 4 O 4.222662 -0.778214 6.265849 0
M  V30 5 C 3.429468 -0.429063 4.110459 0
M  V30 6 C 4.592084 0.374751 4.044512 0
M  V30 7 C 4.829547 1.087767 2.866170 0
M  V30 8 C 3.852176 0.856990 1.977355 0
M  V30 9 O 3.861645 1.483977 0.667503 0
M  V30 10 C 4.924094 2.339095 0.367105 0
M  V30 11 C 2.746974 0.292278 1.618701 0
M  V30 12 C 1.545123 -0.322107 1.229481 0
M  V30 13 O 1.858603 0.227631 0.121898 0
M  V30 14 N 0.409440 -1.066476 1.356392 0
M  V30 15 C -0.552636 -1.359315 0.392198 0
M  V30 16 C -0.237566 -2.509320 -0.343884 0
M  V30 17 C -1.107288 -2.976959 -1.325213 0
M  V30 18 C -2.245809 -2.217686 -1.473562 0
M  V30 19 C -2.613649 -1.084290 -0.787758 0
M  V30 20 C -3.850446 -0.334559 -0.983066 0
M  V30 21 N -4.458063 0.104287 0.167296 0
M  V30 22 N -5.570860 0.761561 -0.193605 0
M  V30 23 C -5.605674 0.704439 -1.529074 0
M  V30 24 N -4.564040 0.038176 -2.043423 0
M  V30 25 C -4.275721 -0.226057 -3.426784 0
M  V30 26 C -4.979278 -1.454120 -3.968532 0
M  V30 27 C -2.831668 -0.165645 -3.798753 0
M  V30 28 N -1.700776 -0.702125 0.150554 0
M  V30 29 C 2.599526 -0.426156 2.936372 0
M  V30 30 H 2.808091 -2.297161 7.746887 0
M  V30 31 H 1.167154 -2.841337 7.234867 0
M  V30 32 H 2.668552 -3.832412 6.842320 0
M  V30 33 H 1.664244 -2.371651 5.014336 0
M  V30 34 H 5.400842 0.592973 4.725237 0
M  V30 35 H 5.576776 1.751273 2.515272 0
M  V30 36 H 4.982123 3.205151 1.083686 0
M  V30 37 H 5.891975 1.787011 0.437914 0
M  V30 38 H 4.733721 2.759509 -0.647100 0
M  V30 39 H 0.408907 -1.372203 2.346650 0
M  V30 40 H 0.683950 -3.101001 -0.208814 0
M  V30 41 H -0.935139 -3.852208 -1.927897 0
M  V30 42 H -2.936785 -2.583896 -2.235397 0
M  V30 43 H -6.436193 1.178113 -2.076879 0
M  V30 44 H -4.767761 0.633785 -3.987256 0
M  V30 45 H -4.255393 -2.159379 -4.438257 0
M  V30 46 H -5.464920 -1.969242 -3.087434 0
M  V30 47 H -5.766734 -1.249631 -4.691267 0
M  V30 48 H -2.513569 -1.192910 -4.152507 0
M  V30 49 H -2.172304 0.234822 -3.010863 0
M  V30 50 H -2.660776 0.462943 -4.723700 0
M  V30 51 H 1.894043 -1.150374 3.474206 0
M  V30 END ATOM
M  V30 BEGIN BOND
M  V30 1 1 1 2
M  V30 2 1 2 3
M  V30 3 2 3 4
M  V30 4 1 3 5
M  V30 5 2 5 6
M  V30 6 1 6 7
M  V30 7 2 7 8
M  V30 8 1 8 9
M  V30 9 1 9 10
M  V30 10 1 8 11
M  V30 11 1 11 12
M  V30 12 2 12 13
M  V30 13 1 12 14
M  V30 14 1 14 15
M  V30 15 2 15 16
M  V30 16 1 16 17
M  V30 17 2 17 18
M  V30 18 1 18 19
M  V30 19 1 19 20
M  V30 20 2 20 21
M  V30 21 1 21 22
M  V30 22 2 22 23
M  V30 23 1 23 24
M  V30 24 1 24 25
M  V30 25 1 25 26
M  V30 26 1 25 27
M  V30 27 2 19 28
M  V30 28 2 11 29
M  V30 29 1 29 5
M  V30 30 1 28 15
M  V30 31 1 24 20
M  V30 32 1 1 30
M  V30 33 1 1 31
M  V30 34 1 1 32
M  V30 35 1 2 33
M  V30 36 1 6 34
M  V30 37 1 7 35
M  V30 38 1 10 36
M  V30 39 1 10 37
M  V30 40 1 10 38
M  V30 41 1 14 39
M  V30 42 1 16 40
M  V30 43 1 17 41
M  V30 44 1 18 42
M  V30 45 1 23 43
M  V30 46 1 25 44
M  V30 47 1 26 45
M  V30 48 1 26 46
M  V30 49 1 26 47
M  V30 50 1 27 48
M  V30 51 1 27 49
M  V30 52 1 27 50
M  V30 53 1 29 51
M  V30 END BOND
M  V30 END CTAB
M  END
>  <Dataset>  (593) 
ChEMBL_Kinases

>  <Ligand_Instance>  (593) 
nan

>  <PDB_ID>  (593) 
nan

>  <Standardized_SMILES>  (593) 
CNC(=O)c1ccc(OC)c(C(=O)Nc2cccc(-c3nncn3C(C)C)n2)c1

>  <Name>  (593) 
nan

>  <Pocket>  (593) 
nan

>  <ATP_Site>  (593) 
nan

>  <Peripheral>  (593) 
nan

>  <Num_H_Atoms_ProtBoundConf>  (593) 
nan

>  <Num_Resolved_Atoms>  (593) 
nan

>  <Num_Not_Resolved_Atoms>  (593) 
nan

$$$$
CHEMBL4762177
     RDKit          3D

  0  0  0  0  0  0  0  0  0  0999 V3000
M  V30 BEGIN CTAB
M  V30 COUNTS 50 53 0 0 0
M  V30 BEGIN ATOM
M  V30 1 C 3.582651 -6.907871 0.735445 0
M  V30 2 C 3.659823 -5.518143 1.248508 0
M  V30 3 C 2.549127 -5.009178 1.907908 0
M  V30 4 C 2.623595 -3.717513 2.378158 0
M  V30 5 C 3.737004 -2.871926 2.243098 0
M  V30 6 C 3.544372 -1.522951 2.835284 0
M  V30 7 C 2.931977 -0.612817 1.802043 0
M  V30 8 O 3.605520 -0.361257 0.775163 0
M  V30 9 N 1.633255 -0.103667 2.062160 0
M  V30 10 C 0.975517 0.791686 1.092933 0
M  V30 11 C 0.789430 0.162471 -0.250291 0
M  V30 12 C 0.117434 1.075890 -1.259544 0
M  V30 13 N -1.191434 1.505842 -0.872034 0
M  V30 14 C -1.507668 2.613023 -0.172139 0
M  V30 15 O -0.540818 3.361159 0.175411 0
M  V30 16 C -2.801984 2.912355 0.144623 0
M  V30 17 C -3.077112 4.071399 0.875006 0
M  V30 18 C -4.373826 4.343889 1.178103 0
M  V30 19 F -4.623355 5.485487 1.896151 0
M  V30 20 C -5.433316 3.544794 0.807482 0
M  V30 21 C -5.148761 2.398257 0.083396 0
M  V30 22 C -3.846724 2.100251 -0.235382 0
M  V30 23 N -3.544677 1.004195 -0.927890 0
M  V30 24 C -4.317600 0.041585 -1.431020 0
M  V30 25 S -5.917321 -0.217386 -1.423245 0
M  V30 26 N -3.530718 -0.851743 -2.053890 0
M  V30 27 N -2.285804 -0.426087 -1.925264 0
M  V30 28 C -2.264214 0.739952 -1.221248 0
M  V30 29 C 4.826655 -3.402365 1.584782 0
M  V30 30 C 4.763916 -4.703419 1.106169 0
M  V30 31 H 3.631185 -7.684205 1.507119 0
M  V30 32 H 4.364071 -7.076708 -0.042764 0
M  V30 33 H 2.618165 -7.076949 0.173065 0
M  V30 34 H 1.669887 -5.621526 2.035687 0
M  V30 35 H 1.709766 -3.379086 2.889663 0
M  V30 36 H 4.559589 -1.150948 3.102334 0
M  V30 37 H 2.895241 -1.617606 3.721861 0
M  V30 38 H 1.136225 -0.373446 2.964249 0
M  V30 39 H -0.058128 1.029261 1.478625 0
M  V30 40 H 1.498681 1.752819 1.064355 0
M  V30 41 H 0.274465 -0.812990 -0.201232 0
M  V30 42 H 1.824526 -0.035670 -0.657178 0
M  V30 43 H 0.733652 2.013754 -1.372420 0
M  V30 44 H 0.109649 0.632581 -2.270140 0
M  V30 45 H -2.223292 4.697395 1.162675 0
M  V30 46 H -6.431833 3.877693 1.115596 0
M  V30 47 H -6.012735 1.821407 -0.173604 0
M  V30 48 H -3.624990 -1.737741 -2.580804 0
M  V30 49 H 5.648708 -2.734037 1.503233 0
M  V30 50 H 5.643745 -5.091345 0.589067 0
M  V30 END ATOM
M  V30 BEGIN BOND
M  V30 1 1 1 2
M  V30 2 2 2 3
M  V30 3 1 3 4
M  V30 4 2 4 5
M  V30 5 1 5 6
M  V30 6 1 6 7
M  V30 7 2 7 8
M  V30 8 1 7 9
M  V30 9 1 9 10
M  V30 10 1 10 11
M  V30 11 1 11 12
M  V30 12 1 12 13
M  V30 13 1 13 14
M  V30 14 2 14 15
M  V30 15 1 14 16
M  V30 16 2 16 17
M  V30 17 1 17 18
M  V30 18 1 18 19
M  V30 19 2 18 20
M  V30 20 1 20 21
M  V30 21 2 21 22
M  V30 22 1 22 23
M  V30 23 1 23 24
M  V30 24 2 24 25
M  V30 25 1 24 26
M  V30 26 1 26 27
M  V30 27 2 27 28
M  V30 28 1 5 29
M  V30 29 2 29 30
M  V30 30 1 30 2
M  V30 31 1 28 13
M  V30 32 1 22 16
M  V30 33 1 28 23
M  V30 34 1 1 31
M  V30 35 1 1 32
M  V30 36 1 1 33
M  V30 37 1 3 34
M  V30 38 1 4 35
M  V30 39 1 6 36
M  V30 40 1 6 37
M  V30 41 1 9 38
M  V30 42 1 10 39
M  V30 43 1 10 40
M  V30 44 1 11 41
M  V30 45 1 11 42
M  V30 46 1 12 43
M  V30 47 1 12 44
M  V30 48 1 17 45
M  V30 49 1 20 46
M  V30 50 1 21 47
M  V30 51 1 26 48
M  V30 52 1 29 49
M  V30 53 1 30 50
M  V30 END BOND
M  V30 END CTAB
M  END
>  <Dataset>  (594) 
ChEMBL_Kinases

>  <Ligand_Instance>  (594) 
nan

>  <PDB_ID>  (594) 
nan

>  <Standardized_SMILES>  (594) 
Cc1ccc(CC(=O)NCCCn2c(=O)c3cc(F)ccc3n3c(=S)[nH]nc23)cc1

>  <Name>  (594) 
nan

>  <Pocket>  (594) 
nan

>  <ATP_Site>  (594) 
nan

>  <Peripheral>  (594) 
nan

>  <Num_H_Atoms_ProtBoundConf>  (594) 
nan

>  <Num_Resolved_Atoms>  (594) 
nan

>  <Num_Not_Resolved_Atoms>  (594) 
nan

$$$$
CHEMBL4280341
     RDKit          3D

  0  0  0  0  0  0  0  0  0  0999 V3000
M  V30 BEGIN CTAB
M  V30 COUNTS 43 45 0 0 0
M  V30 BEGIN ATOM
M  V30 1 N -2.642663 -3.999893 4.013293 0
M  V30 2 C -2.117039 -3.776867 3.006206 0
M  V30 3 C -1.478826 -3.490088 1.749193 0
M  V30 4 C -1.309617 -4.536569 0.871279 0
M  V30 5 N -0.713291 -4.232786 -0.286225 0
M  V30 6 C -0.287216 -3.003687 -0.622503 0
M  V30 7 N 0.329692 -2.847762 -1.886069 0
M  V30 8 C 0.825784 -1.683373 -2.521399 0
M  V30 9 C 1.498101 -1.721434 -3.743604 0
M  V30 10 C 1.965480 -0.581429 -4.346005 0
M  V30 11 C 1.803592 0.664946 -3.789426 0
M  V30 12 C 1.150285 0.743853 -2.592952 0
M  V30 13 Br 0.932485 2.477299 -1.833018 0
M  V30 14 C 0.688774 -0.413178 -2.004836 0
M  V30 15 N -0.487050 -2.037385 0.283812 0
M  V30 16 C -1.061341 -2.200631 1.461494 0
M  V30 17 N -1.267406 -1.158591 2.405202 0
M  V30 18 C -0.893463 0.205113 2.263247 0
M  V30 19 C 0.584300 0.445205 2.139417 0
M  V30 20 C 0.888831 1.926554 1.992291 0
M  V30 21 C 0.701854 2.706540 3.258154 0
M  V30 22 N 0.828439 1.951551 4.461721 0
M  V30 23 C 1.737240 0.844766 4.351880 0
M  V30 24 C 1.397643 -0.115235 3.245519 0
M  V30 25 H -1.619752 -5.548328 1.058972 0
M  V30 26 H 0.459814 -3.719043 -2.483703 0
M  V30 27 H 1.651612 -2.692031 -4.226652 0
M  V30 28 H 2.479558 -0.713700 -5.303006 0
M  V30 29 H 2.197884 1.510375 -4.321467 0
M  V30 30 H 0.183683 -0.244233 -1.065828 0
M  V30 31 H -1.752300 -1.417726 3.317929 0
M  V30 32 H -1.273880 0.840190 3.080152 0
M  V30 33 H -1.412987 0.589931 1.343952 0
M  V30 34 H 0.917243 -0.016257 1.187275 0
M  V30 35 H 0.232361 2.305147 1.177929 0
M  V30 36 H 1.931262 2.005137 1.611849 0
M  V30 37 H 1.421974 3.576766 3.254295 0
M  V30 38 H -0.324808 3.154685 3.247209 0
M  V30 39 H -0.043468 1.709650 4.951845 0
M  V30 40 H 1.743486 0.335716 5.356475 0
M  V30 41 H 2.780220 1.248011 4.255043 0
M  V30 42 H 2.371773 -0.461190 2.841461 0
M  V30 43 H 0.956705 -1.009399 3.728389 0
M  V30 END ATOM
M  V30 BEGIN BOND
M  V30 1 3 1 2
M  V30 2 1 2 3
M  V30 3 2 3 4
M  V30 4 1 4 5
M  V30 5 2 5 6
M  V30 6 1 6 7
M  V30 7 1 7 8
M  V30 8 2 8 9
M  V30 9 1 9 10
M  V30 10 2 10 11
M  V30 11 1 11 12
M  V30 12 1 12 13
M  V30 13 2 12 14
M  V30 14 1 6 15
M  V30 15 2 15 16
M  V30 16 1 16 17
M  V30 17 1 17 18
M  V30 18 1 18 19
M  V30 19 1 19 20
M  V30 20 1 20 21
M  V30 21 1 21 22
M  V30 22 1 22 23
M  V30 23 1 23 24
M  V30 24 1 16 3
M  V30 25 1 24 19
M  V30 26 1 14 8
M  V30 27 1 4 25
M  V30 28 1 7 26
M  V30 29 1 9 27
M  V30 30 1 10 28
M  V30 31 1 11 29
M  V30 32 1 14 30
M  V30 33 1 17 31
M  V30 34 1 18 32
M  V30 35 1 18 33
M  V30 36 1 19 34
M  V30 37 1 20 35
M  V30 38 1 20 36
M  V30 39 1 21 37
M  V30 40 1 21 38
M  V30 41 1 22 39
M  V30 42 1 23 40
M  V30 43 1 23 41
M  V30 44 1 24 42
M  V30 45 1 24 43
M  V30 END BOND
M  V30 END CTAB
M  END
>  <Dataset>  (595) 
ChEMBL_Kinases

>  <Ligand_Instance>  (595) 
nan

>  <PDB_ID>  (595) 
nan

>  <Standardized_SMILES>  (595) 
N#Cc1cnc(Nc2cccc(Br)c2)nc1NCC1CCNCC1

>  <Name>  (595) 
nan

>  <Pocket>  (595) 
nan

>  <ATP_Site>  (595) 
nan

>  <Peripheral>  (595) 
nan

>  <Num_H_Atoms_ProtBoundConf>  (595) 
nan

>  <Num_Resolved_Atoms>  (595) 
nan

>  <Num_Not_Resolved_Atoms>  (595) 
nan

$$$$
CHEMBL4280328
     RDKit          3D

  0  0  0  0  0  0  0  0  0  0999 V3000
M  V30 BEGIN CTAB
M  V30 COUNTS 39 42 0 0 0
M  V30 BEGIN ATOM
M  V30 1 O 1.891520 -6.988438 4.865268 0
M  V30 2 C 1.923729 -6.020131 4.040145 0
M  V30 3 N 2.444203 -5.978714 2.799923 0
M  V30 4 C 2.224254 -4.727601 2.340957 0
M  V30 5 C 2.532645 -4.116547 1.151596 0
M  V30 6 C 2.157885 -2.802153 1.002924 0
M  V30 7 C 1.499777 -2.020257 1.924609 0
M  V30 8 C 1.121706 -0.625748 1.721467 0
M  V30 9 N 1.483712 -0.213901 0.562017 0
M  V30 10 N 1.271292 1.075905 0.055318 0
M  V30 11 C 0.655782 1.966655 0.793202 0
M  V30 12 N 0.485039 3.242255 0.200969 0
M  V30 13 C 0.216101 3.417636 -1.232642 0
M  V30 14 C -1.038044 2.774752 -1.660148 0
M  V30 15 C -2.206677 3.541777 -1.578551 0
M  V30 16 C -3.468868 3.116209 -1.933678 0
M  V30 17 C -3.598872 1.828319 -2.410000 0
M  V30 18 F -4.839624 1.413945 -2.757636 0
M  V30 19 C -2.474539 1.035406 -2.507987 0
M  V30 20 C -1.227940 1.497453 -2.142542 0
M  V30 21 S 0.017113 1.729056 2.459586 0
M  V30 22 C 0.407698 0.011298 2.887027 0
M  V30 23 C 1.224901 -2.720769 3.105510 0
M  V30 24 C 1.572928 -4.036143 3.316995 0
M  V30 25 N 1.384467 -4.843823 4.380337 0
M  V30 26 H 2.918446 -6.771650 2.313576 0
M  V30 27 H 3.042535 -4.646105 0.378419 0
M  V30 28 H 2.418886 -2.350985 0.047459 0
M  V30 29 H 0.560315 4.083846 0.853251 0
M  V30 30 H 0.139435 4.510665 -1.399281 0
M  V30 31 H 1.103603 3.010964 -1.774320 0
M  V30 32 H -2.147294 4.560392 -1.208862 0
M  V30 33 H -4.319025 3.760166 -1.843928 0
M  V30 34 H -2.568634 0.020025 -2.882162 0
M  V30 35 H -0.335717 0.897297 -2.212207 0
M  V30 36 H 1.067650 -0.034609 3.798471 0
M  V30 37 H -0.559261 -0.484980 3.105252 0
M  V30 38 H 0.699691 -2.184274 3.908901 0
M  V30 39 H 0.906146 -4.567994 5.276880 0
M  V30 END ATOM
M  V30 BEGIN BOND
M  V30 1 2 1 2
M  V30 2 1 2 3
M  V30 3 1 3 4
M  V30 4 2 4 5
M  V30 5 1 5 6
M  V30 6 2 6 7
M  V30 7 1 7 8
M  V30 8 2 8 9
M  V30 9 1 9 10
M  V30 10 2 10 11
M  V30 11 1 11 12
M  V30 12 1 12 13
M  V30 13 1 13 14
M  V30 14 2 14 15
M  V30 15 1 15 16
M  V30 16 2 16 17
M  V30 17 1 17 18
M  V30 18 1 17 19
M  V30 19 2 19 20
M  V30 20 1 11 21
M  V30 21 1 21 22
M  V30 22 1 7 23
M  V30 23 2 23 24
M  V30 24 1 24 25
M  V30 25 1 25 2
M  V30 26 1 24 4
M  V30 27 1 22 8
M  V30 28 1 20 14
M  V30 29 1 3 26
M  V30 30 1 5 27
M  V30 31 1 6 28
M  V30 32 1 12 29
M  V30 33 1 13 30
M  V30 34 1 13 31
M  V30 35 1 15 32
M  V30 36 1 16 33
M  V30 37 1 19 34
M  V30 38 1 20 35
M  V30 39 1 22 36
M  V30 40 1 22 37
M  V30 41 1 23 38
M  V30 42 1 25 39
M  V30 END BOND
M  V30 END CTAB
M  END
>  <Dataset>  (596) 
ChEMBL_Kinases

>  <Ligand_Instance>  (596) 
nan

>  <PDB_ID>  (596) 
nan

>  <Standardized_SMILES>  (596) 
O=c1[nH]c2ccc(C3=NN=C(NCc4ccc(F)cc4)SC3)cc2[nH]1

>  <Name>  (596) 
nan

>  <Pocket>  (596) 
nan

>  <ATP_Site>  (596) 
nan

>  <Peripheral>  (596) 
nan

>  <Num_H_Atoms_ProtBoundConf>  (596) 
nan

>  <Num_Resolved_Atoms>  (596) 
nan

>  <Num_Not_Resolved_Atoms>  (596) 
nan

$$$$
CHEMBL4761245
     RDKit          3D

  0  0  0  0  0  0  0  0  0  0999 V3000
M  V30 BEGIN CTAB
M  V30 COUNTS 37 39 0 0 0
M  V30 BEGIN ATOM
M  V30 1 C 0.878452 -3.753244 2.315158 0
M  V30 2 C 2.202017 -3.017688 2.090192 0
M  V30 3 N 2.155645 -2.312071 0.828329 0
M  V30 4 C 3.095640 -1.474204 0.105388 0
M  V30 5 O 4.184670 -1.366315 0.753685 0
M  V30 6 C 2.605849 -0.933740 -1.191790 0
M  V30 7 C 3.136424 -0.986293 -2.454476 0
M  V30 8 N 2.428348 -0.396174 -3.432229 0
M  V30 9 C 1.259303 0.219467 -3.214514 0
M  V30 10 N 0.526987 0.834342 -4.262812 0
M  V30 11 N 0.695142 0.298526 -1.994800 0
M  V30 12 N -0.440514 0.845967 -1.530992 0
M  V30 13 C -0.518038 0.631188 -0.208843 0
M  V30 14 C -1.209064 0.770262 1.077117 0
M  V30 15 C -0.844062 1.695328 2.044208 0
M  V30 16 C -1.563621 1.720677 3.245821 0
M  V30 17 O -1.183093 2.652383 4.202513 0
M  V30 18 C -2.598481 0.823730 3.402859 0
M  V30 19 C -2.974051 -0.100939 2.451102 0
M  V30 20 O -4.040584 -0.988223 2.677510 0
M  V30 21 C -2.260775 -0.127670 1.257425 0
M  V30 22 N 0.590573 -0.055299 0.112754 0
M  V30 23 C 1.371375 -0.278565 -0.985047 0
M  V30 24 H 0.135062 -3.099562 2.816854 0
M  V30 25 H 1.033604 -4.728138 2.770529 0
M  V30 26 H 0.439054 -3.923210 1.285962 0
M  V30 27 H 3.047590 -3.706934 2.082008 0
M  V30 28 H 2.236831 -2.285788 2.955714 0
M  V30 29 H 1.225498 -2.433904 0.313161 0
M  V30 30 H 4.069291 -1.508157 -2.474911 0
M  V30 31 H -0.454739 1.132949 -4.182918 0
M  V30 32 H 0.900221 1.039379 -5.188282 0
M  V30 33 H -0.007605 2.350580 1.803268 0
M  V30 34 H -0.705871 2.317769 5.045423 0
M  V30 35 H -3.148208 0.850668 4.335093 0
M  V30 36 H -4.095222 -1.801572 2.061958 0
M  V30 37 H -2.576002 -0.861951 0.530552 0
M  V30 END ATOM
M  V30 BEGIN BOND
M  V30 1 1 1 2
M  V30 2 1 2 3
M  V30 3 1 3 4
M  V30 4 2 4 5
M  V30 5 1 4 6
M  V30 6 2 6 7
M  V30 7 1 7 8
M  V30 8 2 8 9
M  V30 9 1 9 10
M  V30 10 1 9 11
M  V30 11 1 11 12
M  V30 12 2 12 13
M  V30 13 1 13 14
M  V30 14 2 14 15
M  V30 15 1 15 16
M  V30 16 1 16 17
M  V30 17 2 16 18
M  V30 18 1 18 19
M  V30 19 1 19 20
M  V30 20 2 19 21
M  V30 21 1 13 22
M  V30 22 2 22 23
M  V30 23 1 23 6
M  V30 24 1 23 11
M  V30 25 1 21 14
M  V30 26 1 1 24
M  V30 27 1 1 25
M  V30 28 1 1 26
M  V30 29 1 2 27
M  V30 30 1 2 28
M  V30 31 1 3 29
M  V30 32 1 7 30
M  V30 33 1 10 31
M  V30 34 1 10 32
M  V30 35 1 15 33
M  V30 36 1 17 34
M  V30 37 1 18 35
M  V30 38 1 20 36
M  V30 39 1 21 37
M  V30 END BOND
M  V30 END CTAB
M  END
>  <Dataset>  (597) 
ChEMBL_Kinases

>  <Ligand_Instance>  (597) 
nan

>  <PDB_ID>  (597) 
nan

>  <Standardized_SMILES>  (597) 
CCNC(=O)c1cnc(N)n2nc(-c3cc(O)cc(O)c3)nc12

>  <Name>  (597) 
nan

>  <Pocket>  (597) 
nan

>  <ATP_Site>  (597) 
nan

>  <Peripheral>  (597) 
nan

>  <Num_H_Atoms_ProtBoundConf>  (597) 
nan

>  <Num_Resolved_Atoms>  (597) 
nan

>  <Num_Not_Resolved_Atoms>  (597) 
nan

$$$$
CHEMBL4280300
     RDKit          3D

  0  0  0  0  0  0  0  0  0  0999 V3000
M  V30 BEGIN CTAB
M  V30 COUNTS 50 52 0 0 0
M  V30 BEGIN ATOM
M  V30 1 N 1.324964 -2.708253 5.123552 0
M  V30 2 C 1.514492 -2.094726 4.167675 0
M  V30 3 C 1.764913 -1.316560 2.988935 0
M  V30 4 N 3.003760 -0.879736 2.732920 0
M  V30 5 C 3.273087 -0.154338 1.647230 0
M  V30 6 C 4.583255 0.354508 1.298365 0
M  V30 7 N 5.773229 0.166936 2.046655 0
M  V30 8 O 4.687666 1.024539 0.238047 0
M  V30 9 C 2.221523 0.107633 0.830701 0
M  V30 10 N 2.376195 0.876824 -0.365273 0
M  V30 11 C 2.195678 2.290541 -0.375164 0
M  V30 12 C 2.361352 3.021536 -1.529861 0
M  V30 13 C 2.188829 4.409587 -1.572332 0
M  V30 14 C 1.841035 4.982365 -0.369324 0
M  V30 15 C 1.654966 4.316976 0.837688 0
M  V30 16 Br 1.174758 5.208756 2.433688 0
M  V30 17 C 1.848602 2.937354 0.782727 0
M  V30 18 N 0.970576 -0.321975 1.070553 0
M  V30 19 C 0.686526 -1.052343 2.158727 0
M  V30 20 N -0.609105 -1.533572 2.474237 0
M  V30 21 C -1.798853 -1.315332 1.674252 0
M  V30 22 C -1.619556 -1.956703 0.299591 0 CFG=1
M  V30 23 C -1.388724 -3.444357 0.422368 0
M  V30 24 C -2.387902 -4.265178 -0.360305 0
M  V30 25 C -3.765237 -3.712944 -0.048561 0 CFG=2
M  V30 26 N -4.715978 -4.685489 -0.552351 0
M  V30 27 C -3.896346 -2.393701 -0.727547 0
M  V30 28 C -2.670815 -1.553577 -0.670694 0
M  V30 29 H 6.344120 -0.699715 1.893086 0
M  V30 30 H 5.849598 1.016974 2.663501 0
M  V30 31 H 2.627177 0.387105 -1.247628 0
M  V30 32 H 2.633513 2.497283 -2.428960 0
M  V30 33 H 2.311923 4.998511 -2.460451 0
M  V30 34 H 1.690709 6.051199 -0.322804 0
M  V30 35 H 1.704982 2.406984 1.726627 0
M  V30 36 H -0.729725 -2.090430 3.348088 0
M  V30 37 H -2.706715 -1.622719 2.186849 0
M  V30 38 H -1.849797 -0.209757 1.524311 0
M  V30 39 H -0.669799 -1.546010 -0.101892 0
M  V30 40 H -0.379314 -3.768351 0.093782 0
M  V30 41 H -1.458873 -3.751913 1.506932 0
M  V30 42 H -2.392663 -5.301187 0.071469 0
M  V30 43 H -2.119617 -4.235316 -1.417201 0
M  V30 44 H -3.834915 -3.574330 1.051061 0
M  V30 45 H -5.488982 -4.756268 0.135913 0
M  V30 46 H -5.020290 -4.338219 -1.493754 0
M  V30 47 H -4.168203 -2.596580 -1.797362 0
M  V30 48 H -4.809893 -1.865468 -0.328716 0
M  V30 49 H -2.236510 -1.443531 -1.705753 0
M  V30 50 H -2.988093 -0.508469 -0.384331 0
M  V30 END ATOM
M  V30 BEGIN BOND
M  V30 1 3 1 2
M  V30 2 1 2 3
M  V30 3 2 3 4
M  V30 4 1 4 5
M  V30 5 1 5 6
M  V30 6 1 6 7
M  V30 7 2 6 8
M  V30 8 2 5 9
M  V30 9 1 9 10
M  V30 10 1 10 11
M  V30 11 2 11 12
M  V30 12 1 12 13
M  V30 13 2 13 14
M  V30 14 1 14 15
M  V30 15 1 15 16
M  V30 16 2 15 17
M  V30 17 1 9 18
M  V30 18 2 18 19
M  V30 19 1 19 20
M  V30 20 1 20 21
M  V30 21 1 21 22
M  V30 22 1 22 23
M  V30 23 1 23 24
M  V30 24 1 24 25
M  V30 25 1 25 26
M  V30 26 1 25 27
M  V30 27 1 27 28
M  V30 28 1 19 3
M  V30 29 1 28 22
M  V30 30 1 17 11
M  V30 31 1 7 29
M  V30 32 1 7 30
M  V30 33 1 10 31
M  V30 34 1 12 32
M  V30 35 1 13 33
M  V30 36 1 14 34
M  V30 37 1 17 35
M  V30 38 1 20 36
M  V30 39 1 21 37
M  V30 40 1 21 38
M  V30 41 1 22 39 CFG=3
M  V30 42 1 23 40
M  V30 43 1 23 41
M  V30 44 1 24 42
M  V30 45 1 24 43
M  V30 46 1 25 44 CFG=1
M  V30 47 1 26 45
M  V30 48 1 26 46
M  V30 49 1 27 47
M  V30 50 1 27 48
M  V30 51 1 28 49
M  V30 52 1 28 50
M  V30 END BOND
M  V30 END CTAB
M  END
>  <Dataset>  (598) 
ChEMBL_Kinases

>  <Ligand_Instance>  (598) 
nan

>  <PDB_ID>  (598) 
nan

>  <Standardized_SMILES>  (598) 
N#Cc1nc(C(N)=O)c(Nc2cccc(Br)c2)nc1NC[C@H]1CC[C@H](N)CC1

>  <Name>  (598) 
nan

>  <Pocket>  (598) 
nan

>  <ATP_Site>  (598) 
nan

>  <Peripheral>  (598) 
nan

>  <Num_H_Atoms_ProtBoundConf>  (598) 
nan

>  <Num_Resolved_Atoms>  (598) 
nan

>  <Num_Not_Resolved_Atoms>  (598) 
nan

$$$$
CHEMBL4761271
     RDKit          3D

  0  0  0  0  0  0  0  0  0  0999 V3000
M  V30 BEGIN CTAB
M  V30 COUNTS 43 46 0 0 0
M  V30 BEGIN ATOM
M  V30 1 O -1.627990 -3.115342 3.535866 0
M  V30 2 C -0.436367 -2.386866 3.517875 0
M  V30 3 C -0.016563 -2.104479 2.140739 0
M  V30 4 C 0.346222 -1.852452 0.997008 0
M  V30 5 C 0.753903 -1.555411 -0.350316 0
M  V30 6 C 1.425554 -2.533196 -1.093131 0
M  V30 7 C 1.839914 -2.286407 -2.407245 0
M  V30 8 C 1.580797 -1.056056 -2.979389 0
M  V30 9 N 1.954240 -0.780446 -4.227112 0
M  V30 10 C 1.722440 0.400329 -4.829522 0
M  V30 11 C 1.058143 1.324314 -4.049736 0
M  V30 12 C 0.625075 1.131427 -2.731234 0
M  V30 13 C -0.050682 2.245470 -2.073884 0
M  V30 14 C 0.012934 2.935629 -0.879053 0
M  V30 15 N -0.916531 3.888474 -0.865981 0
M  V30 16 N -1.607972 3.867676 -2.011878 0
M  V30 17 C -1.097249 2.874474 -2.762650 0
M  V30 18 C 0.918798 -0.117474 -2.221294 0
M  V30 19 C 0.498390 -0.331553 -0.925284 0
M  V30 20 C -0.614062 -1.082306 4.303807 0
M  V30 21 C 0.700931 -0.569884 4.840525 0
M  V30 22 C 1.111150 -1.466477 5.987039 0
M  V30 23 C 0.613414 -2.857931 5.687203 0
M  V30 24 C 0.621783 -3.182991 4.214483 0
M  V30 25 H -2.407954 -2.550022 3.303101 0
M  V30 26 H 1.657429 -3.518592 -0.697284 0
M  V30 27 H 2.355351 -2.999980 -3.014539 0
M  V30 28 H 2.008563 0.663234 -5.838694 0
M  V30 29 H 0.855206 2.299955 -4.517876 0
M  V30 30 H 0.764407 2.629579 -0.164606 0
M  V30 31 H -2.369350 4.551359 -2.154723 0
M  V30 32 H -1.556661 2.725173 -3.738770 0
M  V30 33 H -0.014187 0.403388 -0.358840 0
M  V30 34 H -1.278297 -1.257779 5.174186 0
M  V30 35 H -1.057907 -0.328441 3.596755 0
M  V30 36 H 0.510983 0.474283 5.167113 0
M  V30 37 H 1.483972 -0.497411 4.057560 0
M  V30 38 H 0.654517 -1.052888 6.911556 0
M  V30 39 H 2.211167 -1.441313 6.153448 0
M  V30 40 H -0.443823 -2.913130 6.026573 0
M  V30 41 H 1.193377 -3.612471 6.280830 0
M  V30 42 H 0.364702 -4.258703 4.123760 0
M  V30 43 H 1.627198 -3.084145 3.762405 0
M  V30 END ATOM
M  V30 BEGIN BOND
M  V30 1 1 1 2
M  V30 2 1 2 3
M  V30 3 3 3 4
M  V30 4 1 4 5
M  V30 5 2 5 6
M  V30 6 1 6 7
M  V30 7 2 7 8
M  V30 8 1 8 9
M  V30 9 2 9 10
M  V30 10 1 10 11
M  V30 11 2 11 12
M  V30 12 1 12 13
M  V30 13 1 13 14
M  V30 14 2 14 15
M  V30 15 1 15 16
M  V30 16 1 16 17
M  V30 17 1 12 18
M  V30 18 2 18 19
M  V30 19 1 2 20
M  V30 20 1 20 21
M  V30 21 1 21 22
M  V30 22 1 22 23
M  V30 23 1 23 24
M  V30 24 1 24 2
M  V30 25 1 19 5
M  V30 26 1 18 8
M  V30 27 2 17 13
M  V30 28 1 1 25
M  V30 29 1 6 26
M  V30 30 1 7 27
M  V30 31 1 10 28
M  V30 32 1 11 29
M  V30 33 1 14 30
M  V30 34 1 16 31
M  V30 35 1 17 32
M  V30 36 1 19 33
M  V30 37 1 20 34
M  V30 38 1 20 35
M  V30 39 1 21 36
M  V30 40 1 21 37
M  V30 41 1 22 38
M  V30 42 1 22 39
M  V30 43 1 23 40
M  V30 44 1 23 41
M  V30 45 1 24 42
M  V30 46 1 24 43
M  V30 END BOND
M  V30 END CTAB
M  END
>  <Dataset>  (599) 
ChEMBL_Kinases

>  <Ligand_Instance>  (599) 
nan

>  <PDB_ID>  (599) 
nan

>  <Standardized_SMILES>  (599) 
OC1(C#Cc2ccc3nccc(-c4cn[nH]c4)c3c2)CCCCC1

>  <Name>  (599) 
nan

>  <Pocket>  (599) 
nan

>  <ATP_Site>  (599) 
nan

>  <Peripheral>  (599) 
nan

>  <Num_H_Atoms_ProtBoundConf>  (599) 
nan

>  <Num_Resolved_Atoms>  (599) 
nan

>  <Num_Not_Resolved_Atoms>  (599) 
nan

$$$$
CHEMBL4761297
     RDKit          3D

  0  0  0  0  0  0  0  0  0  0999 V3000
M  V30 BEGIN CTAB
M  V30 COUNTS 76 81 0 0 0
M  V30 BEGIN ATOM
M  V30 1 C -1.857401 -5.590745 3.184660 0
M  V30 2 N -1.930893 -4.239705 2.773236 0
M  V30 3 C -1.066997 -3.302237 3.242590 0
M  V30 4 O -0.124496 -3.534581 4.038126 0
M  V30 5 C -0.957491 -1.840616 2.995198 0
M  V30 6 S -0.208803 -0.278902 3.198651 0
M  V30 7 C -1.692004 0.818817 2.924837 0
M  V30 8 C -1.567753 2.295655 3.106786 0
M  V30 9 C -2.693366 3.087220 3.013289 0
M  V30 10 C -2.678763 4.448147 3.139142 0
M  V30 11 N -1.448603 5.004560 3.369188 0
M  V30 12 C -0.359283 4.206964 3.457005 0
M  V30 13 N 0.845101 4.952616 3.676475 0
M  V30 14 C 1.258575 5.169231 2.341525 0
M  V30 15 O 0.313247 4.566367 1.675201 0
M  V30 16 C 2.271080 5.767821 1.423684 0
M  V30 17 C 1.843160 6.122837 0.011998 0
M  V30 18 C 2.586527 4.873659 0.179932 0
M  V30 19 C -0.328666 2.838379 3.337911 0
M  V30 20 N -2.473805 -0.013847 2.716666 0
M  V30 21 C -2.324428 -1.338311 2.701467 0
M  V30 22 O -3.451212 -1.913741 2.433567 0
M  V30 23 C -4.710865 -2.096847 2.128823 0
M  V30 24 C -4.994262 -1.538828 0.673279 0
M  V30 25 O -4.124461 -2.248969 -0.115699 0
M  V30 26 C -4.106965 -2.000476 -1.462326 0
M  V30 27 C -3.015255 -2.795107 -2.067273 0
M  V30 28 C -2.054662 -3.463814 -2.587489 0
M  V30 29 C -0.847542 -4.334070 -3.232302 0
M  V30 30 C -1.730632 -5.114174 -3.779067 0
M  V30 31 C -0.604301 -5.770605 -4.497264 0
M  V30 32 C 0.758841 -5.374628 -4.350213 0
M  V30 33 C 1.044381 -4.288866 -3.462259 0
M  V30 34 C 0.034462 -3.551800 -2.683531 0
M  V30 35 C 0.737753 -2.544090 -1.910099 0
M  V30 36 N 2.128561 -2.621872 -2.316789 0
M  V30 37 C 3.210981 -1.772512 -2.006638 0
M  V30 38 C 3.944645 -2.193672 -0.660346 0
M  V30 39 C 4.935000 -1.046706 -0.395269 0
M  V30 40 C 5.227117 -0.336532 -1.725299 0
M  V30 41 O 6.111621 -0.115986 -2.591441 0
M  V30 42 N 4.073211 0.419768 -2.271633 0
M  V30 43 C 2.957774 -0.325746 -1.774603 0
M  V30 44 O 1.847106 -0.374882 -1.214725 0
M  V30 45 C 2.405508 -3.708824 -3.246818 0
M  V30 46 O 3.509608 -4.092402 -3.761408 0
M  V30 47 H -1.148399 -5.706215 4.030401 0
M  V30 48 H -2.849934 -5.974870 3.575808 0
M  V30 49 H -1.573013 -6.272906 2.345348 0
M  V30 50 H -2.631755 -3.954935 2.096214 0
M  V30 51 H -3.612406 2.598444 2.831520 0
M  V30 52 H -3.567522 5.052785 3.072783 0
M  V30 53 H 1.614979 5.436031 4.245557 0
M  V30 54 H 3.118521 6.328209 1.832969 0
M  V30 55 H 2.254294 7.027434 -0.465087 0
M  V30 56 H 0.730910 6.075652 -0.107784 0
M  V30 57 H 3.647460 4.824901 -0.126901 0
M  V30 58 H 2.051485 3.912343 0.140406 0
M  V30 59 H 0.570018 2.271957 3.412475 0
M  V30 60 H -5.473226 -1.623902 2.763239 0
M  V30 61 H -4.978245 -3.159524 2.009459 0
M  V30 62 H -4.810732 -0.453595 0.701178 0
M  V30 63 H -6.036167 -1.842041 0.485956 0
M  V30 64 H -5.072532 -2.298922 -1.960298 0
M  V30 65 H -3.911784 -0.958900 -1.729720 0
M  V30 66 H -2.624961 -5.552117 -4.029592 0
M  V30 67 H -0.608185 -6.616252 -5.218687 0
M  V30 68 H 1.602836 -5.870919 -4.895470 0
M  V30 69 H 0.637236 -2.665993 -0.797930 0
M  V30 70 H 0.279463 -1.526265 -2.173142 0
M  V30 71 H 4.062353 -1.975127 -2.677825 0
M  V30 72 H 3.253143 -2.240216 0.152608 0
M  V30 73 H 4.508209 -3.101131 -0.797474 0
M  V30 74 H 4.507258 -0.296078 0.258059 0
M  V30 75 H 5.894746 -1.473692 -0.097213 0
M  V30 76 H 3.707204 1.248065 -2.820149 0
M  V30 END ATOM
M  V30 BEGIN BOND
M  V30 1 1 1 2
M  V30 2 1 2 3
M  V30 3 2 3 4
M  V30 4 1 3 5
M  V30 5 1 5 6
M  V30 6 1 6 7
M  V30 7 1 7 8
M  V30 8 2 8 9
M  V30 9 1 9 10
M  V30 10 2 10 11
M  V30 11 1 11 12
M  V30 12 1 12 13
M  V30 13 1 13 14
M  V30 14 2 14 15
M  V30 15 1 14 16
M  V30 16 1 16 17
M  V30 17 1 17 18
M  V30 18 2 12 19
M  V30 19 2 7 20
M  V30 20 1 20 21
M  V30 21 1 21 22
M  V30 22 1 22 23
M  V30 23 1 23 24
M  V30 24 1 24 25
M  V30 25 1 25 26
M  V30 26 1 26 27
M  V30 27 3 27 28
M  V30 28 1 28 29
M  V30 29 2 29 30
M  V30 30 1 30 31
M  V30 31 2 31 32
M  V30 32 1 32 33
M  V30 33 2 33 34
M  V30 34 1 34 35
M  V30 35 1 35 36
M  V30 36 1 36 37
M  V30 37 1 37 38
M  V30 38 1 38 39
M  V30 39 1 39 40
M  V30 40 2 40 41
M  V30 41 1 40 42
M  V30 42 1 42 43
M  V30 43 2 43 44
M  V30 44 1 36 45
M  V30 45 2 45 46
M  V30 46 2 21 5
M  V30 47 1 34 29
M  V30 48 1 43 37
M  V30 49 1 19 8
M  V30 50 1 45 33
M  V30 51 1 18 16
M  V30 52 1 1 47
M  V30 53 1 1 48
M  V30 54 1 1 49
M  V30 55 1 2 50
M  V30 56 1 9 51
M  V30 57 1 10 52
M  V30 58 1 13 53
M  V30 59 1 16 54
M  V30 60 1 17 55
M  V30 61 1 17 56
M  V30 62 1 18 57
M  V30 63 1 18 58
M  V30 64 1 19 59
M  V30 65 1 23 60
M  V30 66 1 23 61
M  V30 67 1 24 62
M  V30 68 1 24 63
M  V30 69 1 26 64
M  V30 70 1 26 65
M  V30 71 1 30 66
M  V30 72 1 31 67
M  V30 73 1 32 68
M  V30 74 1 35 69
M  V30 75 1 35 70
M  V30 76 1 37 71
M  V30 77 1 38 72
M  V30 78 1 38 73
M  V30 79 1 39 74
M  V30 80 1 39 75
M  V30 81 1 42 76
M  V30 END BOND
M  V30 END CTAB
M  END
>  <Dataset>  (600) 
ChEMBL_Kinases

>  <Ligand_Instance>  (600) 
nan

>  <PDB_ID>  (600) 
nan

>  <Standardized_SMILES>  (600) 
CNC(=O)c1sc(-c2ccnc(NC(=O)C3CC3)c2)nc1OCCOCC#Cc1cccc2c1CN(C1CCC(=O)NC1=O)C2=O

>  <Name>  (600) 
nan

>  <Pocket>  (600) 
nan

>  <ATP_Site>  (600) 
nan

>  <Peripheral>  (600) 
nan

>  <Num_H_Atoms_ProtBoundConf>  (600) 
nan

>  <Num_Resolved_Atoms>  (600) 
nan

>  <Num_Not_Resolved_Atoms>  (600) 
nan

$$$$
CHEMBL4761315
     RDKit          3D

  0  0  0  0  0  0  0  0  0  0999 V3000
M  V30 BEGIN CTAB
M  V30 COUNTS 38 41 0 0 0
M  V30 BEGIN ATOM
M  V30 1 C -1.122617 -2.805958 5.235835 0
M  V30 2 C 0.270540 -2.328655 5.436535 0
M  V30 3 C 0.966414 -2.686531 6.561091 0
M  V30 4 N 2.240645 -2.323956 6.871746 0
M  V30 5 C 2.869588 -1.538044 5.982456 0
M  V30 6 C 2.147238 -1.182779 4.842989 0
M  V30 7 S 2.755780 -0.096851 3.423374 0
M  V30 8 C 1.153672 -0.273482 2.553102 0
M  V30 9 N 0.952703 0.384438 1.275679 0
M  V30 10 C 1.334147 -0.441934 0.188776 0
M  V30 11 O 1.801877 -1.609737 0.140414 0
M  V30 12 C 1.184680 0.099167 -1.191791 0 CFG=2
M  V30 13 C 1.252467 1.565538 -1.427734 0
M  V30 14 C -0.063451 0.885479 -1.511652 0 CFG=1
M  V30 15 C -0.715595 0.710551 -2.850740 0
M  V30 16 C -2.066697 0.833076 -3.042999 0
M  V30 17 C -2.706173 0.682088 -4.246709 0
M  V30 18 C -1.934580 0.382900 -5.357392 0
M  V30 19 C -0.557956 0.250889 -5.199689 0
M  V30 20 C 0.052244 0.410962 -3.965900 0
M  V30 21 C 0.402521 -1.038621 3.317184 0
M  V30 22 C 0.889492 -1.520689 4.502039 0
M  V30 23 H -1.371729 -2.671324 4.163050 0
M  V30 24 H -1.213680 -3.902528 5.479897 0
M  V30 25 H -1.822389 -2.236981 5.889803 0
M  V30 26 H 0.458575 -3.333073 7.299688 0
M  V30 27 H 3.877875 -1.169927 6.088766 0
M  V30 28 H 0.587432 1.322615 1.095695 0
M  V30 29 H 1.490151 -0.565612 -2.037446 0
M  V30 30 H 1.482228 2.195259 -0.538637 0
M  V30 31 H 1.828830 1.882374 -2.313384 0
M  V30 32 H -0.776610 1.121900 -0.698574 0
M  V30 33 H -2.638025 1.067506 -2.151931 0
M  V30 34 H -3.775148 0.788377 -4.349041 0
M  V30 35 H -2.377653 0.247656 -6.354501 0
M  V30 36 H 0.069142 0.013834 -6.069864 0
M  V30 37 H 1.138823 0.297889 -3.888688 0
M  V30 38 H -0.590045 -1.236952 2.930734 0
M  V30 END ATOM
M  V30 BEGIN BOND
M  V30 1 1 1 2
M  V30 2 2 2 3
M  V30 3 1 3 4
M  V30 4 2 4 5
M  V30 5 1 5 6
M  V30 6 1 6 7
M  V30 7 1 7 8
M  V30 8 1 8 9
M  V30 9 1 9 10
M  V30 10 2 10 11
M  V30 11 1 10 12
M  V30 12 1 12 13
M  V30 13 1 13 14
M  V30 14 1 14 15
M  V30 15 2 15 16
M  V30 16 1 16 17
M  V30 17 2 17 18
M  V30 18 1 18 19
M  V30 19 2 19 20
M  V30 20 2 8 21
M  V30 21 1 21 22
M  V30 22 1 22 2
M  V30 23 2 22 6
M  V30 24 1 14 12
M  V30 25 1 20 15
M  V30 26 1 1 23
M  V30 27 1 1 24
M  V30 28 1 1 25
M  V30 29 1 3 26
M  V30 30 1 5 27
M  V30 31 1 9 28
M  V30 32 1 12 29 CFG=3
M  V30 33 1 13 30
M  V30 34 1 13 31
M  V30 35 1 14 32 CFG=1
M  V30 36 1 16 33
M  V30 37 1 17 34
M  V30 38 1 18 35
M  V30 39 1 19 36
M  V30 40 1 20 37
M  V30 41 1 21 38
M  V30 END BOND
M  V30 END CTAB
M  END
>  <Dataset>  (601) 
ChEMBL_Kinases

>  <Ligand_Instance>  (601) 
nan

>  <PDB_ID>  (601) 
nan

>  <Standardized_SMILES>  (601) 
Cc1cncc2sc(NC(=O)[C@@H]3C[C@H]3c3ccccc3)cc12

>  <Name>  (601) 
nan

>  <Pocket>  (601) 
nan

>  <ATP_Site>  (601) 
nan

>  <Peripheral>  (601) 
nan

>  <Num_H_Atoms_ProtBoundConf>  (601) 
nan

>  <Num_Resolved_Atoms>  (601) 
nan

>  <Num_Not_Resolved_Atoms>  (601) 
nan

$$$$
CHEMBL4761327
     RDKit          3D

  0  0  0  0  0  0  0  0  0  0999 V3000
M  V30 BEGIN CTAB
M  V30 COUNTS 40 43 0 0 0
M  V30 BEGIN ATOM
M  V30 1 O 1.998785 -4.003879 3.570814 0
M  V30 2 C 1.783006 -2.657572 3.365234 0
M  V30 3 C 1.132075 -2.389595 2.080289 0
M  V30 4 C 0.591314 -2.152360 1.026821 0
M  V30 5 C -0.045141 -1.870735 -0.232470 0
M  V30 6 C -0.373800 -2.872582 -1.131446 0
M  V30 7 C -0.985731 -2.630937 -2.348701 0
M  V30 8 C -1.283067 -1.323821 -2.682165 0
M  V30 9 N -1.874447 -1.023013 -3.851950 0
M  V30 10 C -2.173806 0.240467 -4.207002 0
M  V30 11 C -1.834610 1.214530 -3.290799 0
M  V30 12 C -1.218404 0.990590 -2.052291 0
M  V30 13 C -0.958153 2.162164 -1.225448 0
M  V30 14 C -0.328767 3.271173 -1.803247 0
M  V30 15 N -0.183546 4.238916 -0.904190 0
M  V30 16 N -0.686332 3.818500 0.232114 0
M  V30 17 C -1.173370 2.551451 0.085647 0
M  V30 18 C -0.953363 -0.335997 -1.783551 0
M  V30 19 C -0.343091 -0.566567 -0.567918 0
M  V30 20 C 3.095284 -1.933336 3.508836 0
M  V30 21 C 2.822247 -0.695950 4.313028 0
M  V30 22 C 1.437713 -0.788229 4.873948 0
M  V30 23 C 0.885910 -2.134215 4.464396 0
M  V30 24 H 2.609211 -4.085095 4.358024 0
M  V30 25 H -0.131172 -3.894511 -0.849495 0
M  V30 26 H -1.226967 -3.438520 -3.024368 0
M  V30 27 H -2.647794 0.515463 -5.137789 0
M  V30 28 H -2.077960 2.246687 -3.578308 0
M  V30 29 H 0.046377 3.476509 -2.808483 0
M  V30 30 H -0.776343 4.251178 1.172343 0
M  V30 31 H -1.654930 1.871968 0.756494 0
M  V30 32 H -0.090511 0.216758 0.116191 0
M  V30 33 H 3.448872 -1.626531 2.496869 0
M  V30 34 H 3.892967 -2.584875 3.955288 0
M  V30 35 H 2.874990 0.233237 3.700704 0
M  V30 36 H 3.579616 -0.640422 5.103009 0
M  V30 37 H 1.469395 -0.684874 5.984861 0
M  V30 38 H 0.773140 0.030622 4.517302 0
M  V30 39 H 0.952915 -2.801693 5.353132 0
M  V30 40 H -0.169032 -2.043352 4.150105 0
M  V30 END ATOM
M  V30 BEGIN BOND
M  V30 1 1 1 2
M  V30 2 1 2 3
M  V30 3 3 3 4
M  V30 4 1 4 5
M  V30 5 2 5 6
M  V30 6 1 6 7
M  V30 7 2 7 8
M  V30 8 1 8 9
M  V30 9 2 9 10
M  V30 10 1 10 11
M  V30 11 2 11 12
M  V30 12 1 12 13
M  V30 13 1 13 14
M  V30 14 2 14 15
M  V30 15 1 15 16
M  V30 16 1 16 17
M  V30 17 1 12 18
M  V30 18 2 18 19
M  V30 19 1 2 20
M  V30 20 1 20 21
M  V30 21 1 21 22
M  V30 22 1 22 23
M  V30 23 1 23 2
M  V30 24 1 19 5
M  V30 25 1 18 8
M  V30 26 2 17 13
M  V30 27 1 1 24
M  V30 28 1 6 25
M  V30 29 1 7 26
M  V30 30 1 10 27
M  V30 31 1 11 28
M  V30 32 1 14 29
M  V30 33 1 16 30
M  V30 34 1 17 31
M  V30 35 1 19 32
M  V30 36 1 20 33
M  V30 37 1 20 34
M  V30 38 1 21 35
M  V30 39 1 21 36
M  V30 40 1 22 37
M  V30 41 1 22 38
M  V30 42 1 23 39
M  V30 43 1 23 40
M  V30 END BOND
M  V30 END CTAB
M  END
>  <Dataset>  (602) 
ChEMBL_Kinases

>  <Ligand_Instance>  (602) 
nan

>  <PDB_ID>  (602) 
nan

>  <Standardized_SMILES>  (602) 
OC1(C#Cc2ccc3nccc(-c4cn[nH]c4)c3c2)CCCC1

>  <Name>  (602) 
nan

>  <Pocket>  (602) 
nan

>  <ATP_Site>  (602) 
nan

>  <Peripheral>  (602) 
nan

>  <Num_H_Atoms_ProtBoundConf>  (602) 
nan

>  <Num_Resolved_Atoms>  (602) 
nan

>  <Num_Not_Resolved_Atoms>  (602) 
nan

$$$$
CHEMBL4761372
     RDKit          3D

  0  0  0  0  0  0  0  0  0  0999 V3000
M  V30 BEGIN CTAB
M  V30 COUNTS 82 87 0 0 0
M  V30 BEGIN ATOM
M  V30 1 C -0.761768 -9.005152 2.500030 0
M  V30 2 N -0.686937 -7.753922 1.805895 0
M  V30 3 C 0.231396 -7.587126 0.754226 0
M  V30 4 O 1.042491 -8.438559 0.317230 0
M  V30 5 C 0.264406 -6.272953 0.073825 0
M  V30 6 S 1.444783 -6.040776 -1.288010 0
M  V30 7 C 0.874320 -4.251296 -1.565530 0
M  V30 8 C 1.532685 -3.457823 -2.647532 0
M  V30 9 C 1.080351 -2.189583 -2.806413 0
M  V30 10 C 1.606692 -1.352218 -3.766922 0
M  V30 11 N 2.605560 -1.857837 -4.552659 0
M  V30 12 C 3.019460 -3.120289 -4.357551 0
M  V30 13 N 4.074929 -3.535212 -5.243090 0
M  V30 14 C 5.300516 -3.233411 -4.624986 0
M  V30 15 O 5.177493 -2.689193 -3.476196 0
M  V30 16 C 6.680589 -3.466754 -5.137185 0
M  V30 17 C 7.615138 -2.323560 -4.784051 0
M  V30 18 C 7.798743 -3.693740 -4.213613 0
M  V30 19 C 2.524075 -3.990649 -3.412801 0
M  V30 20 N 0.063671 -4.143581 -0.762045 0
M  V30 21 C -0.362726 -5.024751 0.122572 0
M  V30 22 O -1.338672 -4.924159 1.103544 0
M  V30 23 C -2.106647 -3.767971 1.355203 0
M  V30 24 C -1.258071 -2.590276 1.730290 0
M  V30 25 C -2.007401 -1.336179 2.024923 0
M  V30 26 C -2.845748 -0.795597 0.922195 0
M  V30 27 C -2.110718 -0.443815 -0.337794 0
M  V30 28 C -1.051297 0.585287 -0.138555 0
M  V30 29 O -1.432130 1.816219 0.354706 0
M  V30 30 C -2.256813 2.719559 -0.211919 0
M  V30 31 C -2.973741 2.812914 -1.372997 0
M  V30 32 C -3.776695 3.851230 -1.775863 0
M  V30 33 C -3.869781 4.916286 -0.914784 0
M  V30 34 C -3.189059 4.917490 0.273291 0
M  V30 35 C -2.385534 3.834127 0.633877 0
M  V30 36 C -1.857549 4.252062 1.952204 0
M  V30 37 O -1.083662 3.562356 2.636318 0
M  V30 38 N -2.337633 5.527905 2.338474 0
M  V30 39 C -2.000403 6.210065 3.578677 0
M  V30 40 C -2.458199 5.493778 4.798774 0
M  V30 41 C -1.380630 4.973969 5.686609 0
M  V30 42 C -0.210901 5.873346 5.839388 0
M  V30 43 O 0.354408 6.116006 6.948927 0
M  V30 44 N 0.334076 6.520380 4.682010 0
M  V30 45 C -0.559654 6.575147 3.579526 0
M  V30 46 O -0.157726 6.965090 2.455132 0
M  V30 47 C -3.183857 5.962628 1.282426 0
M  V30 48 O -3.786525 7.064841 1.289797 0
M  V30 49 H -1.408948 -9.672815 1.855728 0
M  V30 50 H -1.264251 -8.924600 3.486608 0
M  V30 51 H 0.183405 -9.544513 2.607874 0
M  V30 52 H -1.328382 -7.006857 2.114958 0
M  V30 53 H 0.292045 -1.811782 -2.175299 0
M  V30 54 H 1.204603 -0.350773 -3.847546 0
M  V30 55 H 4.166056 -3.990231 -6.200257 0
M  V30 56 H 6.730821 -3.924500 -6.126380 0
M  V30 57 H 7.298190 -1.560571 -4.043774 0
M  V30 58 H 8.250129 -1.937096 -5.602457 0
M  V30 59 H 8.695217 -4.220932 -4.633712 0
M  V30 60 H 7.682039 -3.855779 -3.130054 0
M  V30 61 H 2.881095 -5.002550 -3.283162 0
M  V30 62 H -2.846796 -4.045427 2.135634 0
M  V30 63 H -2.691599 -3.587147 0.424882 0
M  V30 64 H -0.485251 -2.486812 0.964352 0
M  V30 65 H -0.752765 -2.882205 2.698539 0
M  V30 66 H -2.703074 -1.497242 2.900152 0
M  V30 67 H -1.318874 -0.536893 2.391500 0
M  V30 68 H -3.689321 -1.457617 0.637770 0
M  V30 69 H -3.325420 0.133805 1.295422 0
M  V30 70 H -2.853488 -0.096942 -1.066866 0
M  V30 71 H -1.634389 -1.336743 -0.806538 0
M  V30 72 H -0.472495 0.780613 -1.083699 0
M  V30 73 H -0.269662 0.089216 0.523699 0
M  V30 74 H -2.863328 1.973521 -2.023341 0
M  V30 75 H -4.276455 3.773018 -2.719050 0
M  V30 76 H -4.498395 5.735012 -1.219271 0
M  V30 77 H -2.554501 7.197330 3.540371 0
M  V30 78 H -3.092944 6.180875 5.433587 0
M  V30 79 H -3.137456 4.640190 4.584456 0
M  V30 80 H -0.963329 3.993224 5.344288 0
M  V30 81 H -1.746136 4.783830 6.730114 0
M  V30 82 H 1.291972 6.925927 4.615621 0
M  V30 END ATOM
M  V30 BEGIN BOND
M  V30 1 1 1 2
M  V30 2 1 2 3
M  V30 3 2 3 4
M  V30 4 1 3 5
M  V30 5 1 5 6
M  V30 6 1 6 7
M  V30 7 1 7 8
M  V30 8 2 8 9
M  V30 9 1 9 10
M  V30 10 2 10 11
M  V30 11 1 11 12
M  V30 12 1 12 13
M  V30 13 1 13 14
M  V30 14 2 14 15
M  V30 15 1 14 16
M  V30 16 1 16 17
M  V30 17 1 17 18
M  V30 18 2 12 19
M  V30 19 2 7 20
M  V30 20 1 20 21
M  V30 21 1 21 22
M  V30 22 1 22 23
M  V30 23 1 23 24
M  V30 24 1 24 25
M  V30 25 1 25 26
M  V30 26 1 26 27
M  V30 27 1 27 28
M  V30 28 1 28 29
M  V30 29 1 29 30
M  V30 30 2 30 31
M  V30 31 1 31 32
M  V30 32 2 32 33
M  V30 33 1 33 34
M  V30 34 2 34 35
M  V30 35 1 35 36
M  V30 36 2 36 37
M  V30 37 1 36 38
M  V30 38 1 38 39
M  V30 39 1 39 40
M  V30 40 1 40 41
M  V30 41 1 41 42
M  V30 42 2 42 43
M  V30 43 1 42 44
M  V30 44 1 44 45
M  V30 45 2 45 46
M  V30 46 1 38 47
M  V30 47 2 47 48
M  V30 48 2 21 5
M  V30 49 1 35 30
M  V30 50 1 45 39
M  V30 51 1 19 8
M  V30 52 1 47 34
M  V30 53 1 18 16
M  V30 54 1 1 49
M  V30 55 1 1 50
M  V30 56 1 1 51
M  V30 57 1 2 52
M  V30 58 1 9 53
M  V30 59 1 10 54
M  V30 60 1 13 55
M  V30 61 1 16 56
M  V30 62 1 17 57
M  V30 63 1 17 58
M  V30 64 1 18 59
M  V30 65 1 18 60
M  V30 66 1 19 61
M  V30 67 1 23 62
M  V30 68 1 23 63
M  V30 69 1 24 64
M  V30 70 1 24 65
M  V30 71 1 25 66
M  V30 72 1 25 67
M  V30 73 1 26 68
M  V30 74 1 26 69
M  V30 75 1 27 70
M  V30 76 1 27 71
M  V30 77 1 28 72
M  V30 78 1 28 73
M  V30 79 1 31 74
M  V30 80 1 32 75
M  V30 81 1 33 76
M  V30 82 1 39 77
M  V30 83 1 40 78
M  V30 84 1 40 79
M  V30 85 1 41 80
M  V30 86 1 41 81
M  V30 87 1 44 82
M  V30 END BOND
M  V30 END CTAB
M  END
>  <Dataset>  (603) 
ChEMBL_Kinases

>  <Ligand_Instance>  (603) 
nan

>  <PDB_ID>  (603) 
nan

>  <Standardized_SMILES>  (603) 
CNC(=O)c1sc(-c2ccnc(NC(=O)C3CC3)c2)nc1OCCCCCCOc1cccc2c1C(=O)N(C1CCC(=O)NC1=O)C2=O

>  <Name>  (603) 
nan

>  <Pocket>  (603) 
nan

>  <ATP_Site>  (603) 
nan

>  <Peripheral>  (603) 
nan

>  <Num_H_Atoms_ProtBoundConf>  (603) 
nan

>  <Num_Resolved_Atoms>  (603) 
nan

>  <Num_Not_Resolved_Atoms>  (603) 
nan

$$$$
CHEMBL476141
     RDKit          3D

  0  0  0  0  0  0  0  0  0  0999 V3000
M  V30 BEGIN CTAB
M  V30 COUNTS 67 71 0 0 0
M  V30 BEGIN ATOM
M  V30 1 C 4.327008 -4.087313 3.006858 0
M  V30 2 C 4.031553 -3.002888 2.038632 0
M  V30 3 C 4.956391 -2.456561 1.169777 0
M  V30 4 C 4.616150 -1.444249 0.295197 0
M  V30 5 C 3.339937 -0.925830 0.244193 0
M  V30 6 N 2.875958 0.113806 -0.608977 0
M  V30 7 C 2.264248 0.107706 -1.891347 0
M  V30 8 O 2.122616 -1.073377 -2.320603 0
M  V30 9 C 1.894909 1.380791 -2.513801 0
M  V30 10 C 2.188234 2.654803 -2.022112 0
M  V30 11 C 1.721754 3.718472 -2.769127 0
M  V30 12 N 1.021559 3.573735 -3.907673 0
M  V30 13 C 0.733112 2.349636 -4.389443 0
M  V30 14 N -0.019692 2.313603 -5.581874 0
M  V30 15 C -0.527058 3.541305 -6.161624 0
M  V30 16 C -2.038813 3.496795 -5.902247 0
M  V30 17 C -2.575987 2.327185 -6.693200 0
M  V30 18 C -1.918981 1.034862 -6.333928 0
M  V30 19 C -0.394834 1.144030 -6.364040 0
M  V30 20 C 1.163736 1.240384 -3.703339 0
M  V30 21 C 2.450941 -1.514045 1.141595 0
M  V30 22 C 2.729043 -2.538816 2.049357 0
M  V30 23 C 1.617851 -2.986751 2.883907 0
M  V30 24 C 0.809026 -1.961511 3.410155 0
M  V30 25 C -0.282033 -2.171142 4.219857 0
M  V30 26 C -0.623516 -3.468353 4.551808 0
M  V30 27 C -1.772481 -3.774497 5.388576 0
M  V30 28 O -2.182692 -4.831725 5.943906 0
M  V30 29 N -2.713400 -2.736658 5.725692 0
M  V30 30 C -3.797710 -3.228584 6.573351 0
M  V30 31 C -4.686851 -1.999020 6.828213 0
M  V30 32 C -5.906432 -2.197478 7.687082 0
M  V30 33 C -4.740402 -1.408036 8.168403 0
M  V30 34 C 0.163680 -4.480890 4.040832 0
M  V30 35 C 1.266588 -4.289235 3.222572 0
M  V30 36 H 5.386212 -4.002171 3.395857 0
M  V30 37 H 4.272672 -5.107639 2.565208 0
M  V30 38 H 3.720661 -3.982141 3.941840 0
M  V30 39 H 5.964754 -2.842362 1.189815 0
M  V30 40 H 5.339224 -1.013685 -0.388002 0
M  V30 41 H 3.090369 0.980549 -0.057902 0
M  V30 42 H 2.749648 2.683221 -1.107412 0
M  V30 43 H 1.952387 4.691597 -2.385100 0
M  V30 44 H -0.070790 4.457839 -5.738899 0
M  V30 45 H -0.361487 3.493915 -7.253119 0
M  V30 46 H -2.211288 3.403235 -4.811912 0
M  V30 47 H -2.526170 4.423578 -6.254619 0
M  V30 48 H -3.664234 2.200795 -6.489674 0
M  V30 49 H -2.386291 2.551277 -7.762186 0
M  V30 50 H -2.230098 0.274204 -7.090205 0
M  V30 51 H -2.161048 0.712274 -5.305787 0
M  V30 52 H 0.009449 0.240417 -5.915302 0
M  V30 53 H -0.053692 1.297785 -7.421925 0
M  V30 54 H 0.927709 0.251416 -4.105428 0
M  V30 55 H 1.433790 -1.122431 1.118609 0
M  V30 56 H 1.044741 -0.919463 3.177029 0
M  V30 57 H -0.840904 -1.318640 4.575211 0
M  V30 58 H -2.626542 -1.738846 5.393913 0
M  V30 59 H -3.434997 -3.648822 7.531849 0
M  V30 60 H -4.389069 -3.970582 5.994390 0
M  V30 61 H -4.879090 -1.334796 5.968864 0
M  V30 62 H -6.103041 -3.230613 8.047424 0
M  V30 63 H -6.842524 -1.645368 7.473566 0
M  V30 64 H -4.854961 -0.307663 8.282694 0
M  V30 65 H -4.196231 -1.848987 9.031296 0
M  V30 66 H -0.060209 -5.513930 4.271822 0
M  V30 67 H 1.898399 -5.034335 2.806228 0
M  V30 END ATOM
M  V30 BEGIN BOND
M  V30 1 1 1 2
M  V30 2 2 2 3
M  V30 3 1 3 4
M  V30 4 2 4 5
M  V30 5 1 5 6
M  V30 6 1 6 7
M  V30 7 2 7 8
M  V30 8 1 7 9
M  V30 9 2 9 10
M  V30 10 1 10 11
M  V30 11 2 11 12
M  V30 12 1 12 13
M  V30 13 1 13 14
M  V30 14 1 14 15
M  V30 15 1 15 16
M  V30 16 1 16 17
M  V30 17 1 17 18
M  V30 18 1 18 19
M  V30 19 2 13 20
M  V30 20 1 5 21
M  V30 21 2 21 22
M  V30 22 1 22 23
M  V30 23 2 23 24
M  V30 24 1 24 25
M  V30 25 2 25 26
M  V30 26 1 26 27
M  V30 27 2 27 28
M  V30 28 1 27 29
M  V30 29 1 29 30
M  V30 30 1 30 31
M  V30 31 1 31 32
M  V30 32 1 32 33
M  V30 33 1 26 34
M  V30 34 2 34 35
M  V30 35 1 22 2
M  V30 36 1 35 23
M  V30 37 1 20 9
M  V30 38 1 33 31
M  V30 39 1 19 14
M  V30 40 1 1 36
M  V30 41 1 1 37
M  V30 42 1 1 38
M  V30 43 1 3 39
M  V30 44 1 4 40
M  V30 45 1 6 41
M  V30 46 1 10 42
M  V30 47 1 11 43
M  V30 48 1 15 44
M  V30 49 1 15 45
M  V30 50 1 16 46
M  V30 51 1 16 47
M  V30 52 1 17 48
M  V30 53 1 17 49
M  V30 54 1 18 50
M  V30 55 1 18 51
M  V30 56 1 19 52
M  V30 57 1 19 53
M  V30 58 1 20 54
M  V30 59 1 21 55
M  V30 60 1 24 56
M  V30 61 1 25 57
M  V30 62 1 29 58
M  V30 63 1 30 59
M  V30 64 1 30 60
M  V30 65 1 31 61
M  V30 66 1 32 62
M  V30 67 1 32 63
M  V30 68 1 33 64
M  V30 69 1 33 65
M  V30 70 1 34 66
M  V30 71 1 35 67
M  V30 END BOND
M  V30 END CTAB
M  END
>  <Dataset>  (604) 
ChEMBL_Kinases

>  <Ligand_Instance>  (604) 
nan

>  <PDB_ID>  (604) 
nan

>  <Standardized_SMILES>  (604) 
Cc1ccc(NC(=O)c2ccnc(N3CCCCC3)c2)cc1-c1ccc(C(=O)NCC2CC2)cc1

>  <Name>  (604) 
nan

>  <Pocket>  (604) 
nan

>  <ATP_Site>  (604) 
nan

>  <Peripheral>  (604) 
nan

>  <Num_H_Atoms_ProtBoundConf>  (604) 
nan

>  <Num_Resolved_Atoms>  (604) 
nan

>  <Num_Not_Resolved_Atoms>  (604) 
nan

$$$$
CHEMBL4761439
     RDKit          3D

  0  0  0  0  0  0  0  0  0  0999 V3000
M  V30 BEGIN CTAB
M  V30 COUNTS 52 55 0 0 0
M  V30 BEGIN ATOM
M  V30 1 O -0.491718 -2.840594 -0.603482 0
M  V30 2 C -1.111520 -3.679004 0.139186 0
M  V30 3 N -0.530657 -3.773843 1.420363 0
M  V30 4 C 0.595966 -2.907580 1.547118 0
M  V30 5 C 1.910689 -3.182087 1.271429 0
M  V30 6 C 2.876843 -2.215771 1.453699 0
M  V30 7 C 2.594722 -0.935398 1.915332 0
M  V30 8 C 3.697359 0.019460 2.074629 0
M  V30 9 C 3.957749 0.833192 0.834842 0
M  V30 10 N 2.780373 1.596305 0.470277 0
M  V30 11 C 2.252613 2.604961 1.327023 0
M  V30 12 N 2.818577 2.902944 2.497953 0
M  V30 13 N 2.361096 3.831130 3.310023 0
M  V30 14 C 1.296637 4.590948 3.093772 0
M  V30 15 O 0.872504 5.474848 3.881789 0
M  V30 16 C 0.656901 4.339420 1.898535 0
M  V30 17 C -0.468595 5.053261 1.535203 0
M  V30 18 C -1.161661 4.848598 0.342395 0
M  V30 19 C -0.652148 3.863600 -0.488658 0
M  V30 20 C 0.459557 3.160399 -0.126942 0
M  V30 21 C 1.141523 3.364853 1.051358 0
M  V30 22 C 1.264073 -0.688633 2.184128 0
M  V30 23 C 0.274372 -1.634580 2.011885 0
M  V30 24 C -2.275270 -4.441765 -0.288362 0
M  V30 25 C -2.980924 -5.365960 0.487588 0
M  V30 26 C -4.070143 -6.013805 -0.060652 0
M  V30 27 C -4.497591 -5.787479 -1.353307 0
M  V30 28 C -3.803540 -4.876033 -2.121989 0
M  V30 29 C -4.271421 -4.632418 -3.527681 0
M  V30 30 F -5.354027 -3.777590 -3.542782 0
M  V30 31 F -4.528997 -5.820528 -4.141669 0
M  V30 32 F -3.243977 -3.959598 -4.161854 0
M  V30 33 C -2.699451 -4.207981 -1.591726 0
M  V30 34 H -0.963040 -4.440156 2.121352 0
M  V30 35 H 2.098269 -4.178032 0.916831 0
M  V30 36 H 3.891963 -2.494660 1.218773 0
M  V30 37 H 4.615562 -0.560249 2.313742 0
M  V30 38 H 3.485964 0.690301 2.901504 0
M  V30 39 H 4.782092 1.568922 1.033621 0
M  V30 40 H 4.306214 0.229840 -0.013729 0
M  V30 41 H 2.361595 1.351044 -0.448570 0
M  V30 42 H 2.912195 3.956542 4.202396 0
M  V30 43 H -0.820413 5.807748 2.220914 0
M  V30 44 H -2.038137 5.433872 0.103621 0
M  V30 45 H -1.191492 3.707717 -1.411782 0
M  V30 46 H 0.758357 2.422822 -0.854715 0
M  V30 47 H 1.004627 0.286257 2.541909 0
M  V30 48 H -0.752027 -1.334545 2.255370 0
M  V30 49 H -2.604412 -5.505397 1.491843 0
M  V30 50 H -4.591139 -6.723822 0.574279 0
M  V30 51 H -5.371520 -6.352608 -1.691559 0
M  V30 52 H -2.190227 -3.505414 -2.231533 0
M  V30 END ATOM
M  V30 BEGIN BOND
M  V30 1 2 1 2
M  V30 2 1 2 3
M  V30 3 1 3 4
M  V30 4 2 4 5
M  V30 5 1 5 6
M  V30 6 2 6 7
M  V30 7 1 7 8
M  V30 8 1 8 9
M  V30 9 1 9 10
M  V30 10 1 10 11
M  V30 11 2 11 12
M  V30 12 1 12 13
M  V30 13 1 13 14
M  V30 14 2 14 15
M  V30 15 1 14 16
M  V30 16 2 16 17
M  V30 17 1 17 18
M  V30 18 2 18 19
M  V30 19 1 19 20
M  V30 20 2 20 21
M  V30 21 1 7 22
M  V30 22 2 22 23
M  V30 23 1 2 24
M  V30 24 2 24 25
M  V30 25 1 25 26
M  V30 26 2 26 27
M  V30 27 1 27 28
M  V30 28 1 28 29
M  V30 29 1 29 30
M  V30 30 1 29 31
M  V30 31 1 29 32
M  V30 32 2 28 33
M  V30 33 1 23 4
M  V30 34 1 33 24
M  V30 35 1 21 11
M  V30 36 1 21 16
M  V30 37 1 3 34
M  V30 38 1 5 35
M  V30 39 1 6 36
M  V30 40 1 8 37
M  V30 41 1 8 38
M  V30 42 1 9 39
M  V30 43 1 9 40
M  V30 44 1 10 41
M  V30 45 1 13 42
M  V30 46 1 17 43
M  V30 47 1 18 44
M  V30 48 1 19 45
M  V30 49 1 20 46
M  V30 50 1 22 47
M  V30 51 1 23 48
M  V30 52 1 25 49
M  V30 53 1 26 50
M  V30 54 1 27 51
M  V30 55 1 33 52
M  V30 END BOND
M  V30 END CTAB
M  END
>  <Dataset>  (605) 
ChEMBL_Kinases

>  <Ligand_Instance>  (605) 
nan

>  <PDB_ID>  (605) 
nan

>  <Standardized_SMILES>  (605) 
O=C(Nc1ccc(CCNc2n[nH]c(=O)c3ccccc23)cc1)c1cccc(C(F)(F)F)c1

>  <Name>  (605) 
nan

>  <Pocket>  (605) 
nan

>  <ATP_Site>  (605) 
nan

>  <Peripheral>  (605) 
nan

>  <Num_H_Atoms_ProtBoundConf>  (605) 
nan

>  <Num_Resolved_Atoms>  (605) 
nan

>  <Num_Not_Resolved_Atoms>  (605) 
nan

$$$$
CHEMBL4761865
     RDKit          3D

  0  0  0  0  0  0  0  0  0  0999 V3000
M  V30 BEGIN CTAB
M  V30 COUNTS 47 50 0 0 0
M  V30 BEGIN ATOM
M  V30 1 C 1.728884 -2.687063 -0.350634 0
M  V30 2 C 2.593328 -1.482329 -0.617372 0 CFG=2
M  V30 3 C 2.964376 -1.511036 -2.090867 0
M  V30 4 O 1.846967 -1.464647 -2.897254 0
M  V30 5 N 3.812838 -1.469874 0.143076 0
M  V30 6 C 4.671806 -2.520912 0.101235 0
M  V30 7 N 5.726824 -2.236385 0.908270 0
M  V30 8 N 5.531000 -1.041821 1.438139 0
M  V30 9 C 4.348246 -0.538189 0.981613 0
M  V30 10 C 3.616797 0.704569 1.206728 0
M  V30 11 C 4.009081 1.907851 0.625763 0
M  V30 12 C 3.257316 3.037407 0.893482 0
M  V30 13 C 2.144117 2.988757 1.713597 0
M  V30 14 C 1.774846 1.786531 2.277595 0
M  V30 15 N 0.665869 1.530029 3.145825 0
M  V30 16 C -0.519587 1.174816 2.448496 0
M  V30 17 O -0.614295 1.087146 1.202859 0
M  V30 18 N -1.703766 0.891073 3.178471 0
M  V30 19 C -2.916178 0.530625 2.521655 0
M  V30 20 C -3.935923 1.359566 2.070623 0
M  V30 21 N -5.002180 0.795259 1.470783 0
M  V30 22 C -5.077429 -0.539985 1.312369 0
M  V30 23 C -6.191850 -1.065346 0.691203 0
M  V30 24 C -6.285111 -2.447185 0.519326 0
M  V30 25 C -5.291326 -3.315056 0.953494 0
M  V30 26 C -4.185430 -2.758558 1.573061 0
M  V30 27 C -4.068357 -1.394798 1.755582 0
M  V30 28 N -3.032195 -0.805089 2.342196 0
M  V30 29 N 2.546188 0.708765 1.982917 0
M  V30 30 H 0.948957 -2.697194 -1.154876 0
M  V30 31 H 2.298177 -3.640451 -0.410038 0
M  V30 32 H 1.160895 -2.598020 0.597319 0
M  V30 33 H 1.974893 -0.596090 -0.374369 0
M  V30 34 H 3.720100 -0.735195 -2.332773 0
M  V30 35 H 3.486433 -2.498877 -2.239218 0
M  V30 36 H 1.718756 -0.544480 -3.249296 0
M  V30 37 H 4.605048 -3.463900 -0.453831 0
M  V30 38 H 4.868964 1.950646 -0.009013 0
M  V30 39 H 3.512014 4.016187 0.467656 0
M  V30 40 H 1.503920 3.821042 1.973487 0
M  V30 41 H 0.725391 1.598624 4.199401 0
M  V30 42 H -1.717003 0.939564 4.223537 0
M  V30 43 H -3.745417 2.406977 2.262622 0
M  V30 44 H -7.003027 -0.479657 0.325818 0
M  V30 45 H -7.165069 -2.882839 0.026979 0
M  V30 46 H -5.363359 -4.386280 0.820387 0
M  V30 47 H -3.354441 -3.378450 1.945572 0
M  V30 END ATOM
M  V30 BEGIN BOND
M  V30 1 1 1 2
M  V30 2 1 2 3
M  V30 3 1 3 4
M  V30 4 1 2 5
M  V30 5 1 5 6
M  V30 6 2 6 7
M  V30 7 1 7 8
M  V30 8 2 8 9
M  V30 9 1 9 10
M  V30 10 2 10 11
M  V30 11 1 11 12
M  V30 12 2 12 13
M  V30 13 1 13 14
M  V30 14 1 14 15
M  V30 15 1 15 16
M  V30 16 2 16 17
M  V30 17 1 16 18
M  V30 18 1 18 19
M  V30 19 2 19 20
M  V30 20 1 20 21
M  V30 21 2 21 22
M  V30 22 1 22 23
M  V30 23 2 23 24
M  V30 24 1 24 25
M  V30 25 2 25 26
M  V30 26 1 26 27
M  V30 27 2 27 28
M  V30 28 2 14 29
M  V30 29 1 9 5
M  V30 30 1 29 10
M  V30 31 1 28 19
M  V30 32 1 27 22
M  V30 33 1 1 30
M  V30 34 1 1 31
M  V30 35 1 1 32
M  V30 36 1 2 33 CFG=3
M  V30 37 1 3 34
M  V30 38 1 3 35
M  V30 39 1 4 36
M  V30 40 1 6 37
M  V30 41 1 11 38
M  V30 42 1 12 39
M  V30 43 1 13 40
M  V30 44 1 15 41
M  V30 45 1 18 42
M  V30 46 1 20 43
M  V30 47 1 23 44
M  V30 48 1 24 45
M  V30 49 1 25 46
M  V30 50 1 26 47
M  V30 END BOND
M  V30 END CTAB
M  END
>  <Dataset>  (606) 
ChEMBL_Kinases

>  <Ligand_Instance>  (606) 
nan

>  <PDB_ID>  (606) 
nan

>  <Standardized_SMILES>  (606) 
C[C@H](CO)n1cnnc1-c1cccc(NC(=O)Nc2cnc3ccccc3n2)n1

>  <Name>  (606) 
nan

>  <Pocket>  (606) 
nan

>  <ATP_Site>  (606) 
nan

>  <Peripheral>  (606) 
nan

>  <Num_H_Atoms_ProtBoundConf>  (606) 
nan

>  <Num_Resolved_Atoms>  (606) 
nan

>  <Num_Not_Resolved_Atoms>  (606) 
nan

$$$$
CHEMBL4761521
     RDKit          3D

  0  0  0  0  0  0  0  0  0  0999 V3000
M  V30 BEGIN CTAB
M  V30 COUNTS 57 60 0 0 0
M  V30 BEGIN ATOM
M  V30 1 O -0.187093 -2.439317 -1.638316 0
M  V30 2 C -1.363213 -2.065697 -1.836594 0
M  V30 3 N -1.738415 -0.759306 -1.401456 0
M  V30 4 C -0.973517 0.247521 -0.748274 0
M  V30 5 C -0.831084 0.411760 0.613486 0
M  V30 6 C -0.053161 1.439861 1.102483 0
M  V30 7 C 0.614260 2.344844 0.303319 0
M  V30 8 C 1.448957 3.446189 0.800407 0
M  V30 9 C 2.892948 3.056178 0.973083 0
M  V30 10 N 3.005054 1.966918 1.922310 0
M  V30 11 C 2.629143 2.145798 3.287736 0
M  V30 12 N 2.171597 3.319136 3.753752 0
M  V30 13 N 1.821587 3.523851 5.009902 0
M  V30 14 C 1.878455 2.590296 5.975079 0
M  V30 15 O 1.542239 2.792183 7.175248 0
M  V30 16 C 2.339430 1.353596 5.576284 0
M  V30 17 C 2.430992 0.334512 6.503229 0
M  V30 18 C 2.890495 -0.909827 6.122342 0
M  V30 19 C 3.258943 -1.128120 4.803532 0
M  V30 20 C 3.151421 -0.081589 3.910569 0
M  V30 21 C 2.697711 1.168319 4.258744 0
M  V30 22 C 0.444254 2.144237 -1.071810 0
M  V30 23 C -0.325021 1.128650 -1.610973 0
M  V30 24 N -2.290473 -2.908573 -2.470369 0
M  V30 25 C -1.901491 -4.196644 -2.893328 0
M  V30 26 C -2.010224 -4.542843 -4.326593 0
M  V30 27 C -3.426378 -4.525716 -4.855653 0
M  V30 28 C -4.450369 -4.845552 -3.805572 0
M  V30 29 C -3.920280 -5.675938 -2.682385 0
M  V30 30 C -2.632323 -5.242199 -2.087830 0
M  V30 31 H -2.715530 -0.372719 -1.534158 0
M  V30 32 H -1.354523 -0.298413 1.239046 0
M  V30 33 H 0.030133 1.531976 2.176255 0
M  V30 34 H 1.059794 3.803228 1.751309 0
M  V30 35 H 1.427897 4.232613 -0.000424 0
M  V30 36 H 3.498731 3.931245 1.306513 0
M  V30 37 H 3.244091 2.692360 -0.016334 0
M  V30 38 H 3.366219 1.065713 1.565788 0
M  V30 39 H 1.475361 4.470607 5.285410 0
M  V30 40 H 2.153870 0.462620 7.541428 0
M  V30 41 H 2.975312 -1.741935 6.835133 0
M  V30 42 H 3.616098 -2.114745 4.531833 0
M  V30 43 H 3.460276 -0.348931 2.914003 0
M  V30 44 H 0.967420 2.854062 -1.711666 0
M  V30 45 H -0.369210 1.090402 -2.694923 0
M  V30 46 H -3.251618 -2.518965 -2.597410 0
M  V30 47 H -0.813472 -4.321381 -2.612462 0
M  V30 48 H -1.327520 -3.972588 -4.990101 0
M  V30 49 H -1.664875 -5.597829 -4.423407 0
M  V30 50 H -3.629768 -3.502090 -5.230945 0
M  V30 51 H -3.557916 -5.206183 -5.721525 0
M  V30 52 H -4.991293 -3.945817 -3.420083 0
M  V30 53 H -5.258544 -5.434372 -4.290804 0
M  V30 54 H -3.810512 -6.759400 -2.985947 0
M  V30 55 H -4.744679 -5.726619 -1.911577 0
M  V30 56 H -2.875567 -4.770097 -1.097260 0
M  V30 57 H -1.962605 -6.109026 -1.878955 0
M  V30 END ATOM
M  V30 BEGIN BOND
M  V30 1 2 1 2
M  V30 2 1 2 3
M  V30 3 1 3 4
M  V30 4 2 4 5
M  V30 5 1 5 6
M  V30 6 2 6 7
M  V30 7 1 7 8
M  V30 8 1 8 9
M  V30 9 1 9 10
M  V30 10 1 10 11
M  V30 11 2 11 12
M  V30 12 1 12 13
M  V30 13 1 13 14
M  V30 14 2 14 15
M  V30 15 1 14 16
M  V30 16 2 16 17
M  V30 17 1 17 18
M  V30 18 2 18 19
M  V30 19 1 19 20
M  V30 20 2 20 21
M  V30 21 1 7 22
M  V30 22 2 22 23
M  V30 23 1 2 24
M  V30 24 1 24 25
M  V30 25 1 25 26
M  V30 26 1 26 27
M  V30 27 1 27 28
M  V30 28 1 28 29
M  V30 29 1 29 30
M  V30 30 1 23 4
M  V30 31 1 30 25
M  V30 32 1 21 11
M  V30 33 1 21 16
M  V30 34 1 3 31
M  V30 35 1 5 32
M  V30 36 1 6 33
M  V30 37 1 8 34
M  V30 38 1 8 35
M  V30 39 1 9 36
M  V30 40 1 9 37
M  V30 41 1 10 38
M  V30 42 1 13 39
M  V30 43 1 17 40
M  V30 44 1 18 41
M  V30 45 1 19 42
M  V30 46 1 20 43
M  V30 47 1 22 44
M  V30 48 1 23 45
M  V30 49 1 24 46
M  V30 50 1 25 47
M  V30 51 1 26 48
M  V30 52 1 26 49
M  V30 53 1 27 50
M  V30 54 1 27 51
M  V30 55 1 28 52
M  V30 56 1 28 53
M  V30 57 1 29 54
M  V30 58 1 29 55
M  V30 59 1 30 56
M  V30 60 1 30 57
M  V30 END BOND
M  V30 END CTAB
M  END
>  <Dataset>  (607) 
ChEMBL_Kinases

>  <Ligand_Instance>  (607) 
nan

>  <PDB_ID>  (607) 
nan

>  <Standardized_SMILES>  (607) 
O=C(Nc1ccc(CCNc2n[nH]c(=O)c3ccccc23)cc1)NC1CCCCC1

>  <Name>  (607) 
nan

>  <Pocket>  (607) 
nan

>  <ATP_Site>  (607) 
nan

>  <Peripheral>  (607) 
nan

>  <Num_H_Atoms_ProtBoundConf>  (607) 
nan

>  <Num_Resolved_Atoms>  (607) 
nan

>  <Num_Not_Resolved_Atoms>  (607) 
nan

$$$$
CHEMBL4761548
     RDKit          3D

  0  0  0  0  0  0  0  0  0  0999 V3000
M  V30 BEGIN CTAB
M  V30 COUNTS 57 61 0 0 0
M  V30 BEGIN ATOM
M  V30 1 C -0.415461 -0.400735 4.239558 0
M  V30 2 C 0.872666 -0.157396 3.560877 0
M  V30 3 C 2.082934 -0.454278 4.174707 0
M  V30 4 C 3.284481 -0.224243 3.533985 0
M  V30 5 C 3.310529 0.309359 2.260832 0
M  V30 6 C 4.507809 0.601678 1.471952 0
M  V30 7 O 4.501638 1.092611 0.300862 0
M  V30 8 N 5.807315 0.342391 1.991527 0
M  V30 9 C 6.989760 0.623988 1.229343 0
M  V30 10 C 8.010448 -0.517808 1.244900 0
M  V30 11 C 8.308958 0.813396 1.859541 0
M  V30 12 C 2.097420 0.613109 1.630898 0
M  V30 13 C 0.904624 0.376566 2.286421 0
M  V30 14 N -0.305993 0.713524 1.576312 0
M  V30 15 C -0.969307 1.850274 1.709066 0
M  V30 16 C -2.116728 2.055226 0.973240 0
M  V30 17 N -2.548533 1.100085 0.130512 0
M  V30 18 C -1.924199 -0.076228 -0.052760 0
M  V30 19 N -2.363317 -1.093050 -0.936675 0
M  V30 20 C -3.549557 -0.944544 -1.731008 0 CFG=2
M  V30 21 C -4.779707 -0.760882 -0.882828 0
M  V30 22 C -5.393409 -2.094867 -0.518247 0
M  V30 23 C -5.908438 -2.873193 -1.684124 0
M  V30 24 C -4.811542 -3.021841 -2.676431 0
M  V30 25 C -4.791619 -4.016437 -3.615180 0
M  V30 26 C -3.800868 -4.181919 -4.540327 0
M  V30 27 C -2.759365 -3.278862 -4.513130 0
M  V30 28 C -2.758477 -2.260611 -3.568615 0
M  V30 29 C -3.781390 -2.104920 -2.627505 0
M  V30 30 C -0.774593 -0.214471 0.721273 0
M  V30 31 O -0.148410 -1.320145 0.578070 0
M  V30 32 H -1.134765 -0.892205 3.571898 0
M  V30 33 H -0.248977 -1.118632 5.079558 0
M  V30 34 H -0.892602 0.541756 4.613962 0
M  V30 35 H 2.123632 -0.873773 5.170883 0
M  V30 36 H 4.238099 -0.442020 3.978972 0
M  V30 37 H 5.954779 -0.061152 2.943174 0
M  V30 38 H 6.881471 1.059961 0.197753 0
M  V30 39 H 7.862282 -1.357700 1.956980 0
M  V30 40 H 8.513737 -0.823886 0.326444 0
M  V30 41 H 8.408849 0.875014 2.953919 0
M  V30 42 H 9.049619 1.483201 1.338607 0
M  V30 43 H 2.078730 1.035765 0.625472 0
M  V30 44 H -0.573068 2.565704 2.394049 0
M  V30 45 H -2.631214 2.993175 1.107125 0
M  V30 46 H -1.789602 -1.958035 -0.989060 0
M  V30 47 H -3.401525 -0.066875 -2.427200 0
M  V30 48 H -4.464535 -0.298637 0.072293 0
M  V30 49 H -5.511473 -0.086993 -1.357295 0
M  V30 50 H -6.248311 -1.893980 0.169802 0
M  V30 51 H -4.684331 -2.723204 0.055926 0
M  V30 52 H -6.791721 -2.422513 -2.165192 0
M  V30 53 H -6.170770 -3.880564 -1.313505 0
M  V30 54 H -5.629650 -4.691588 -3.589241 0
M  V30 55 H -3.805133 -4.969343 -5.267915 0
M  V30 56 H -1.970405 -3.397926 -5.238032 0
M  V30 57 H -1.878773 -1.605079 -3.645333 0
M  V30 END ATOM
M  V30 BEGIN BOND
M  V30 1 1 1 2
M  V30 2 2 2 3
M  V30 3 1 3 4
M  V30 4 2 4 5
M  V30 5 1 5 6
M  V30 6 2 6 7
M  V30 7 1 6 8
M  V30 8 1 8 9
M  V30 9 1 9 10
M  V30 10 1 10 11
M  V30 11 1 5 12
M  V30 12 2 12 13
M  V30 13 1 13 14
M  V30 14 1 14 15
M  V30 15 2 15 16
M  V30 16 1 16 17
M  V30 17 2 17 18
M  V30 18 1 18 19
M  V30 19 1 19 20
M  V30 20 1 20 21
M  V30 21 1 21 22
M  V30 22 1 22 23
M  V30 23 1 23 24
M  V30 24 2 24 25
M  V30 25 1 25 26
M  V30 26 2 26 27
M  V30 27 1 27 28
M  V30 28 2 28 29
M  V30 29 1 18 30
M  V30 30 2 30 31
M  V30 31 1 13 2
M  V30 32 1 30 14
M  V30 33 1 11 9
M  V30 34 1 29 20
M  V30 35 1 29 24
M  V30 36 1 1 32
M  V30 37 1 1 33
M  V30 38 1 1 34
M  V30 39 1 3 35
M  V30 40 1 4 36
M  V30 41 1 8 37
M  V30 42 1 9 38
M  V30 43 1 10 39
M  V30 44 1 10 40
M  V30 45 1 11 41
M  V30 46 1 11 42
M  V30 47 1 12 43
M  V30 48 1 15 44
M  V30 49 1 16 45
M  V30 50 1 19 46
M  V30 51 1 20 47 CFG=3
M  V30 52 1 21 48
M  V30 53 1 21 49
M  V30 54 1 22 50
M  V30 55 1 22 51
M  V30 56 1 23 52
M  V30 57 1 23 53
M  V30 58 1 25 54
M  V30 59 1 26 55
M  V30 60 1 27 56
M  V30 61 1 28 57
M  V30 END BOND
M  V30 END CTAB
M  END
>  <Dataset>  (608) 
ChEMBL_Kinases

>  <Ligand_Instance>  (608) 
nan

>  <PDB_ID>  (608) 
nan

>  <Standardized_SMILES>  (608) 
Cc1ccc(C(=O)NC2CC2)cc1-n1ccnc(N[C@@H]2CCCc3ccccc32)c1=O

>  <Name>  (608) 
nan

>  <Pocket>  (608) 
nan

>  <ATP_Site>  (608) 
nan

>  <Peripheral>  (608) 
nan

>  <Num_H_Atoms_ProtBoundConf>  (608) 
nan

>  <Num_Resolved_Atoms>  (608) 
nan

>  <Num_Not_Resolved_Atoms>  (608) 
nan

$$$$
CHEMBL4761602
     RDKit          3D

  0  0  0  0  0  0  0  0  0  0999 V3000
M  V30 BEGIN CTAB
M  V30 COUNTS 44 47 0 0 0
M  V30 BEGIN ATOM
M  V30 1 N 1.105315 -4.587579 1.480912 0
M  V30 2 C 0.903110 -3.165727 1.426598 0
M  V30 3 N 2.040482 -2.571680 1.145089 0
M  V30 4 C 1.960000 -1.223002 1.070159 0
M  V30 5 C 2.896483 -0.121438 0.796486 0
M  V30 6 C 2.993233 0.235289 -0.650671 0 CFG=1
M  V30 7 C 1.713797 0.677061 -1.281737 0
M  V30 8 C 2.019281 1.957645 -2.009929 0
M  V30 9 C 2.108963 3.049934 -0.995806 0
M  V30 10 C 3.389041 2.692779 -0.236306 0
M  V30 11 C 3.887318 1.431513 -0.864671 0
M  V30 12 C 3.504097 1.732371 -2.326027 0
M  V30 13 S 0.158056 -0.747853 1.419617 0
M  V30 14 C -0.377096 -2.476809 1.650895 0
M  V30 15 C -1.598434 -3.068375 1.950193 0
M  V30 16 O -1.558903 -4.317809 2.028772 0
M  V30 17 C -2.652349 -2.074136 2.103932 0
M  V30 18 C -2.816798 -1.031235 1.218977 0
M  V30 19 C -3.822736 -0.106975 1.387596 0
M  V30 20 C -4.686790 -0.222927 2.463367 0
M  V30 21 C -4.533003 -1.260987 3.355146 0
M  V30 22 C -3.521959 -2.173220 3.168612 0
M  V30 23 N -3.451905 -3.204294 4.146096 0 CHG=1 VAL=4
M  V30 24 O -3.103508 -4.401437 4.163284 0
M  V30 25 O -3.834597 -2.974071 5.463093 0 CHG=-1 VAL=1
M  V30 26 H 1.261442 -5.230036 0.654937 0
M  V30 27 H 1.125639 -5.180931 2.345662 0
M  V30 28 H 2.747923 0.751222 1.463834 0
M  V30 29 H 3.892438 -0.515448 1.088981 0
M  V30 30 H 3.450006 -0.595706 -1.220610 0
M  V30 31 H 1.332401 -0.053106 -2.053954 0
M  V30 32 H 0.889597 0.882898 -0.575793 0
M  V30 33 H 1.405410 2.147313 -2.888829 0
M  V30 34 H 2.267286 4.025473 -1.476445 0
M  V30 35 H 1.227097 3.068920 -0.322724 0
M  V30 36 H 3.133597 2.645975 0.818635 0
M  V30 37 H 4.164428 3.462650 -0.376674 0
M  V30 38 H 4.951085 1.245041 -0.750297 0
M  V30 39 H 3.664182 0.861802 -2.981388 0
M  V30 40 H 4.004745 2.648756 -2.652739 0
M  V30 41 H -2.158547 -0.915653 0.370864 0
M  V30 42 H -3.948003 0.720887 0.679410 0
M  V30 43 H -5.463912 0.549674 2.533328 0
M  V30 44 H -5.270031 -1.237589 4.147713 0
M  V30 END ATOM
M  V30 BEGIN BOND
M  V30 1 1 1 2
M  V30 2 1 2 3
M  V30 3 2 3 4
M  V30 4 1 4 5
M  V30 5 1 5 6
M  V30 6 1 6 7
M  V30 7 1 7 8
M  V30 8 1 8 9
M  V30 9 1 9 10
M  V30 10 1 10 11
M  V30 11 1 11 12
M  V30 12 1 4 13
M  V30 13 1 13 14
M  V30 14 1 14 15
M  V30 15 2 15 16
M  V30 16 1 15 17
M  V30 17 2 17 18
M  V30 18 1 18 19
M  V30 19 2 19 20
M  V30 20 1 20 21
M  V30 21 2 21 22
M  V30 22 1 22 23
M  V30 23 2 23 24
M  V30 24 1 23 25
M  V30 25 2 14 2
M  V30 26 1 22 17
M  V30 27 1 11 6
M  V30 28 1 12 8
M  V30 29 1 1 26
M  V30 30 1 1 27
M  V30 31 1 5 28
M  V30 32 1 5 29
M  V30 33 1 6 30 CFG=3
M  V30 34 1 7 31
M  V30 35 1 7 32
M  V30 36 1 8 33
M  V30 37 1 9 34
M  V30 38 1 9 35
M  V30 39 1 10 36
M  V30 40 1 10 37
M  V30 41 1 11 38
M  V30 42 1 12 39
M  V30 43 1 12 40
M  V30 44 1 18 41
M  V30 45 1 19 42
M  V30 46 1 20 43
M  V30 47 1 21 44
M  V30 END BOND
M  V30 END CTAB
M  END
>  <Dataset>  (609) 
ChEMBL_Kinases

>  <Ligand_Instance>  (609) 
nan

>  <PDB_ID>  (609) 
nan

>  <Standardized_SMILES>  (609) 
Nc1nc(C[C@H]2CC3CCC2C3)sc1C(=O)c1ccccc1[N+](=O)[O-]

>  <Name>  (609) 
nan

>  <Pocket>  (609) 
nan

>  <ATP_Site>  (609) 
nan

>  <Peripheral>  (609) 
nan

>  <Num_H_Atoms_ProtBoundConf>  (609) 
nan

>  <Num_Resolved_Atoms>  (609) 
nan

>  <Num_Not_Resolved_Atoms>  (609) 
nan

$$$$
CHEMBL4761660
     RDKit          3D

  0  0  0  0  0  0  0  0  0  0999 V3000
M  V30 BEGIN CTAB
M  V30 COUNTS 68 72 0 0 0
M  V30 BEGIN ATOM
M  V30 1 C 1.940842 -6.121332 1.241782 0
M  V30 2 C 2.309427 -5.801202 -0.198918 0
M  V30 3 C 0.980059 -5.450546 -0.880053 0
M  V30 4 C 2.786932 -7.058925 -0.847464 0
M  V30 5 C 3.252529 -4.670595 -0.280818 0
M  V30 6 C 3.732078 -4.225090 -1.497620 0
M  V30 7 C 4.615487 -3.168112 -1.592602 0
M  V30 8 C 5.028015 -2.542584 -0.435548 0
M  V30 9 S 6.140517 -1.204887 -0.251868 0
M  V30 10 O 7.158603 -1.375409 -1.374760 0
M  V30 11 O 6.966247 -1.362505 1.009505 0
M  V30 12 N 5.454143 0.328474 -0.431731 0
M  V30 13 C 4.465673 1.090961 0.197986 0
M  V30 14 C 3.276644 0.357809 0.331483 0
M  V30 15 C 2.145967 0.934877 0.922027 0
M  V30 16 C 2.228805 2.237448 1.368234 0
M  V30 17 C 1.024563 2.837615 1.976863 0
M  V30 18 N -0.198455 2.307455 2.141337 0
M  V30 19 C -1.010382 3.203831 2.748567 0
M  V30 20 C -2.404668 2.893693 3.055813 0
M  V30 21 C -3.073961 3.476871 4.140746 0
M  V30 22 C -4.404278 3.106629 4.343663 0
M  V30 23 N -5.049491 2.231583 3.552938 0
M  V30 24 C -4.427370 1.652357 2.496707 0
M  V30 25 N -4.988832 0.713812 1.587847 0
M  V30 26 C -5.673379 0.953793 0.387829 0
M  V30 27 C -5.894608 2.239183 -0.036573 0
M  V30 28 C -6.575340 2.365401 -1.227727 0
M  V30 29 C -7.029112 1.292254 -1.987446 0
M  V30 30 C -7.757281 1.518033 -3.267120 0
M  V30 31 F -7.370593 0.557596 -4.194599 0
M  V30 32 F -9.107773 1.409129 -2.972601 0
M  V30 33 F -7.457160 2.797375 -3.720844 0
M  V30 34 C -6.769324 0.030653 -1.495549 0
M  V30 35 C -6.088601 -0.180315 -0.301753 0
M  V30 36 C -3.108365 2.000529 2.272350 0
M  V30 37 N -0.237500 4.287219 2.943092 0
M  V30 38 O 0.980648 4.072324 2.482895 0
M  V30 39 C 3.383321 2.980088 1.249849 0
M  V30 40 C 4.482780 2.388733 0.664497 0
M  V30 41 C 4.533141 -3.005349 0.790982 0
M  V30 42 C 3.642742 -4.069956 0.892350 0
M  V30 43 H 1.415256 -5.267483 1.721278 0
M  V30 44 H 1.239928 -6.979701 1.297249 0
M  V30 45 H 2.827554 -6.397150 1.849298 0
M  V30 46 H 0.340493 -6.351911 -0.767394 0
M  V30 47 H 1.094470 -5.193228 -1.933831 0
M  V30 48 H 0.529986 -4.657570 -0.249708 0
M  V30 49 H 3.764289 -7.420272 -0.510220 0
M  V30 50 H 2.011652 -7.832743 -0.670234 0
M  V30 51 H 2.768528 -6.882127 -1.948159 0
M  V30 52 H 3.437102 -4.684741 -2.438805 0
M  V30 53 H 5.046171 -2.745373 -2.478136 0
M  V30 54 H 5.755602 1.013133 -1.190502 0
M  V30 55 H 3.084527 -0.658576 0.020878 0
M  V30 56 H 1.206199 0.415179 1.049473 0
M  V30 57 H -2.552442 4.179312 4.774952 0
M  V30 58 H -4.955423 3.540603 5.178243 0
M  V30 59 H -4.783748 -0.219700 2.001274 0
M  V30 60 H -5.557741 3.079826 0.527906 0
M  V30 61 H -6.758121 3.390406 -1.580195 0
M  V30 62 H -7.139473 -0.798237 -2.117267 0
M  V30 63 H -5.919215 -1.195073 0.024667 0
M  V30 64 H -2.557925 1.572182 1.445463 0
M  V30 65 H 3.465968 4.002020 1.594343 0
M  V30 66 H 5.439557 2.863939 0.516481 0
M  V30 67 H 4.804152 -2.570211 1.768450 0
M  V30 68 H 3.272739 -4.412285 1.845513 0
M  V30 END ATOM
M  V30 BEGIN BOND
M  V30 1 1 1 2
M  V30 2 1 2 3
M  V30 3 1 2 4
M  V30 4 1 2 5
M  V30 5 2 5 6
M  V30 6 1 6 7
M  V30 7 2 7 8
M  V30 8 1 8 9
M  V30 9 2 9 10
M  V30 10 2 9 11
M  V30 11 1 9 12
M  V30 12 1 12 13
M  V30 13 2 13 14
M  V30 14 1 14 15
M  V30 15 2 15 16
M  V30 16 1 16 17
M  V30 17 2 17 18
M  V30 18 1 18 19
M  V30 19 1 19 20
M  V30 20 2 20 21
M  V30 21 1 21 22
M  V30 22 2 22 23
M  V30 23 1 23 24
M  V30 24 1 24 25
M  V30 25 1 25 26
M  V30 26 2 26 27
M  V30 27 1 27 28
M  V30 28 2 28 29
M  V30 29 1 29 30
M  V30 30 1 30 31
M  V30 31 1 30 32
M  V30 32 1 30 33
M  V30 33 1 29 34
M  V30 34 2 34 35
M  V30 35 2 24 36
M  V30 36 2 19 37
M  V30 37 1 37 38
M  V30 38 1 16 39
M  V30 39 2 39 40
M  V30 40 1 8 41
M  V30 41 2 41 42
M  V30 42 1 42 5
M  V30 43 1 40 13
M  V30 44 1 38 17
M  V30 45 1 36 20
M  V30 46 1 35 26
M  V30 47 1 1 43
M  V30 48 1 1 44
M  V30 49 1 1 45
M  V30 50 1 3 46
M  V30 51 1 3 47
M  V30 52 1 3 48
M  V30 53 1 4 49
M  V30 54 1 4 50
M  V30 55 1 4 51
M  V30 56 1 6 52
M  V30 57 1 7 53
M  V30 58 1 12 54
M  V30 59 1 14 55
M  V30 60 1 15 56
M  V30 61 1 21 57
M  V30 62 1 22 58
M  V30 63 1 25 59
M  V30 64 1 27 60
M  V30 65 1 28 61
M  V30 66 1 34 62
M  V30 67 1 35 63
M  V30 68 1 36 64
M  V30 69 1 39 65
M  V30 70 1 40 66
M  V30 71 1 41 67
M  V30 72 1 42 68
M  V30 END BOND
M  V30 END CTAB
M  END
>  <Dataset>  (610) 
ChEMBL_Kinases

>  <Ligand_Instance>  (610) 
nan

>  <PDB_ID>  (610) 
nan

>  <Standardized_SMILES>  (610) 
CC(C)(C)c1ccc(S(=O)(=O)Nc2ccc(-c3nc(-c4ccnc(Nc5ccc(C(F)(F)F)cc5)c4)no3)cc2)cc1

>  <Name>  (610) 
nan

>  <Pocket>  (610) 
nan

>  <ATP_Site>  (610) 
nan

>  <Peripheral>  (610) 
nan

>  <Num_H_Atoms_ProtBoundConf>  (610) 
nan

>  <Num_Resolved_Atoms>  (610) 
nan

>  <Num_Not_Resolved_Atoms>  (610) 
nan

$$$$
CHEMBL4761664
     RDKit          3D

  0  0  0  0  0  0  0  0  0  0999 V3000
M  V30 BEGIN CTAB
M  V30 COUNTS 54 57 0 0 0
M  V30 BEGIN ATOM
M  V30 1 C 2.376553 -3.837436 -5.510434 0
M  V30 2 O 2.416610 -4.216416 -4.125971 0
M  V30 3 C 2.136630 -3.146754 -3.249469 0
M  V30 4 C 2.165225 -3.471424 -1.892569 0
M  V30 5 C 1.905861 -2.495441 -0.954284 0
M  V30 6 C 1.618167 -1.207433 -1.334104 0
M  V30 7 C 1.279568 -0.028443 -0.556514 0
M  V30 8 C 1.980405 1.182136 -0.643952 0
M  V30 9 N 1.654606 2.255706 0.104409 0
M  V30 10 C 0.628018 2.213610 0.982758 0
M  V30 11 N 0.442559 3.434326 1.688070 0
M  V30 12 C 0.951153 3.730443 3.006105 0
M  V30 13 C 2.243681 4.219275 3.239625 0
M  V30 14 N 2.635239 4.474299 4.510937 0
M  V30 15 C 1.755899 4.245325 5.521714 0
M  V30 16 C 2.159945 4.508265 6.869916 0
M  V30 17 N 2.513520 4.729828 7.977818 0
M  V30 18 C 0.488919 3.765060 5.287689 0
M  V30 19 N 0.054180 3.494846 4.017550 0
M  V30 20 C -0.127518 1.072191 1.148776 0
M  V30 21 C 0.226780 -0.021361 0.364642 0
M  V30 22 N -0.551553 -1.204504 0.501824 0
M  V30 23 C -1.662448 -1.289617 1.433720 0
M  V30 24 C -2.262323 -2.695936 1.383716 0 CFG=1
M  V30 25 C -3.432887 -2.774928 2.321290 0
M  V30 26 N -4.636517 -2.651032 1.513507 0
M  V30 27 C -4.738006 -3.867398 0.706845 0
M  V30 28 C -3.405749 -4.095318 0.020689 0
M  V30 29 O -2.669004 -2.902507 0.059722 0
M  V30 30 C 1.594355 -0.899110 -2.698707 0
M  V30 31 C 1.848215 -1.841025 -3.680929 0
M  V30 32 H 2.657846 -4.646365 -6.189669 0
M  V30 33 H 1.373593 -3.379275 -5.750701 0
M  V30 34 H 3.098710 -2.999660 -5.610159 0
M  V30 35 H 2.371010 -4.426227 -1.473882 0
M  V30 36 H 1.908201 -2.621468 0.126032 0
M  V30 37 H 2.798244 1.183404 -1.358542 0
M  V30 38 H -0.100023 4.239134 1.278305 0
M  V30 39 H 2.894264 4.379129 2.367832 0
M  V30 40 H -0.234265 3.572841 6.092607 0
M  V30 41 H -0.924217 1.086444 1.851613 0
M  V30 42 H -0.352137 -2.052586 -0.071460 0
M  V30 43 H -1.259410 -1.047768 2.436119 0
M  V30 44 H -2.478343 -0.560910 1.144220 0
M  V30 45 H -1.467381 -3.422387 1.599608 0
M  V30 46 H -3.382992 -1.900498 3.011739 0
M  V30 47 H -3.437363 -3.753043 2.883540 0
M  V30 48 H -5.470708 -2.486058 2.107850 0
M  V30 49 H -5.516020 -3.751079 -0.075612 0
M  V30 50 H -4.985130 -4.692460 1.387859 0
M  V30 51 H -2.881663 -4.929315 0.570341 0
M  V30 52 H -3.530849 -4.426383 -1.028793 0
M  V30 53 H 1.380569 0.084663 -3.154000 0
M  V30 54 H 1.838936 -1.652810 -4.750535 0
M  V30 END ATOM
M  V30 BEGIN BOND
M  V30 1 1 1 2
M  V30 2 1 2 3
M  V30 3 2 3 4
M  V30 4 1 4 5
M  V30 5 2 5 6
M  V30 6 1 6 7
M  V30 7 2 7 8
M  V30 8 1 8 9
M  V30 9 2 9 10
M  V30 10 1 10 11
M  V30 11 1 11 12
M  V30 12 2 12 13
M  V30 13 1 13 14
M  V30 14 2 14 15
M  V30 15 1 15 16
M  V30 16 3 16 17
M  V30 17 1 15 18
M  V30 18 2 18 19
M  V30 19 1 10 20
M  V30 20 2 20 21
M  V30 21 1 21 22
M  V30 22 1 22 23
M  V30 23 1 23 24
M  V30 24 1 24 25
M  V30 25 1 25 26
M  V30 26 1 26 27
M  V30 27 1 27 28
M  V30 28 1 28 29
M  V30 29 1 6 30
M  V30 30 2 30 31
M  V30 31 1 31 3
M  V30 32 1 21 7
M  V30 33 1 29 24
M  V30 34 1 19 12
M  V30 35 1 1 32
M  V30 36 1 1 33
M  V30 37 1 1 34
M  V30 38 1 4 35
M  V30 39 1 5 36
M  V30 40 1 8 37
M  V30 41 1 11 38
M  V30 42 1 13 39
M  V30 43 1 18 40
M  V30 44 1 20 41
M  V30 45 1 22 42
M  V30 46 1 23 43
M  V30 47 1 23 44
M  V30 48 1 24 45 CFG=1
M  V30 49 1 25 46
M  V30 50 1 25 47
M  V30 51 1 26 48
M  V30 52 1 27 49
M  V30 53 1 27 50
M  V30 54 1 28 51
M  V30 55 1 28 52
M  V30 56 1 30 53
M  V30 57 1 31 54
M  V30 END BOND
M  V30 END CTAB
M  END
>  <Dataset>  (611) 
ChEMBL_Kinases

>  <Ligand_Instance>  (611) 
nan

>  <PDB_ID>  (611) 
nan

>  <Standardized_SMILES>  (611) 
COc1ccc(-c2cnc(Nc3cnc(C#N)cn3)cc2NC[C@H]2CNCCO2)cc1

>  <Name>  (611) 
nan

>  <Pocket>  (611) 
nan

>  <ATP_Site>  (611) 
nan

>  <Peripheral>  (611) 
nan

>  <Num_H_Atoms_ProtBoundConf>  (611) 
nan

>  <Num_Resolved_Atoms>  (611) 
nan

>  <Num_Not_Resolved_Atoms>  (611) 
nan

$$$$
CHEMBL4761747
     RDKit          3D

  0  0  0  0  0  0  0  0  0  0999 V3000
M  V30 BEGIN CTAB
M  V30 COUNTS 41 43 0 0 0
M  V30 BEGIN ATOM
M  V30 1 C -1.350731 -7.841429 2.260609 0
M  V30 2 C -1.291479 -6.654494 1.997493 0
M  V30 3 C -1.230171 -5.255353 1.679955 0
M  V30 4 N -0.150573 -4.761165 1.076634 0
M  V30 5 C -0.000440 -3.472376 0.740765 0
M  V30 6 N 1.186195 -3.032081 0.098990 0
M  V30 7 C 1.528229 -1.724056 -0.329858 0
M  V30 8 C 2.739610 -1.479879 -0.941576 0
M  V30 9 C 3.116200 -0.230473 -1.374271 0
M  V30 10 C 2.278306 0.849720 -1.209305 0
M  V30 11 C 1.056817 0.655506 -0.603234 0
M  V30 12 C 0.164237 1.812849 -0.428848 0
M  V30 13 S 0.417615 2.651704 1.099525 0
M  V30 14 O -0.500660 3.846487 1.121208 0
M  V30 15 O 0.101304 1.812603 2.282496 0
M  V30 16 N 2.029799 3.254907 1.247148 0
M  V30 17 C 2.202264 4.214047 0.144107 0
M  V30 18 C 2.196502 4.035553 2.453205 0
M  V30 19 C 0.729875 -0.615551 -0.189062 0
M  V30 20 N -1.049718 -2.708681 1.070239 0
M  V30 21 C -2.164979 -3.086322 1.666051 0
M  V30 22 N -3.298723 -2.469146 2.065008 0
M  V30 23 C -4.103198 -3.396169 2.629969 0
M  V30 24 N -3.480833 -4.589182 2.587366 0
M  V30 25 C -2.278577 -4.418975 1.994012 0
M  V30 26 H -1.409618 -8.880535 2.499346 0
M  V30 27 H 1.914127 -3.777787 -0.084997 0
M  V30 28 H 3.440698 -2.306505 -1.095570 0
M  V30 29 H 4.088655 -0.119731 -1.847707 0
M  V30 30 H 2.651911 1.792315 -1.577232 0
M  V30 31 H 0.165701 2.480028 -1.297596 0
M  V30 32 H -0.886809 1.400982 -0.378433 0
M  V30 33 H 1.738704 5.191733 0.448395 0
M  V30 34 H 3.261078 4.415002 -0.038661 0
M  V30 35 H 1.676866 3.823227 -0.750469 0
M  V30 36 H 3.247723 4.428899 2.414009 0
M  V30 37 H 1.513859 4.893257 2.507727 0
M  V30 38 H 2.079873 3.445992 3.383244 0
M  V30 39 H -0.224383 -0.688574 0.268134 0
M  V30 40 H -3.466983 -1.429727 1.928463 0
M  V30 41 H -5.085439 -3.162670 3.037803 0
M  V30 END ATOM
M  V30 BEGIN BOND
M  V30 1 3 1 2
M  V30 2 1 2 3
M  V30 3 2 3 4
M  V30 4 1 4 5
M  V30 5 1 5 6
M  V30 6 1 6 7
M  V30 7 2 7 8
M  V30 8 1 8 9
M  V30 9 2 9 10
M  V30 10 1 10 11
M  V30 11 1 11 12
M  V30 12 1 12 13
M  V30 13 2 13 14
M  V30 14 2 13 15
M  V30 15 1 13 16
M  V30 16 1 16 17
M  V30 17 1 16 18
M  V30 18 2 11 19
M  V30 19 2 5 20
M  V30 20 1 20 21
M  V30 21 1 21 22
M  V30 22 1 22 23
M  V30 23 2 23 24
M  V30 24 1 24 25
M  V30 25 1 25 3
M  V30 26 1 19 7
M  V30 27 2 25 21
M  V30 28 1 1 26
M  V30 29 1 6 27
M  V30 30 1 8 28
M  V30 31 1 9 29
M  V30 32 1 10 30
M  V30 33 1 12 31
M  V30 34 1 12 32
M  V30 35 1 17 33
M  V30 36 1 17 34
M  V30 37 1 17 35
M  V30 38 1 18 36
M  V30 39 1 18 37
M  V30 40 1 18 38
M  V30 41 1 19 39
M  V30 42 1 22 40
M  V30 43 1 23 41
M  V30 END BOND
M  V30 END CTAB
M  END
>  <Dataset>  (612) 
ChEMBL_Kinases

>  <Ligand_Instance>  (612) 
nan

>  <PDB_ID>  (612) 
nan

>  <Standardized_SMILES>  (612) 
C#Cc1nc(Nc2cccc(CS(=O)(=O)N(C)C)c2)nc2[nH]cnc12

>  <Name>  (612) 
nan

>  <Pocket>  (612) 
nan

>  <ATP_Site>  (612) 
nan

>  <Peripheral>  (612) 
nan

>  <Num_H_Atoms_ProtBoundConf>  (612) 
nan

>  <Num_Resolved_Atoms>  (612) 
nan

>  <Num_Not_Resolved_Atoms>  (612) 
nan

$$$$
CHEMBL4761756
     RDKit          3D

  0  0  0  0  0  0  0  0  0  0999 V3000
M  V30 BEGIN CTAB
M  V30 COUNTS 62 66 0 0 0
M  V30 BEGIN ATOM
M  V30 1 C 3.214675 -2.058081 5.058927 0
M  V30 2 N 3.854727 -1.289431 3.998111 0
M  V30 3 C 3.030108 -0.260921 3.479516 0
M  V30 4 O 1.892149 -0.205663 4.038645 0
M  V30 5 C 3.468587 0.631766 2.409105 0
M  V30 6 C 4.714913 0.555039 1.826315 0
M  V30 7 C 5.017641 1.451295 0.815668 0
M  V30 8 C 4.080676 2.383087 0.423070 0
M  V30 9 C 2.820265 2.485392 0.988663 0
M  V30 10 C 1.932598 3.506280 0.481727 0
M  V30 11 C 2.137556 4.855308 0.210889 0
M  V30 12 N 1.000198 5.411459 -0.252234 0
M  V30 13 C 0.003304 4.487007 -0.313018 0
M  V30 14 N -1.287962 4.494356 -0.687773 0
M  V30 15 C -2.044780 3.385808 -0.635722 0
M  V30 16 C -1.551459 2.178823 -0.198598 0
M  V30 17 C -2.258536 0.906643 -0.098207 0
M  V30 18 C -3.271898 0.448810 -0.914671 0
M  V30 19 C -3.844458 -0.785034 -0.679942 0
M  V30 20 C -3.453759 -1.619285 0.356537 0
M  V30 21 C -4.152567 -2.926965 0.492416 0
M  V30 22 N -3.549805 -4.008160 -0.197434 0
M  V30 23 C -3.380755 -3.894498 -1.599779 0
M  V30 24 C -1.990240 -3.438284 -1.888600 0
M  V30 25 N -1.092401 -4.516982 -1.541456 0
M  V30 26 C -0.816731 -5.321519 -2.715245 0
M  V30 27 C -1.460806 -5.287999 -0.411962 0
M  V30 28 C -2.531619 -4.725750 0.472672 0
M  V30 29 C -2.440400 -1.173696 1.182398 0
M  V30 30 C -1.868587 0.059545 0.947147 0
M  V30 31 C -0.205689 2.216026 0.180671 0
M  V30 32 C 0.593900 3.326310 0.140690 0
M  V30 33 C 2.562760 1.573675 1.990904 0
M  V30 34 H 2.899502 -1.437125 5.897152 0
M  V30 35 H 3.968471 -2.846130 5.345144 0
M  V30 36 H 2.350457 -2.606432 4.659087 0
M  V30 37 H 4.808288 -1.447766 3.634431 0
M  V30 38 H 5.418821 -0.184247 2.157919 0
M  V30 39 H 5.991464 1.427132 0.326268 0
M  V30 40 H 4.366495 3.058659 -0.369428 0
M  V30 41 H 3.097732 5.336688 0.369468 0
M  V30 42 H 0.892903 6.415475 -0.528291 0
M  V30 43 H -3.096026 3.368212 -0.935111 0
M  V30 44 H -3.558016 1.116603 -1.714852 0
M  V30 45 H -4.631739 -1.045733 -1.383252 0
M  V30 46 H -4.096210 -3.167443 1.586393 0
M  V30 47 H -5.253766 -2.825992 0.304676 0
M  V30 48 H -4.172538 -3.334544 -2.088646 0
M  V30 49 H -3.444522 -4.945600 -2.012396 0
M  V30 50 H -1.818765 -3.175817 -2.951710 0
M  V30 51 H -1.652252 -2.564385 -1.306924 0
M  V30 52 H -1.188616 -6.350871 -2.531328 0
M  V30 53 H -1.241872 -4.895181 -3.632869 0
M  V30 54 H 0.293249 -5.397070 -2.867769 0
M  V30 55 H -0.560559 -5.449124 0.223382 0
M  V30 56 H -1.726402 -6.319597 -0.765276 0
M  V30 57 H -2.126651 -4.141187 1.317243 0
M  V30 58 H -3.014004 -5.625662 0.957934 0
M  V30 59 H -2.163769 -1.838333 1.970827 0
M  V30 60 H -1.083057 0.275296 1.682646 0
M  V30 61 H 0.235627 1.295020 0.527016 0
M  V30 62 H 1.582970 1.638550 2.452542 0
M  V30 END ATOM
M  V30 BEGIN BOND
M  V30 1 1 1 2
M  V30 2 1 2 3
M  V30 3 2 3 4
M  V30 4 1 3 5
M  V30 5 2 5 6
M  V30 6 1 6 7
M  V30 7 2 7 8
M  V30 8 1 8 9
M  V30 9 1 9 10
M  V30 10 2 10 11
M  V30 11 1 11 12
M  V30 12 1 12 13
M  V30 13 2 13 14
M  V30 14 1 14 15
M  V30 15 2 15 16
M  V30 16 1 16 17
M  V30 17 2 17 18
M  V30 18 1 18 19
M  V30 19 2 19 20
M  V30 20 1 20 21
M  V30 21 1 21 22
M  V30 22 1 22 23
M  V30 23 1 23 24
M  V30 24 1 24 25
M  V30 25 1 25 26
M  V30 26 1 25 27
M  V30 27 1 27 28
M  V30 28 1 20 29
M  V30 29 2 29 30
M  V30 30 1 16 31
M  V30 31 2 31 32
M  V30 32 2 9 33
M  V30 33 1 33 5
M  V30 34 1 32 10
M  V30 35 1 32 13
M  V30 36 1 30 17
M  V30 37 1 28 22
M  V30 38 1 1 34
M  V30 39 1 1 35
M  V30 40 1 1 36
M  V30 41 1 2 37
M  V30 42 1 6 38
M  V30 43 1 7 39
M  V30 44 1 8 40
M  V30 45 1 11 41
M  V30 46 1 12 42
M  V30 47 1 15 43
M  V30 48 1 18 44
M  V30 49 1 19 45
M  V30 50 1 21 46
M  V30 51 1 21 47
M  V30 52 1 23 48
M  V30 53 1 23 49
M  V30 54 1 24 50
M  V30 55 1 24 51
M  V30 56 1 26 52
M  V30 57 1 26 53
M  V30 58 1 26 54
M  V30 59 1 27 55
M  V30 60 1 27 56
M  V30 61 1 28 57
M  V30 62 1 28 58
M  V30 63 1 29 59
M  V30 64 1 30 60
M  V30 65 1 31 61
M  V30 66 1 33 62
M  V30 END BOND
M  V30 END CTAB
M  END
>  <Dataset>  (613) 
ChEMBL_Kinases

>  <Ligand_Instance>  (613) 
nan

>  <PDB_ID>  (613) 
nan

>  <Standardized_SMILES>  (613) 
CNC(=O)c1cccc(-c2c[nH]c3ncc(-c4ccc(CN5CCN(C)CC5)cc4)cc23)c1

>  <Name>  (613) 
nan

>  <Pocket>  (613) 
nan

>  <ATP_Site>  (613) 
nan

>  <Peripheral>  (613) 
nan

>  <Num_H_Atoms_ProtBoundConf>  (613) 
nan

>  <Num_Resolved_Atoms>  (613) 
nan

>  <Num_Not_Resolved_Atoms>  (613) 
nan

$$$$
CHEMBL4761769
     RDKit          3D

  0  0  0  0  0  0  0  0  0  0999 V3000
M  V30 BEGIN CTAB
M  V30 COUNTS 48 51 0 0 0
M  V30 BEGIN ATOM
M  V30 1 C -2.401581 -2.593553 -2.857285 0
M  V30 2 N -1.807254 -3.807529 -2.335647 0
M  V30 3 C -2.500704 -4.152188 -1.135652 0
M  V30 4 C -0.374746 -3.706701 -2.224715 0
M  V30 5 C 0.037511 -2.671757 -1.372043 0
M  V30 6 S 0.624212 -1.026464 -1.981384 0
M  V30 7 C 0.899757 -0.342875 -0.346540 0
M  V30 8 N 1.390069 0.992048 -0.036755 0
M  V30 9 C 2.679016 1.526043 0.152525 0
M  V30 10 O 3.779089 0.916525 0.089901 0
M  V30 11 C 2.768086 2.977041 0.463115 0
M  V30 12 C 3.617227 3.241383 1.680654 0
M  V30 13 O 2.907388 3.611844 2.818942 0
M  V30 14 C 1.531971 3.754997 2.893440 0
M  V30 15 C 0.838097 3.906849 4.094050 0
M  V30 16 C -0.544222 4.044531 4.079934 0
M  V30 17 C -1.254363 4.033430 2.878420 0
M  V30 18 C -0.553008 3.881450 1.686090 0
M  V30 19 C 0.804152 3.747760 1.721114 0
M  V30 20 O 1.495988 3.596191 0.521852 0
M  V30 21 N 0.572301 -1.285039 0.478389 0
M  V30 22 C 0.149787 -2.428415 -0.005026 0
M  V30 23 C -0.195321 -3.436021 0.992909 0
M  V30 24 C -1.010419 -3.110879 2.082941 0
M  V30 25 C -1.373535 -4.011908 3.085537 0
M  V30 26 C -0.906615 -5.300084 3.005653 0
M  V30 27 N -0.123571 -5.620188 1.962477 0
M  V30 28 C 0.213177 -4.749284 1.015659 0
M  V30 29 H -1.960016 -1.679166 -2.397828 0
M  V30 30 H -2.367353 -2.556971 -3.963362 0
M  V30 31 H -3.473548 -2.602323 -2.572620 0
M  V30 32 H -2.101395 -5.049541 -0.661892 0
M  V30 33 H -2.678130 -3.291009 -0.457373 0
M  V30 34 H -3.548770 -4.445536 -1.457757 0
M  V30 35 H -0.017664 -3.494611 -3.278118 0
M  V30 36 H 0.066484 -4.673645 -1.976563 0
M  V30 37 H 0.542832 1.563253 0.032011 0
M  V30 38 H 3.256340 3.447260 -0.442108 0
M  V30 39 H 4.311446 4.073056 1.443666 0
M  V30 40 H 4.261988 2.360897 1.911600 0
M  V30 41 H 1.408699 3.913325 5.022189 0
M  V30 42 H -1.005717 4.158598 5.067325 0
M  V30 43 H -2.338985 4.149283 2.978526 0
M  V30 44 H -1.148683 3.878986 0.774632 0
M  V30 45 H -1.412602 -2.098911 2.199904 0
M  V30 46 H -2.006483 -3.687349 3.895937 0
M  V30 47 H -1.157698 -6.035727 3.754005 0
M  V30 48 H 0.850793 -5.084288 0.213993 0
M  V30 END ATOM
M  V30 BEGIN BOND
M  V30 1 1 1 2
M  V30 2 1 2 3
M  V30 3 1 2 4
M  V30 4 1 4 5
M  V30 5 1 5 6
M  V30 6 1 6 7
M  V30 7 1 7 8
M  V30 8 1 8 9
M  V30 9 2 9 10
M  V30 10 1 9 11
M  V30 11 1 11 12
M  V30 12 1 12 13
M  V30 13 1 13 14
M  V30 14 2 14 15
M  V30 15 1 15 16
M  V30 16 2 16 17
M  V30 17 1 17 18
M  V30 18 2 18 19
M  V30 19 1 19 20
M  V30 20 2 7 21
M  V30 21 1 21 22
M  V30 22 1 22 23
M  V30 23 2 23 24
M  V30 24 1 24 25
M  V30 25 2 25 26
M  V30 26 1 26 27
M  V30 27 2 27 28
M  V30 28 2 22 5
M  V30 29 1 28 23
M  V30 30 1 20 11
M  V30 31 1 19 14
M  V30 32 1 1 29
M  V30 33 1 1 30
M  V30 34 1 1 31
M  V30 35 1 3 32
M  V30 36 1 3 33
M  V30 37 1 3 34
M  V30 38 1 4 35
M  V30 39 1 4 36
M  V30 40 1 8 37
M  V30 41 1 11 38
M  V30 42 1 12 39
M  V30 43 1 12 40
M  V30 44 1 15 41
M  V30 45 1 16 42
M  V30 46 1 17 43
M  V30 47 1 18 44
M  V30 48 1 24 45
M  V30 49 1 25 46
M  V30 50 1 26 47
M  V30 51 1 28 48
M  V30 END BOND
M  V30 END CTAB
M  END
>  <Dataset>  (614) 
ChEMBL_Kinases

>  <Ligand_Instance>  (614) 
nan

>  <PDB_ID>  (614) 
nan

>  <Standardized_SMILES>  (614) 
CN(C)Cc1sc(NC(=O)C2COc3ccccc3O2)nc1-c1cccnc1

>  <Name>  (614) 
nan

>  <Pocket>  (614) 
nan

>  <ATP_Site>  (614) 
nan

>  <Peripheral>  (614) 
nan

>  <Num_H_Atoms_ProtBoundConf>  (614) 
nan

>  <Num_Resolved_Atoms>  (614) 
nan

>  <Num_Not_Resolved_Atoms>  (614) 
nan

$$$$
CHEMBL4761779
     RDKit          3D

  0  0  0  0  0  0  0  0  0  0999 V3000
M  V30 BEGIN CTAB
M  V30 COUNTS 55 58 0 0 0
M  V30 BEGIN ATOM
M  V30 1 C 2.055102 -5.214267 1.977257 0
M  V30 2 O 2.663460 -4.135705 2.661363 0
M  V30 3 C 3.150351 -3.063965 1.937819 0
M  V30 4 C 3.750624 -2.001891 2.616061 0
M  V30 5 C 4.245787 -0.913559 1.887675 0
M  V30 6 C 4.142942 -0.883953 0.485881 0
M  V30 7 C 4.730859 0.330204 -0.000954 0
M  V30 8 C 4.221192 1.536574 -0.117115 0
M  V30 9 C 4.836109 2.762092 -0.610272 0
M  V30 10 O 6.035342 2.750974 -0.988175 0
M  V30 11 N 3.835661 3.769627 -0.537931 0
M  V30 12 C 2.652424 3.176260 -0.019026 0
M  V30 13 C 1.437060 3.785402 0.210091 0
M  V30 14 C 0.401732 3.026726 0.712628 0
M  V30 15 C 0.595191 1.668987 0.979056 0
M  V30 16 N -0.583334 1.012556 1.500145 0
M  V30 17 C -1.332261 0.538650 0.388815 0
M  V30 18 O -0.879901 0.753621 -0.770490 0
M  V30 19 C -2.628891 -0.199193 0.574046 0
M  V30 20 C -3.232348 -0.560179 -0.742412 0
M  V30 21 N -4.435633 -1.245171 -0.576535 0
M  V30 22 C -5.565104 -0.611723 -0.060207 0
M  V30 23 C -6.433526 -1.667863 0.629928 0
M  V30 24 O -5.541696 -2.571081 1.231895 0
M  V30 25 C -4.916395 -3.396916 0.299719 0
M  V30 26 C -4.519697 -2.599354 -0.944610 0
M  V30 27 C 1.820717 1.085099 0.741161 0
M  V30 28 C 2.851041 1.839424 0.242529 0
M  V30 29 C 3.545238 -1.946495 -0.155885 0
M  V30 30 C 3.057399 -3.018943 0.562980 0
M  V30 31 H 2.865306 -5.817038 1.505068 0
M  V30 32 H 1.336480 -4.806152 1.237838 0
M  V30 33 H 1.455182 -5.848148 2.678591 0
M  V30 34 H 3.799979 -2.083253 3.689918 0
M  V30 35 H 4.681976 -0.169598 2.552119 0
M  V30 36 H 5.756159 0.194795 -0.313347 0
M  V30 37 H 4.021384 4.749273 -0.834440 0
M  V30 38 H 1.292330 4.835341 0.002432 0
M  V30 39 H -0.539766 3.520316 0.885508 0
M  V30 40 H -0.915748 0.859158 2.462008 0
M  V30 41 H -3.337777 0.343389 1.223729 0
M  V30 42 H -2.383184 -1.154146 1.086951 0
M  V30 43 H -3.355199 0.287933 -1.424378 0
M  V30 44 H -2.504570 -1.258404 -1.250492 0
M  V30 45 H -6.183473 -0.194220 -0.885342 0
M  V30 46 H -5.373306 0.241302 0.620727 0
M  V30 47 H -7.056256 -1.223895 1.420767 0
M  V30 48 H -7.052464 -2.173089 -0.143480 0
M  V30 49 H -3.964908 -3.772560 0.742354 0
M  V30 50 H -5.538293 -4.264313 0.058830 0
M  V30 51 H -5.370105 -2.722966 -1.667776 0
M  V30 52 H -3.592176 -2.942541 -1.397115 0
M  V30 53 H 1.811201 0.064783 0.978114 0
M  V30 54 H 3.529133 -1.801121 -1.225408 0
M  V30 55 H 2.603735 -3.811716 -0.011364 0
M  V30 END ATOM
M  V30 BEGIN BOND
M  V30 1 1 1 2
M  V30 2 1 2 3
M  V30 3 2 3 4
M  V30 4 1 4 5
M  V30 5 2 5 6
M  V30 6 1 6 7
M  V30 7 2 7 8
M  V30 8 1 8 9
M  V30 9 2 9 10
M  V30 10 1 9 11
M  V30 11 1 11 12
M  V30 12 2 12 13
M  V30 13 1 13 14
M  V30 14 2 14 15
M  V30 15 1 15 16
M  V30 16 1 16 17
M  V30 17 2 17 18
M  V30 18 1 17 19
M  V30 19 1 19 20
M  V30 20 1 20 21
M  V30 21 1 21 22
M  V30 22 1 22 23
M  V30 23 1 23 24
M  V30 24 1 24 25
M  V30 25 1 25 26
M  V30 26 1 15 27
M  V30 27 2 27 28
M  V30 28 1 6 29
M  V30 29 2 29 30
M  V30 30 1 30 3
M  V30 31 1 28 8
M  V30 32 1 28 12
M  V30 33 1 26 21
M  V30 34 1 1 31
M  V30 35 1 1 32
M  V30 36 1 1 33
M  V30 37 1 4 34
M  V30 38 1 5 35
M  V30 39 1 7 36
M  V30 40 1 11 37
M  V30 41 1 13 38
M  V30 42 1 14 39
M  V30 43 1 16 40
M  V30 44 1 19 41
M  V30 45 1 19 42
M  V30 46 1 20 43
M  V30 47 1 20 44
M  V30 48 1 22 45
M  V30 49 1 22 46
M  V30 50 1 23 47
M  V30 51 1 23 48
M  V30 52 1 25 49
M  V30 53 1 25 50
M  V30 54 1 26 51
M  V30 55 1 26 52
M  V30 56 1 27 53
M  V30 57 1 29 54
M  V30 58 1 30 55
M  V30 END BOND
M  V30 END CTAB
M  END
>  <Dataset>  (615) 
ChEMBL_Kinases

>  <Ligand_Instance>  (615) 
nan

>  <PDB_ID>  (615) 
nan

>  <Standardized_SMILES>  (615) 
COc1ccc(/C=C2/C(=O)Nc3ccc(NC(=O)CCN4CCOCC4)cc32)cc1

>  <Name>  (615) 
nan

>  <Pocket>  (615) 
nan

>  <ATP_Site>  (615) 
nan

>  <Peripheral>  (615) 
nan

>  <Num_H_Atoms_ProtBoundConf>  (615) 
nan

>  <Num_Resolved_Atoms>  (615) 
nan

>  <Num_Not_Resolved_Atoms>  (615) 
nan

$$$$
CHEMBL4761833
     RDKit          3D

  0  0  0  0  0  0  0  0  0  0999 V3000
M  V30 BEGIN CTAB
M  V30 COUNTS 72 76 0 0 0
M  V30 BEGIN ATOM
M  V30 1 C 7.935410 0.075424 1.909898 0
M  V30 2 C 6.866830 0.087606 0.806564 0
M  V30 3 C 7.646300 -0.070080 -0.499194 0
M  V30 4 N 5.917920 -0.984548 0.990894 0
M  V30 5 C 4.511625 -0.700827 1.113910 0
M  V30 6 C 3.992943 0.453279 0.566308 0
M  V30 7 C 2.637803 0.750990 0.665572 0
M  V30 8 N 2.075927 1.926594 0.091106 0
M  V30 9 C 0.703600 2.269901 0.268800 0
M  V30 10 N 0.292202 3.360818 0.937293 0
M  V30 11 C -1.042738 3.623212 1.076112 0
M  V30 12 C -1.998052 2.774433 0.533467 0
M  V30 13 C -1.575792 1.664091 -0.146623 0
M  V30 14 C -2.449840 0.677641 -0.768883 0
M  V30 15 C -1.848584 -0.386983 -1.411537 0
M  V30 16 C -2.654844 -1.347143 -2.009374 0
M  V30 17 C -4.017141 -1.173183 -1.920887 0
M  V30 18 C -4.657196 -0.129405 -1.290730 0
M  V30 19 N -6.071416 -0.000201 -1.219183 0
M  V30 20 C -7.116973 -0.853287 -1.721944 0
M  V30 21 C -8.440130 -0.179918 -1.452285 0
M  V30 22 C -9.081120 -0.481416 -0.155618 0
M  V30 23 C -8.852917 -1.828991 0.426861 0
M  V30 24 C -8.385995 -2.740329 -0.684629 0
M  V30 25 C -7.002926 -2.198590 -1.088075 0
M  V30 26 C -3.815344 0.782668 -0.722504 0
M  V30 27 N -0.262204 1.488646 -0.231639 0
M  V30 28 C 1.803661 -0.126799 1.325029 0
M  V30 29 C 2.280409 -1.314409 1.900221 0
M  V30 30 C 3.650192 -1.582194 1.779717 0
M  V30 31 N 4.194055 -2.776003 2.335787 0
M  V30 32 C 3.265015 -3.647362 3.013398 0
M  V30 33 C 5.580923 -3.051909 2.207001 0
M  V30 34 O 6.102178 -3.809859 3.046292 0
M  V30 35 C 6.256821 -2.388830 1.062738 0 CFG=1
M  V30 36 C 5.771862 -3.052742 -0.216665 0
M  V30 37 H 7.519002 0.447734 2.860429 0
M  V30 38 H 8.276415 -0.967826 2.026906 0
M  V30 39 H 8.778313 0.663133 1.510360 0
M  V30 40 H 6.403155 1.076888 0.875467 0
M  V30 41 H 7.000270 -0.072743 -1.387642 0
M  V30 42 H 8.279791 -0.981840 -0.385142 0
M  V30 43 H 8.362496 0.781103 -0.568724 0
M  V30 44 H 4.613717 1.147125 0.050762 0
M  V30 45 H 2.736704 2.527677 -0.474141 0
M  V30 46 H -1.287747 4.518509 1.623168 0
M  V30 47 H -3.028366 2.986506 0.648771 0
M  V30 48 H -0.765880 -0.495362 -1.463236 0
M  V30 49 H -2.174738 -2.176324 -2.508288 0
M  V30 50 H -4.562303 -1.957106 -2.416190 0
M  V30 51 H -6.379211 0.867500 -0.707094 0
M  V30 52 H -6.930363 -0.967577 -2.825362 0
M  V30 53 H -9.123089 -0.465926 -2.276132 0
M  V30 54 H -8.325381 0.944518 -1.539706 0
M  V30 55 H -8.687878 0.264958 0.593210 0
M  V30 56 H -10.196028 -0.322015 -0.249953 0
M  V30 57 H -9.807312 -2.255665 0.803840 0
M  V30 58 H -8.126895 -1.822577 1.272295 0
M  V30 59 H -9.120299 -2.650442 -1.501793 0
M  V30 60 H -8.251675 -3.787076 -0.343521 0
M  V30 61 H -6.591131 -2.926764 -1.839489 0
M  V30 62 H -6.399966 -2.234472 -0.160243 0
M  V30 63 H -4.245955 1.636339 -0.206992 0
M  V30 64 H 0.723409 0.064777 1.431153 0
M  V30 65 H 1.610394 -1.984250 2.412808 0
M  V30 66 H 3.848223 -4.515572 3.393066 0
M  V30 67 H 2.479875 -4.055218 2.330830 0
M  V30 68 H 2.799622 -3.055923 3.838205 0
M  V30 69 H 7.351892 -2.573212 1.212768 0
M  V30 70 H 5.403629 -2.289790 -0.966073 0
M  V30 71 H 6.582862 -3.682383 -0.667871 0
M  V30 72 H 4.904253 -3.715133 -0.043012 0
M  V30 END ATOM
M  V30 BEGIN BOND
M  V30 1 1 1 2
M  V30 2 1 2 3
M  V30 3 1 2 4
M  V30 4 1 4 5
M  V30 5 2 5 6
M  V30 6 1 6 7
M  V30 7 1 7 8
M  V30 8 1 8 9
M  V30 9 2 9 10
M  V30 10 1 10 11
M  V30 11 2 11 12
M  V30 12 1 12 13
M  V30 13 1 13 14
M  V30 14 2 14 15
M  V30 15 1 15 16
M  V30 16 2 16 17
M  V30 17 1 17 18
M  V30 18 1 18 19
M  V30 19 1 19 20
M  V30 20 1 20 21
M  V30 21 1 21 22
M  V30 22 1 22 23
M  V30 23 1 23 24
M  V30 24 1 24 25
M  V30 25 2 18 26
M  V30 26 2 13 27
M  V30 27 2 7 28
M  V30 28 1 28 29
M  V30 29 2 29 30
M  V30 30 1 30 31
M  V30 31 1 31 32
M  V30 32 1 31 33
M  V30 33 2 33 34
M  V30 34 1 33 35
M  V30 35 1 35 36
M  V30 36 1 35 4
M  V30 37 1 30 5
M  V30 38 1 27 9
M  V30 39 1 26 14
M  V30 40 1 25 20
M  V30 41 1 1 37
M  V30 42 1 1 38
M  V30 43 1 1 39
M  V30 44 1 2 40
M  V30 45 1 3 41
M  V30 46 1 3 42
M  V30 47 1 3 43
M  V30 48 1 6 44
M  V30 49 1 8 45
M  V30 50 1 11 46
M  V30 51 1 12 47
M  V30 52 1 15 48
M  V30 53 1 16 49
M  V30 54 1 17 50
M  V30 55 1 19 51
M  V30 56 1 20 52
M  V30 57 1 21 53
M  V30 58 1 21 54
M  V30 59 1 22 55
M  V30 60 1 22 56
M  V30 61 1 23 57
M  V30 62 1 23 58
M  V30 63 1 24 59
M  V30 64 1 24 60
M  V30 65 1 25 61
M  V30 66 1 25 62
M  V30 67 1 26 63
M  V30 68 1 28 64
M  V30 69 1 29 65
M  V30 70 1 32 66
M  V30 71 1 32 67
M  V30 72 1 32 68
M  V30 73 1 35 69 CFG=1
M  V30 74 1 36 70
M  V30 75 1 36 71
M  V30 76 1 36 72
M  V30 END BOND
M  V30 END CTAB
M  END
>  <Dataset>  (616) 
ChEMBL_Kinases

>  <Ligand_Instance>  (616) 
nan

>  <PDB_ID>  (616) 
nan

>  <Standardized_SMILES>  (616) 
CC(C)N1c2cc(Nc3nccc(-c4cccc(NC5CCCCC5)c4)n3)ccc2N(C)C(=O)[C@H]1C

>  <Name>  (616) 
nan

>  <Pocket>  (616) 
nan

>  <ATP_Site>  (616) 
nan

>  <Peripheral>  (616) 
nan

>  <Num_H_Atoms_ProtBoundConf>  (616) 
nan

>  <Num_Resolved_Atoms>  (616) 
nan

>  <Num_Not_Resolved_Atoms>  (616) 
nan

$$$$
CHEMBL4761851
     RDKit          3D

  0  0  0  0  0  0  0  0  0  0999 V3000
M  V30 BEGIN CTAB
M  V30 COUNTS 61 63 0 0 0
M  V30 BEGIN ATOM
M  V30 1 C 6.158785 -5.703100 4.045203 0
M  V30 2 N 5.531156 -4.476334 4.455002 0
M  V30 3 C 5.438980 -3.264866 3.682637 0
M  V30 4 O 5.965951 -3.318247 2.550128 0
M  V30 5 C 4.770216 -2.083192 4.220606 0
M  V30 6 C 4.736820 -0.973623 3.398836 0
M  V30 7 C 4.108619 0.153157 3.890798 0
M  V30 8 O 3.942438 1.371623 3.277406 0
M  V30 9 C 2.810112 1.601574 2.500761 0
M  V30 10 C 2.964736 1.265358 1.171237 0
M  V30 11 C 1.937090 1.431539 0.266164 0
M  V30 12 C 0.729456 1.945572 0.703648 0
M  V30 13 N -0.441239 2.187409 -0.078529 0
M  V30 14 C -1.382388 1.116857 -0.179825 0
M  V30 15 O -1.126251 0.039514 0.418835 0
M  V30 16 N -2.622294 1.121870 -0.903899 0
M  V30 17 C -3.382995 -0.106593 -0.833875 0
M  V30 18 C -4.238236 -0.042907 0.247817 0
M  V30 19 C -5.061796 -1.138428 0.486574 0
M  V30 20 C -6.025114 -1.197981 1.613530 0
M  V30 21 F -6.026975 -0.074818 2.394876 0
M  V30 22 F -7.297808 -1.310657 1.075561 0
M  V30 23 F -5.719451 -2.320181 2.362136 0
M  V30 24 C -5.030374 -2.247321 -0.320633 0
M  V30 25 Cl -6.011106 -3.683449 -0.127404 0
M  V30 26 C -4.158405 -2.253953 -1.382550 0
M  V30 27 C -3.310467 -1.217748 -1.692920 0
M  V30 28 O -2.378554 -0.946710 -2.633505 0
M  V30 29 C -1.920166 -1.678187 -3.714553 0
M  V30 30 C -3.005782 -1.948885 -4.724175 0
M  V30 31 C -3.568772 -0.645378 -5.259713 0
M  V30 32 C -2.543721 0.189428 -5.928078 0
M  V30 33 O -3.075442 1.250299 -6.356645 0
M  V30 34 O -1.629530 1.006264 -6.561699 0
M  V30 35 C 0.574709 2.282341 2.035496 0
M  V30 36 C 1.595592 2.120265 2.948891 0
M  V30 37 C 3.553508 0.122985 5.154248 0
M  V30 38 C 3.595194 -0.996939 5.965902 0
M  V30 39 N 4.221678 -2.090478 5.450877 0
M  V30 40 H 6.760265 -6.121912 4.869757 0
M  V30 41 H 6.770309 -5.625416 3.144821 0
M  V30 42 H 5.355706 -6.457244 3.848499 0
M  V30 43 H 5.103963 -4.494221 5.422369 0
M  V30 44 H 5.140395 -0.872483 2.416144 0
M  V30 45 H 3.884955 0.856133 0.755449 0
M  V30 46 H 1.967497 1.197019 -0.788372 0
M  V30 47 H -0.752700 3.039421 -0.615114 0
M  V30 48 H -2.828746 2.033572 -1.404783 0
M  V30 49 H -4.375975 0.734067 0.954102 0
M  V30 50 H -4.048422 -3.075760 -2.065989 0
M  V30 51 H -1.472395 -2.652455 -3.344841 0
M  V30 52 H -1.059838 -1.193824 -4.236019 0
M  V30 53 H -3.842057 -2.496678 -4.293488 0
M  V30 54 H -2.588236 -2.517527 -5.607961 0
M  V30 55 H -4.390055 -0.917979 -5.982342 0
M  V30 56 H -4.043809 -0.099080 -4.439070 0
M  V30 57 H -0.742182 0.583161 -6.876562 0
M  V30 58 H -0.335286 2.690041 2.461134 0
M  V30 59 H 1.583642 2.347436 3.999117 0
M  V30 60 H 3.032014 0.958585 5.643313 0
M  V30 61 H 3.174967 -1.061552 6.956098 0
M  V30 END ATOM
M  V30 BEGIN BOND
M  V30 1 1 1 2
M  V30 2 1 2 3
M  V30 3 2 3 4
M  V30 4 1 3 5
M  V30 5 2 5 6
M  V30 6 1 6 7
M  V30 7 1 7 8
M  V30 8 1 8 9
M  V30 9 2 9 10
M  V30 10 1 10 11
M  V30 11 2 11 12
M  V30 12 1 12 13
M  V30 13 1 13 14
M  V30 14 2 14 15
M  V30 15 1 14 16
M  V30 16 1 16 17
M  V30 17 2 17 18
M  V30 18 1 18 19
M  V30 19 1 19 20
M  V30 20 1 20 21
M  V30 21 1 20 22
M  V30 22 1 20 23
M  V30 23 2 19 24
M  V30 24 1 24 25
M  V30 25 1 24 26
M  V30 26 2 26 27
M  V30 27 1 27 28
M  V30 28 1 28 29
M  V30 29 1 29 30
M  V30 30 1 30 31
M  V30 31 1 31 32
M  V30 32 2 32 33
M  V30 33 1 32 34
M  V30 34 1 12 35
M  V30 35 2 35 36
M  V30 36 2 7 37
M  V30 37 1 37 38
M  V30 38 2 38 39
M  V30 39 1 39 5
M  V30 40 1 36 9
M  V30 41 1 27 17
M  V30 42 1 1 40
M  V30 43 1 1 41
M  V30 44 1 1 42
M  V30 45 1 2 43
M  V30 46 1 6 44
M  V30 47 1 10 45
M  V30 48 1 11 46
M  V30 49 1 13 47
M  V30 50 1 16 48
M  V30 51 1 18 49
M  V30 52 1 26 50
M  V30 53 1 29 51
M  V30 54 1 29 52
M  V30 55 1 30 53
M  V30 56 1 30 54
M  V30 57 1 31 55
M  V30 58 1 31 56
M  V30 59 1 34 57
M  V30 60 1 35 58
M  V30 61 1 36 59
M  V30 62 1 37 60
M  V30 63 1 38 61
M  V30 END BOND
M  V30 END CTAB
M  END
>  <Dataset>  (617) 
ChEMBL_Kinases

>  <Ligand_Instance>  (617) 
nan

>  <PDB_ID>  (617) 
nan

>  <Standardized_SMILES>  (617) 
CNC(=O)c1cc(Oc2ccc(NC(=O)Nc3cc(C(F)(F)F)c(Cl)cc3OCCCC(=O)O)cc2)ccn1

>  <Name>  (617) 
nan

>  <Pocket>  (617) 
nan

>  <ATP_Site>  (617) 
nan

>  <Peripheral>  (617) 
nan

>  <Num_H_Atoms_ProtBoundConf>  (617) 
nan

>  <Num_Resolved_Atoms>  (617) 
nan

>  <Num_Not_Resolved_Atoms>  (617) 
nan

$$$$
CHEMBL4280027
     RDKit          3D

  0  0  0  0  0  0  0  0  0  0999 V3000
M  V30 BEGIN CTAB
M  V30 COUNTS 52 55 0 0 0
M  V30 BEGIN ATOM
M  V30 1 C 1.059539 -2.816207 3.980118 0
M  V30 2 N 2.145504 -3.277488 3.113653 0
M  V30 3 C 2.654007 -2.123444 2.440388 0
M  V30 4 C 3.483350 -2.454583 1.232550 0
M  V30 5 C 2.686521 -3.348886 0.274545 0
M  V30 6 C 1.425881 -2.561090 0.018236 0
M  V30 7 N 1.335703 -1.429565 -0.292801 0
M  V30 8 C 0.223472 -0.756872 -0.522260 0
M  V30 9 C -0.029642 0.631403 -0.896208 0
M  V30 10 C -0.681003 1.092948 -2.017714 0
M  V30 11 C -0.797637 2.465304 -2.163476 0
M  V30 12 C -0.281708 3.317431 -1.223173 0
M  V30 13 C 0.371566 2.864105 -0.098739 0
M  V30 14 S 1.023537 4.000223 1.088539 0
M  V30 15 C -0.158677 4.304544 2.368156 0
M  V30 16 O 2.288989 3.495369 1.701206 0
M  V30 17 O 1.250566 5.300946 0.367423 0
M  V30 18 C 0.500319 1.500935 0.068743 0
M  V30 19 C -0.939710 -1.414306 -0.394321 0
M  V30 20 C -2.408358 -1.225207 -0.501389 0
M  V30 21 C -3.077410 -0.461924 0.426777 0
M  V30 22 C -4.424778 -0.349766 0.233909 0
M  V30 23 N -5.090451 -0.929449 -0.780711 0
M  V30 24 C -4.411674 -1.672046 -1.677110 0
M  V30 25 N -4.943460 -2.356244 -2.812842 0
M  V30 26 N -3.073271 -1.804453 -1.515567 0
M  V30 27 S -0.376284 -3.112526 0.089859 0
M  V30 28 C 2.407533 -4.601447 1.033756 0
M  V30 29 C 1.657257 -4.329725 2.291094 0
M  V30 30 H 1.001287 -3.410187 4.921535 0
M  V30 31 H 0.095875 -2.825634 3.422572 0
M  V30 32 H 1.220005 -1.747261 4.289894 0
M  V30 33 H 1.848369 -1.383514 2.200723 0
M  V30 34 H 3.343106 -1.587078 3.156120 0
M  V30 35 H 4.337080 -3.079835 1.576986 0
M  V30 36 H 3.784442 -1.519706 0.760391 0
M  V30 37 H 3.298609 -3.440491 -0.625550 0
M  V30 38 H -1.043109 0.317073 -2.686520 0
M  V30 39 H -1.313550 2.797312 -3.054759 0
M  V30 40 H -0.401239 4.383486 -1.387250 0
M  V30 41 H 0.040430 3.674674 3.273589 0
M  V30 42 H -1.208004 4.256431 2.026971 0
M  V30 43 H -0.017680 5.356063 2.724046 0
M  V30 44 H 1.022916 1.215379 0.970443 0
M  V30 45 H -2.606991 0.016554 1.245959 0
M  V30 46 H -5.098540 0.218360 0.880685 0
M  V30 47 H -5.337793 -3.324811 -2.662397 0
M  V30 48 H -4.944651 -1.918819 -3.762184 0
M  V30 49 H 1.831922 -5.358178 0.456526 0
M  V30 50 H 3.390362 -5.032425 1.333133 0
M  V30 51 H 1.738486 -5.273004 2.916705 0
M  V30 52 H 0.563327 -4.178908 2.173432 0
M  V30 END ATOM
M  V30 BEGIN BOND
M  V30 1 1 1 2
M  V30 2 1 2 3
M  V30 3 1 3 4
M  V30 4 1 4 5
M  V30 5 1 5 6
M  V30 6 2 6 7
M  V30 7 1 7 8
M  V30 8 1 8 9
M  V30 9 2 9 10
M  V30 10 1 10 11
M  V30 11 2 11 12
M  V30 12 1 12 13
M  V30 13 1 13 14
M  V30 14 1 14 15
M  V30 15 2 14 16
M  V30 16 2 14 17
M  V30 17 2 13 18
M  V30 18 2 8 19
M  V30 19 1 19 20
M  V30 20 2 20 21
M  V30 21 1 21 22
M  V30 22 2 22 23
M  V30 23 1 23 24
M  V30 24 1 24 25
M  V30 25 2 24 26
M  V30 26 1 19 27
M  V30 27 1 5 28
M  V30 28 1 28 29
M  V30 29 1 29 2
M  V30 30 1 27 6
M  V30 31 1 18 9
M  V30 32 1 26 20
M  V30 33 1 1 30
M  V30 34 1 1 31
M  V30 35 1 1 32
M  V30 36 1 3 33
M  V30 37 1 3 34
M  V30 38 1 4 35
M  V30 39 1 4 36
M  V30 40 1 5 37
M  V30 41 1 10 38
M  V30 42 1 11 39
M  V30 43 1 12 40
M  V30 44 1 15 41
M  V30 45 1 15 42
M  V30 46 1 15 43
M  V30 47 1 18 44
M  V30 48 1 21 45
M  V30 49 1 22 46
M  V30 50 1 25 47
M  V30 51 1 25 48
M  V30 52 1 28 49
M  V30 53 1 28 50
M  V30 54 1 29 51
M  V30 55 1 29 52
M  V30 END BOND
M  V30 END CTAB
M  END
>  <Dataset>  (618) 
ChEMBL_Kinases

>  <Ligand_Instance>  (618) 
nan

>  <PDB_ID>  (618) 
nan

>  <Standardized_SMILES>  (618) 
CN1CCC(c2nc(-c3cccc(S(C)(=O)=O)c3)c(-c3ccnc(N)n3)s2)CC1

>  <Name>  (618) 
nan

>  <Pocket>  (618) 
nan

>  <ATP_Site>  (618) 
nan

>  <Peripheral>  (618) 
nan

>  <Num_H_Atoms_ProtBoundConf>  (618) 
nan

>  <Num_Resolved_Atoms>  (618) 
nan

>  <Num_Not_Resolved_Atoms>  (618) 
nan

$$$$
CHEMBL4761447
     RDKit          3D

  0  0  0  0  0  0  0  0  0  0999 V3000
M  V30 BEGIN CTAB
M  V30 COUNTS 63 65 0 0 0
M  V30 BEGIN ATOM
M  V30 1 N 5.950930 2.642748 5.996884 0
M  V30 2 C 5.690338 1.765652 4.829475 0
M  V30 3 C 7.008075 1.173965 4.452157 0
M  V30 4 O 6.996662 0.351180 3.435813 0
M  V30 5 C 6.732043 0.509449 2.160697 0
M  V30 6 C 5.426583 0.985097 1.645934 0
M  V30 7 O 4.325918 0.229783 1.972679 0
M  V30 8 C 4.389679 -1.075431 1.515786 0
M  V30 9 C 4.505930 -1.150173 0.009351 0
M  V30 10 O 3.404560 -0.546888 -0.546588 0
M  V30 11 C 3.413192 -0.556500 -1.940321 0
M  V30 12 C 2.125214 0.148361 -2.359543 0
M  V30 13 C 0.960552 -0.603671 -1.816013 0
M  V30 14 O 1.542487 -1.567971 -1.218501 0
M  V30 15 N -0.421316 -0.359465 -1.908374 0
M  V30 16 C -1.079385 -1.447039 -1.173868 0
M  V30 17 C -2.570238 -1.234565 -1.236979 0
M  V30 18 C -3.302491 -2.326863 -0.492170 0
M  V30 19 N -4.742716 -2.160907 -0.528263 0
M  V30 20 C -5.463252 -2.724583 -1.528479 0
M  V30 21 O -4.855076 -3.385774 -2.410838 0
M  V30 22 C -6.834564 -2.542325 -1.526255 0
M  V30 23 C -7.554361 -3.122097 -2.550372 0
M  V30 24 C -8.917919 -2.921459 -2.518131 0
M  V30 25 F -9.630914 -3.491441 -3.526280 0
M  V30 26 C -9.613078 -2.197701 -1.557960 0
M  V30 27 C -8.834550 -1.632046 -0.543594 0
M  V30 28 C -7.474214 -1.814071 -0.548275 0
M  V30 29 N -6.716336 -1.280070 0.414258 0
M  V30 30 C -7.024279 -0.537626 1.479408 0
M  V30 31 S -8.428747 0.031913 2.062956 0
M  V30 32 N -5.885819 -0.257294 2.132782 0
M  V30 33 N -4.871484 -0.818090 1.484758 0
M  V30 34 C -5.384694 -1.452530 0.418975 0
M  V30 35 H 4.980652 2.882988 6.342506 0
M  V30 36 H 6.345135 3.526746 5.563384 0
M  V30 37 H 4.963060 0.982304 5.143398 0
M  V30 38 H 5.191984 2.356566 4.060196 0
M  V30 39 H 7.355069 0.586738 5.378614 0
M  V30 40 H 7.811397 1.977678 4.417006 0
M  V30 41 H 7.491489 1.284462 1.758006 0
M  V30 42 H 7.001129 -0.391541 1.517044 0
M  V30 43 H 5.554335 1.006377 0.505328 0
M  V30 44 H 5.261248 2.037778 1.879945 0
M  V30 45 H 3.413539 -1.553585 1.765176 0
M  V30 46 H 5.178118 -1.687773 1.951817 0
M  V30 47 H 4.433300 -2.239634 -0.271170 0
M  V30 48 H 5.481236 -0.824783 -0.384522 0
M  V30 49 H 4.298839 -0.058975 -2.369991 0
M  V30 50 H 3.378012 -1.598445 -2.331085 0
M  V30 51 H 2.148683 1.198631 -1.960694 0
M  V30 52 H 2.014788 0.181314 -3.462010 0
M  V30 53 H -0.624529 0.503346 -2.456550 0
M  V30 54 H -0.834674 -2.427026 -1.643647 0
M  V30 55 H -0.747203 -1.458353 -0.125448 0
M  V30 56 H -2.887626 -0.275028 -0.822015 0
M  V30 57 H -2.904884 -1.269877 -2.304589 0
M  V30 58 H -3.054923 -3.325945 -0.951555 0
M  V30 59 H -2.891041 -2.375220 0.537825 0
M  V30 60 H -7.093456 -3.693949 -3.326461 0
M  V30 61 H -10.701783 -2.119945 -1.657648 0
M  V30 62 H -9.404307 -1.082221 0.176822 0
M  V30 63 H -5.679781 0.293236 3.009498 0
M  V30 END ATOM
M  V30 BEGIN BOND
M  V30 1 1 1 2
M  V30 2 1 2 3
M  V30 3 1 3 4
M  V30 4 1 4 5
M  V30 5 1 5 6
M  V30 6 1 6 7
M  V30 7 1 7 8
M  V30 8 1 8 9
M  V30 9 1 9 10
M  V30 10 1 10 11
M  V30 11 1 11 12
M  V30 12 1 12 13
M  V30 13 2 13 14
M  V30 14 1 13 15
M  V30 15 1 15 16
M  V30 16 1 16 17
M  V30 17 1 17 18
M  V30 18 1 18 19
M  V30 19 1 19 20
M  V30 20 2 20 21
M  V30 21 1 20 22
M  V30 22 2 22 23
M  V30 23 1 23 24
M  V30 24 1 24 25
M  V30 25 2 24 26
M  V30 26 1 26 27
M  V30 27 2 27 28
M  V30 28 1 28 29
M  V30 29 1 29 30
M  V30 30 2 30 31
M  V30 31 1 30 32
M  V30 32 1 32 33
M  V30 33 2 33 34
M  V30 34 1 34 19
M  V30 35 1 28 22
M  V30 36 1 34 29
M  V30 37 1 1 35
M  V30 38 1 1 36
M  V30 39 1 2 37
M  V30 40 1 2 38
M  V30 41 1 3 39
M  V30 42 1 3 40
M  V30 43 1 5 41
M  V30 44 1 5 42
M  V30 45 1 6 43
M  V30 46 1 6 44
M  V30 47 1 8 45
M  V30 48 1 8 46
M  V30 49 1 9 47
M  V30 50 1 9 48
M  V30 51 1 11 49
M  V30 52 1 11 50
M  V30 53 1 12 51
M  V30 54 1 12 52
M  V30 55 1 15 53
M  V30 56 1 16 54
M  V30 57 1 16 55
M  V30 58 1 17 56
M  V30 59 1 17 57
M  V30 60 1 18 58
M  V30 61 1 18 59
M  V30 62 1 23 60
M  V30 63 1 26 61
M  V30 64 1 27 62
M  V30 65 1 32 63
M  V30 END BOND
M  V30 END CTAB
M  END
>  <Dataset>  (619) 
ChEMBL_Kinases

>  <Ligand_Instance>  (619) 
nan

>  <PDB_ID>  (619) 
nan

>  <Standardized_SMILES>  (619) 
NCCOCCOCCOCCC(=O)NCCCn1c(=O)c2cc(F)ccc2n2c(=S)[nH]nc12

>  <Name>  (619) 
nan

>  <Pocket>  (619) 
nan

>  <ATP_Site>  (619) 
nan

>  <Peripheral>  (619) 
nan

>  <Num_H_Atoms_ProtBoundConf>  (619) 
nan

>  <Num_Resolved_Atoms>  (619) 
nan

>  <Num_Not_Resolved_Atoms>  (619) 
nan

$$$$
CHEMBL4762704
     RDKit          3D

  0  0  0  0  0  0  0  0  0  0999 V3000
M  V30 BEGIN CTAB
M  V30 COUNTS 58 65 0 0 0
M  V30 BEGIN ATOM
M  V30 1 C 3.567122 -2.203700 3.749488 0
M  V30 2 O 2.903810 -1.291025 2.979990 0
M  V30 3 C 1.937994 -1.780998 2.130980 0 CFG=2
M  V30 4 C 2.341487 -1.792844 0.674699 0 CFG=1
M  V30 5 O 3.675835 -2.194746 0.529855 0
M  V30 6 C 1.475944 -2.829027 0.035542 0 CFG=1
M  V30 7 O 2.098704 -4.085328 0.237611 0
M  V30 8 C 0.088615 -2.986283 0.583137 0 CFG=1
M  V30 9 O -0.221416 -2.387501 1.761421 0
M  V30 10 C 0.571499 -1.354321 2.247701 0 CFG=1
M  V30 11 C 0.231110 -1.369892 3.760507 0
M  V30 12 N 0.089535 -0.134021 1.675329 0
M  V30 13 C 0.124911 1.135184 2.113581 0
M  V30 14 C 0.708974 1.659140 3.244162 0
M  V30 15 C 0.651128 3.005011 3.530347 0
M  V30 16 C 0.009859 3.901393 2.706664 0
M  V30 17 C -0.573242 3.377289 1.575413 0
M  V30 18 C -0.514371 2.036771 1.292684 0
M  V30 19 C -0.990096 1.294340 0.251952 0
M  V30 20 C -1.710810 1.619891 -0.881831 0
M  V30 21 C -2.064639 0.646690 -1.787667 0
M  V30 22 C -1.697523 -0.642834 -1.560150 0
M  V30 23 C -1.872170 -1.773315 -2.258918 0
M  V30 24 C -2.451244 -2.199574 -3.405802 0
M  V30 25 C -2.462988 -3.491040 -3.882082 0
M  V30 26 C -1.818055 -4.471991 -3.118803 0
M  V30 27 C -1.208303 -4.065101 -1.925944 0
M  V30 28 C -1.244119 -2.760493 -1.526859 0
M  V30 29 N -0.707684 -2.244735 -0.421278 0
M  V30 30 C -0.983168 -0.928435 -0.424109 0
M  V30 31 C -0.616588 0.025284 0.505764 0
M  V30 32 C -2.800558 1.284080 -2.847398 0
M  V30 33 O -3.344230 0.906150 -3.893012 0
M  V30 34 N -2.885435 2.664462 -2.565031 0
M  V30 35 C -2.202767 2.950817 -1.313987 0
M  V30 36 H 4.087082 -2.933626 3.065816 0
M  V30 37 H 4.409236 -1.667848 4.248804 0
M  V30 38 H 3.010517 -2.699395 4.540541 0
M  V30 39 H 2.010297 -2.869370 2.381283 0
M  V30 40 H 2.257559 -0.825401 0.169613 0
M  V30 41 H 4.176828 -1.682941 -0.132240 0
M  V30 42 H 1.532790 -2.696853 -1.063546 0
M  V30 43 H 2.850123 -4.207945 -0.393767 0
M  V30 44 H -0.253124 -4.047226 0.533384 0
M  V30 45 H -0.489896 -0.560547 3.964890 0
M  V30 46 H -0.319561 -2.310491 3.991390 0
M  V30 47 H 1.126773 -1.247290 4.359377 0
M  V30 48 H 1.235535 0.996986 3.906756 0
M  V30 49 H 1.109114 3.444503 4.426279 0
M  V30 50 H -0.070861 4.962773 2.873749 0
M  V30 51 H -1.084205 4.031720 0.901355 0
M  V30 52 H -2.960907 -1.516782 -4.041189 0
M  V30 53 H -2.920513 -3.830433 -4.789170 0
M  V30 54 H -1.772686 -5.512367 -3.408152 0
M  V30 55 H -0.720215 -4.837404 -1.358870 0
M  V30 56 H -3.311342 3.470129 -3.041177 0
M  V30 57 H -1.348118 3.643859 -1.474931 0
M  V30 58 H -2.916939 3.338794 -0.546888 0
M  V30 END ATOM
M  V30 BEGIN BOND
M  V30 1 1 1 2
M  V30 2 1 2 3
M  V30 3 1 3 4
M  V30 4 1 4 5
M  V30 5 1 4 6
M  V30 6 1 6 7
M  V30 7 1 6 8
M  V30 8 1 8 9
M  V30 9 1 9 10
M  V30 10 1 10 11 CFG=1
M  V30 11 1 10 12
M  V30 12 1 12 13
M  V30 13 2 13 14
M  V30 14 1 14 15
M  V30 15 2 15 16
M  V30 16 1 16 17
M  V30 17 2 17 18
M  V30 18 1 18 19
M  V30 19 2 19 20
M  V30 20 1 20 21
M  V30 21 2 21 22
M  V30 22 1 22 23
M  V30 23 2 23 24
M  V30 24 1 24 25
M  V30 25 2 25 26
M  V30 26 1 26 27
M  V30 27 2 27 28
M  V30 28 1 28 29
M  V30 29 1 29 30
M  V30 30 2 30 31
M  V30 31 1 21 32
M  V30 32 2 32 33
M  V30 33 1 32 34
M  V30 34 1 34 35
M  V30 35 1 10 3
M  V30 36 1 31 12
M  V30 37 1 29 8
M  V30 38 1 18 13
M  V30 39 1 31 19
M  V30 40 1 35 20
M  V30 41 1 30 22
M  V30 42 1 28 23
M  V30 43 1 1 36
M  V30 44 1 1 37
M  V30 45 1 1 38
M  V30 46 1 3 39 CFG=1
M  V30 47 1 4 40 CFG=3
M  V30 48 1 5 41
M  V30 49 1 6 42 CFG=3
M  V30 50 1 7 43
M  V30 51 1 8 44 CFG=1
M  V30 52 1 11 45
M  V30 53 1 11 46
M  V30 54 1 11 47
M  V30 55 1 14 48
M  V30 56 1 15 49
M  V30 57 1 16 50
M  V30 58 1 17 51
M  V30 59 1 24 52
M  V30 60 1 25 53
M  V30 61 1 26 54
M  V30 62 1 27 55
M  V30 63 1 34 56
M  V30 64 1 35 57
M  V30 65 1 35 58
M  V30 END BOND
M  V30 END CTAB
M  END
>  <Dataset>  (620) 
ChEMBL_Kinases

>  <Ligand_Instance>  (620) 
nan

>  <PDB_ID>  (620) 
nan

>  <Standardized_SMILES>  (620) 
CO[C@@H]1[C@@H](O)[C@@H](O)[C@H]2O[C@]1(C)n1c3ccccc3c3c4c(c5c6ccccc6n2c5c31)C(=O)NC4

>  <Name>  (620) 
nan

>  <Pocket>  (620) 
nan

>  <ATP_Site>  (620) 
nan

>  <Peripheral>  (620) 
nan

>  <Num_H_Atoms_ProtBoundConf>  (620) 
nan

>  <Num_Resolved_Atoms>  (620) 
nan

>  <Num_Not_Resolved_Atoms>  (620) 
nan

$$$$
CHEMBL4277903
     RDKit          3D

  0  0  0  0  0  0  0  0  0  0999 V3000
M  V30 BEGIN CTAB
M  V30 COUNTS 38 39 0 0 0
M  V30 BEGIN ATOM
M  V30 1 C -1.117162 -5.994412 0.947976 0
M  V30 2 C -0.323374 -4.739152 0.815570 0
M  V30 3 C 1.036521 -4.777354 0.912154 0
M  V30 4 C 1.732554 -3.592610 0.783883 0
M  V30 5 C 3.216688 -3.597129 0.883829 0
M  V30 6 C 1.071951 -2.403975 0.564293 0
M  V30 7 C -0.295837 -2.318811 0.459765 0
M  V30 8 N -1.056147 -1.144257 0.220702 0
M  V30 9 C -0.488853 0.073515 -0.179021 0
M  V30 10 N 0.410074 0.125016 -1.079583 0
M  V30 11 N -0.877420 1.300641 0.367387 0
M  V30 12 C -0.101441 2.478915 0.540521 0
M  V30 13 C 1.228930 2.616534 0.222370 0
M  V30 14 C 1.985308 3.751435 0.391856 0
M  V30 15 C 1.388744 4.861813 0.923357 0
M  V30 16 C 0.056458 4.784819 1.262350 0
M  V30 17 C -0.673527 3.629832 1.078928 0
M  V30 18 C -2.123945 3.622085 1.475254 0
M  V30 19 F -2.468457 4.866011 1.978206 0
M  V30 20 F -2.953670 3.360596 0.412512 0
M  V30 21 F -2.319522 2.689148 2.500492 0
M  V30 22 C -0.947009 -3.530205 0.595227 0
M  V30 23 H -1.699118 -6.141654 0.003121 0
M  V30 24 H -1.827918 -5.843346 1.804817 0
M  V30 25 H -0.453466 -6.839598 1.131607 0
M  V30 26 H 1.607214 -5.678301 1.083264 0
M  V30 27 H 3.704033 -4.052829 -0.004673 0
M  V30 28 H 3.537720 -4.165926 1.759472 0
M  V30 29 H 3.601528 -2.569240 1.014860 0
M  V30 30 H 1.648300 -1.494914 0.479387 0
M  V30 31 H -2.110878 -1.172492 0.358356 0
M  V30 32 H 0.740474 -0.738851 -1.537402 0
M  V30 33 H -1.889460 1.349297 0.696992 0
M  V30 34 H 1.762242 1.782623 -0.195569 0
M  V30 35 H 3.019666 3.803487 0.126137 0
M  V30 36 H 1.947758 5.767214 1.070697 0
M  V30 37 H -0.457093 5.649076 1.689577 0
M  V30 38 H -2.037147 -3.538135 0.523508 0
M  V30 END ATOM
M  V30 BEGIN BOND
M  V30 1 1 1 2
M  V30 2 2 2 3
M  V30 3 1 3 4
M  V30 4 1 4 5
M  V30 5 2 4 6
M  V30 6 1 6 7
M  V30 7 1 7 8
M  V30 8 1 8 9
M  V30 9 2 9 10 CFG=2
M  V30 10 1 9 11
M  V30 11 1 11 12
M  V30 12 2 12 13
M  V30 13 1 13 14
M  V30 14 2 14 15
M  V30 15 1 15 16
M  V30 16 2 16 17
M  V30 17 1 17 18
M  V30 18 1 18 19
M  V30 19 1 18 20
M  V30 20 1 18 21
M  V30 21 2 7 22
M  V30 22 1 22 2
M  V30 23 1 17 12
M  V30 24 1 1 23
M  V30 25 1 1 24
M  V30 26 1 1 25
M  V30 27 1 3 26
M  V30 28 1 5 27
M  V30 29 1 5 28
M  V30 30 1 5 29
M  V30 31 1 6 30
M  V30 32 1 8 31
M  V30 33 1 10 32
M  V30 34 1 11 33
M  V30 35 1 13 34
M  V30 36 1 14 35
M  V30 37 1 15 36
M  V30 38 1 16 37
M  V30 39 1 22 38
M  V30 END BOND
M  V30 END CTAB
M  END
>  <Dataset>  (621) 
ChEMBL_Kinases

>  <Ligand_Instance>  (621) 
nan

>  <PDB_ID>  (621) 
nan

>  <Standardized_SMILES>  (621) 
Cc1cc(C)cc(NC(=N)Nc2ccccc2C(F)(F)F)c1

>  <Name>  (621) 
nan

>  <Pocket>  (621) 
nan

>  <ATP_Site>  (621) 
nan

>  <Peripheral>  (621) 
nan

>  <Num_H_Atoms_ProtBoundConf>  (621) 
nan

>  <Num_Resolved_Atoms>  (621) 
nan

>  <Num_Not_Resolved_Atoms>  (621) 
nan

$$$$
CHEMBL4277900
     RDKit          3D

  0  0  0  0  0  0  0  0  0  0999 V3000
M  V30 BEGIN CTAB
M  V30 COUNTS 66 71 0 0 0
M  V30 BEGIN ATOM
M  V30 1 C 1.476426 -0.649158 6.796912 0
M  V30 2 C 1.905702 -1.020135 5.422666 0
M  V30 3 N 2.981338 -1.702687 5.297199 0
M  V30 4 C 3.254991 -1.975799 3.930849 0
M  V30 5 C 4.308561 -2.676246 3.385379 0
M  V30 6 F 5.289212 -3.233763 4.133467 0
M  V30 7 C 4.384557 -2.826069 2.016790 0
M  V30 8 C 3.404889 -2.270268 1.242081 0
M  V30 9 C 3.278220 -2.306292 -0.233045 0
M  V30 10 N 2.976263 -1.206516 -0.973621 0
M  V30 11 C 2.847168 -1.200677 -2.298471 0
M  V30 12 N 2.530415 0.119621 -2.727739 0
M  V30 13 C 1.145565 0.444612 -2.675284 0
M  V30 14 C 0.665698 1.680189 -3.047735 0
M  V30 15 C -0.651862 2.081138 -3.022300 0
M  V30 16 C -1.573617 1.168287 -2.586048 0
M  V30 17 C -3.047024 1.356871 -2.450653 0
M  V30 18 C -3.432402 1.074217 -1.054136 0
M  V30 19 C -4.263677 -0.114599 -0.771820 0
M  V30 20 N -4.639954 -0.947935 -1.843240 0
M  V30 21 C -4.227349 -2.300691 -1.837109 0
M  V30 22 C -4.835379 -0.300049 -3.069469 0
M  V30 23 C -3.718231 0.581095 -3.532905 0
M  V30 24 C -1.121838 -0.095131 -2.200432 0
M  V30 25 N 0.183848 -0.395604 -2.259827 0
M  V30 26 N 3.027680 -2.363093 -2.953252 0
M  V30 27 C 3.330018 -3.498737 -2.289228 0
M  V30 28 C 3.461900 -3.493268 -0.911217 0
M  V30 29 F 3.766048 -4.652795 -0.278650 0
M  V30 30 C 2.346534 -1.566312 1.791730 0
M  V30 31 C 2.231983 -1.391690 3.175838 0
M  V30 32 C 1.265932 -0.717941 4.099889 0
M  V30 33 C -0.108284 -1.307468 3.998717 0
M  V30 34 C -1.069509 -0.180837 3.764928 0
M  V30 35 C -0.264277 1.046440 3.420301 0
M  V30 36 C 1.157490 0.750632 3.845278 0
M  V30 37 H 1.254674 -1.513734 7.435674 0
M  V30 38 H 0.568210 -0.024465 6.719975 0
M  V30 39 H 2.317005 -0.103018 7.289447 0
M  V30 40 H 5.147346 -3.343891 1.468166 0
M  V30 41 H 3.177738 0.848241 -3.063260 0
M  V30 42 H 1.362996 2.439468 -3.404154 0
M  V30 43 H -1.037746 3.027538 -3.305386 0
M  V30 44 H -3.186555 2.465306 -2.643400 0
M  V30 45 H -3.963927 1.976631 -0.608536 0
M  V30 46 H -2.513081 1.024901 -0.388428 0
M  V30 47 H -5.215356 0.195409 -0.230748 0
M  V30 48 H -3.735416 -0.733978 0.025206 0
M  V30 49 H -3.715688 -2.624951 -0.916051 0
M  V30 50 H -3.495552 -2.422161 -2.689469 0
M  V30 51 H -5.038372 -3.043016 -2.102846 0
M  V30 52 H -5.035640 -1.055638 -3.868026 0
M  V30 53 H -5.789249 0.296925 -2.993386 0
M  V30 54 H -3.010536 -0.045847 -4.113872 0
M  V30 55 H -4.143749 1.290087 -4.271791 0
M  V30 56 H -1.674583 -0.947917 -1.831899 0
M  V30 57 H 3.452045 -4.371081 -2.917074 0
M  V30 58 H 1.523462 -1.089941 1.262391 0
M  V30 59 H -0.410676 -1.874494 4.910041 0
M  V30 60 H -0.129449 -1.950513 3.076786 0
M  V30 61 H -1.692971 -0.012100 4.681671 0
M  V30 62 H -1.803288 -0.431298 2.955234 0
M  V30 63 H -0.355936 1.256289 2.334597 0
M  V30 64 H -0.715338 1.896167 3.990311 0
M  V30 65 H 1.820520 1.048603 3.027809 0
M  V30 66 H 1.328864 1.338836 4.782412 0
M  V30 END ATOM
M  V30 BEGIN BOND
M  V30 1 1 1 2
M  V30 2 2 2 3
M  V30 3 1 3 4
M  V30 4 2 4 5
M  V30 5 1 5 6
M  V30 6 1 5 7
M  V30 7 2 7 8
M  V30 8 1 8 9
M  V30 9 2 9 10
M  V30 10 1 10 11
M  V30 11 1 11 12
M  V30 12 1 12 13
M  V30 13 2 13 14
M  V30 14 1 14 15
M  V30 15 2 15 16
M  V30 16 1 16 17
M  V30 17 1 17 18
M  V30 18 1 18 19
M  V30 19 1 19 20
M  V30 20 1 20 21
M  V30 21 1 20 22
M  V30 22 1 22 23
M  V30 23 1 16 24
M  V30 24 2 24 25
M  V30 25 2 11 26
M  V30 26 1 26 27
M  V30 27 2 27 28
M  V30 28 1 28 29
M  V30 29 1 8 30
M  V30 30 2 30 31
M  V30 31 1 31 32
M  V30 32 1 32 33
M  V30 33 1 33 34
M  V30 34 1 34 35
M  V30 35 1 35 36
M  V30 36 1 32 2
M  V30 37 1 31 4
M  V30 38 1 36 32
M  V30 39 1 28 9
M  V30 40 1 25 13
M  V30 41 1 23 17
M  V30 42 1 1 37
M  V30 43 1 1 38
M  V30 44 1 1 39
M  V30 45 1 7 40
M  V30 46 1 12 41
M  V30 47 1 14 42
M  V30 48 1 15 43
M  V30 49 1 17 44
M  V30 50 1 18 45
M  V30 51 1 18 46
M  V30 52 1 19 47
M  V30 53 1 19 48
M  V30 54 1 21 49
M  V30 55 1 21 50
M  V30 56 1 21 51
M  V30 57 1 22 52
M  V30 58 1 22 53
M  V30 59 1 23 54
M  V30 60 1 23 55
M  V30 61 1 24 56
M  V30 62 1 27 57
M  V30 63 1 30 58
M  V30 64 1 33 59
M  V30 65 1 33 60
M  V30 66 1 34 61
M  V30 67 1 34 62
M  V30 68 1 35 63
M  V30 69 1 35 64
M  V30 70 1 36 65
M  V30 71 1 36 66
M  V30 END BOND
M  V30 END CTAB
M  END
>  <Dataset>  (622) 
ChEMBL_Kinases

>  <Ligand_Instance>  (622) 
nan

>  <PDB_ID>  (622) 
nan

>  <Standardized_SMILES>  (622) 
CC1=Nc2c(F)cc(-c3nc(Nc4ccc(C5CCN(C)CC5)cn4)ncc3F)cc2C12CCCC2

>  <Name>  (622) 
CROZBACICLIB

>  <Pocket>  (622) 
nan

>  <ATP_Site>  (622) 
nan

>  <Peripheral>  (622) 
nan

>  <Num_H_Atoms_ProtBoundConf>  (622) 
nan

>  <Num_Resolved_Atoms>  (622) 
nan

>  <Num_Not_Resolved_Atoms>  (622) 
nan

$$$$
CHEMBL4277878
     RDKit          3D

  0  0  0  0  0  0  0  0  0  0999 V3000
M  V30 BEGIN CTAB
M  V30 COUNTS 65 68 0 0 0
M  V30 BEGIN ATOM
M  V30 1 C 3.571217 -0.269763 5.849866 0
M  V30 2 O 4.253619 0.880917 5.344399 0
M  V30 3 C 4.168538 1.378884 4.093737 0
M  V30 4 C 3.389818 0.795545 3.137666 0
M  V30 5 C 3.268169 1.273593 1.834200 0
M  V30 6 C 2.502291 0.789185 0.717528 0
M  V30 7 C 2.423955 1.376067 -0.672166 0
M  V30 8 C 1.552484 0.316361 -0.931321 0
M  V30 9 O 1.475169 1.075852 -1.988519 0
M  V30 10 N 0.818968 -0.800376 -0.881688 0
M  V30 11 C -0.032556 -1.094392 -1.978470 0
M  V30 12 C -1.405412 -0.801376 -1.786507 0
M  V30 13 C -2.201581 -1.079677 -2.903387 0
M  V30 14 C -3.601876 -0.767047 -2.512429 0
M  V30 15 O -4.549904 0.049221 -2.607637 0
M  V30 16 N -4.054694 -1.850055 -1.686371 0
M  V30 17 C -5.343449 -2.061811 -1.009786 0
M  V30 18 C -6.142587 -3.013487 -1.888384 0
M  V30 19 N -5.357544 -4.225966 -2.036805 0
M  V30 20 C -5.240059 -2.552532 0.349895 0
M  V30 21 C -5.660937 -1.731230 1.416804 0
M  V30 22 C -5.559852 -2.195488 2.684172 0
M  V30 23 C -5.092900 -3.406114 3.133984 0
M  V30 24 C -4.668991 -4.240872 2.069864 0
M  V30 25 C -4.770956 -3.768952 0.811302 0
M  V30 26 C -1.791119 -1.586916 -4.105480 0
M  V30 27 C -0.428970 -1.866645 -4.261471 0
M  V30 28 C 0.387066 -1.604242 -3.180418 0
M  V30 29 C 1.833409 -1.922257 -3.386977 0
M  V30 30 C 3.261093 2.388638 -0.416186 0
M  V30 31 O 3.098533 2.789493 -1.656411 0
M  V30 32 N 4.000543 2.962073 0.449235 0
M  V30 33 C 4.059807 2.434683 1.660753 0
M  V30 34 C 4.851623 3.060482 2.566548 0
M  V30 35 C 4.888607 2.492070 3.816779 0
M  V30 36 O 5.702533 3.120372 4.755142 0
M  V30 37 C 6.442657 4.258834 4.396528 0
M  V30 38 H 2.682555 -0.513652 5.254817 0
M  V30 39 H 4.286159 -1.096109 6.005570 0
M  V30 40 H 3.185985 -0.004214 6.889966 0
M  V30 41 H 2.794083 -0.080254 3.290302 0
M  V30 42 H 2.060923 -0.080690 1.266611 0
M  V30 43 H 1.112230 -1.192828 0.034057 0
M  V30 44 H -1.699482 -0.402847 -0.845850 0
M  V30 45 H -3.512238 -2.715175 -1.413249 0
M  V30 46 H -5.890909 -1.063786 -0.991946 0
M  V30 47 H -7.111452 -3.219583 -1.407161 0
M  V30 48 H -6.326010 -2.587505 -2.882677 0
M  V30 49 H -5.899608 -5.011833 -2.461114 0
M  V30 50 H -4.517791 -4.008856 -2.646483 0
M  V30 51 H -6.057186 -0.717362 1.204271 0
M  V30 52 H -5.885380 -1.527657 3.502692 0
M  V30 53 H -5.015684 -3.758986 4.120250 0
M  V30 54 H -4.277634 -5.216231 2.322982 0
M  V30 55 H -4.412184 -4.473156 0.040789 0
M  V30 56 H -2.580109 -1.711021 -4.811211 0
M  V30 57 H -0.142251 -2.263139 -5.213606 0
M  V30 58 H 2.195509 -1.513837 -4.356458 0
M  V30 59 H 2.384188 -1.517916 -2.501781 0
M  V30 60 H 2.040973 -3.006356 -3.374753 0
M  V30 61 H 4.471351 3.802059 0.062219 0
M  V30 62 H 5.407023 3.937326 2.328774 0
M  V30 63 H 7.236625 4.012613 3.639876 0
M  V30 64 H 6.986969 4.666964 5.296863 0
M  V30 65 H 5.755569 5.053151 4.053050 0
M  V30 END ATOM
M  V30 BEGIN BOND
M  V30 1 1 1 2
M  V30 2 1 2 3
M  V30 3 2 3 4
M  V30 4 1 4 5
M  V30 5 1 5 6
M  V30 6 2 6 7
M  V30 7 1 7 8
M  V30 8 2 8 9
M  V30 9 1 8 10
M  V30 10 1 10 11
M  V30 11 2 11 12
M  V30 12 1 12 13
M  V30 13 1 13 14
M  V30 14 2 14 15
M  V30 15 1 14 16
M  V30 16 1 16 17
M  V30 17 1 17 18
M  V30 18 1 18 19
M  V30 19 1 17 20
M  V30 20 2 20 21
M  V30 21 1 21 22
M  V30 22 2 22 23
M  V30 23 1 23 24
M  V30 24 2 24 25
M  V30 25 2 13 26
M  V30 26 1 26 27
M  V30 27 2 27 28
M  V30 28 1 28 29
M  V30 29 1 7 30
M  V30 30 2 30 31
M  V30 31 1 30 32
M  V30 32 1 32 33
M  V30 33 1 33 34
M  V30 34 2 34 35
M  V30 35 1 35 36
M  V30 36 1 36 37
M  V30 37 1 35 3
M  V30 38 2 33 5
M  V30 39 1 28 11
M  V30 40 1 25 20
M  V30 41 1 1 38
M  V30 42 1 1 39
M  V30 43 1 1 40
M  V30 44 1 4 41
M  V30 45 1 6 42
M  V30 46 1 10 43
M  V30 47 1 12 44
M  V30 48 1 16 45
M  V30 49 1 17 46
M  V30 50 1 18 47
M  V30 51 1 18 48
M  V30 52 1 19 49
M  V30 53 1 19 50
M  V30 54 1 21 51
M  V30 55 1 22 52
M  V30 56 1 23 53
M  V30 57 1 24 54
M  V30 58 1 25 55
M  V30 59 1 26 56
M  V30 60 1 27 57
M  V30 61 1 29 58
M  V30 62 1 29 59
M  V30 63 1 29 60
M  V30 64 1 32 61
M  V30 65 1 34 62
M  V30 66 1 37 63
M  V30 67 1 37 64
M  V30 68 1 37 65
M  V30 END BOND
M  V30 END CTAB
M  END
>  <Dataset>  (623) 
ChEMBL_Kinases

>  <Ligand_Instance>  (623) 
nan

>  <PDB_ID>  (623) 
nan

>  <Standardized_SMILES>  (623) 
COc1cc2cc(C(=O)Nc3cc(C(=O)NC(CN)c4ccccc4)ccc3C)c(=O)[nH]c2cc1OC

>  <Name>  (623) 
nan

>  <Pocket>  (623) 
nan

>  <ATP_Site>  (623) 
nan

>  <Peripheral>  (623) 
nan

>  <Num_H_Atoms_ProtBoundConf>  (623) 
nan

>  <Num_Resolved_Atoms>  (623) 
nan

>  <Num_Not_Resolved_Atoms>  (623) 
nan

$$$$
CHEMBL4762791
     RDKit          3D

  0  0  0  0  0  0  0  0  0  0999 V3000
M  V30 BEGIN CTAB
M  V30 COUNTS 31 33 0 0 0
M  V30 BEGIN ATOM
M  V30 1 O 0.340031 1.503494 4.969222 0
M  V30 2 C 0.228188 0.789069 3.915511 0
M  V30 3 N -0.282667 -0.449331 4.042417 0
M  V30 4 C -0.398579 -1.201936 2.920671 0
M  V30 5 C 0.010623 -0.668727 1.699801 0
M  V30 6 C -0.076596 -1.410949 0.426787 0
M  V30 7 C -1.351021 -1.243600 -0.326334 0
M  V30 8 C -1.144905 -1.868261 -1.699360 0
M  V30 9 C -0.160172 -3.016308 -1.634954 0
M  V30 10 C 1.215380 -2.422786 -1.370844 0
M  V30 11 C 1.081166 -1.171054 -0.496050 0
M  V30 12 C 0.532564 0.621185 1.630227 0
M  V30 13 N 0.990161 1.361697 0.616946 0
M  V30 14 C 1.376405 2.545960 1.125964 0
M  V30 15 C 1.165864 2.577923 2.501370 0
M  V30 16 N 0.641274 1.363639 2.771607 0
M  V30 17 H -0.578239 -0.813386 4.975757 0
M  V30 18 H -0.797173 -2.197934 2.947266 0
M  V30 19 H -0.011750 -2.494873 0.714139 0
M  V30 20 H -2.163306 -1.729430 0.213903 0
M  V30 21 H -1.614595 -0.187128 -0.535023 0
M  V30 22 H -0.683624 -1.107325 -2.386655 0
M  V30 23 H -2.104303 -2.168497 -2.128258 0
M  V30 24 H -0.433679 -3.793331 -0.911433 0
M  V30 25 H -0.165608 -3.488935 -2.638688 0
M  V30 26 H 1.674326 -2.204032 -2.345620 0
M  V30 27 H 1.789925 -3.149650 -0.788517 0
M  V30 28 H 2.033101 -0.966828 0.028771 0
M  V30 29 H 0.874307 -0.337387 -1.197376 0
M  V30 30 H 1.807548 3.441584 0.654232 0
M  V30 31 H 1.359993 3.362825 3.219985 0
M  V30 END ATOM
M  V30 BEGIN BOND
M  V30 1 2 1 2
M  V30 2 1 2 3
M  V30 3 1 3 4
M  V30 4 2 4 5
M  V30 5 1 5 6
M  V30 6 1 6 7
M  V30 7 1 7 8
M  V30 8 1 8 9
M  V30 9 1 9 10
M  V30 10 1 10 11
M  V30 11 1 5 12
M  V30 12 2 12 13
M  V30 13 1 13 14
M  V30 14 2 14 15
M  V30 15 1 15 16
M  V30 16 1 16 2
M  V30 17 1 11 6
M  V30 18 1 16 12
M  V30 19 1 3 17
M  V30 20 1 4 18
M  V30 21 1 6 19
M  V30 22 1 7 20
M  V30 23 1 7 21
M  V30 24 1 8 22
M  V30 25 1 8 23
M  V30 26 1 9 24
M  V30 27 1 9 25
M  V30 28 1 10 26
M  V30 29 1 10 27
M  V30 30 1 11 28
M  V30 31 1 11 29
M  V30 32 1 14 30
M  V30 33 1 15 31
M  V30 END BOND
M  V30 END CTAB
M  END
>  <Dataset>  (624) 
ChEMBL_Kinases

>  <Ligand_Instance>  (624) 
nan

>  <PDB_ID>  (624) 
nan

>  <Standardized_SMILES>  (624) 
O=c1[nH]cc(C2CCCCC2)c2nccn12

>  <Name>  (624) 
nan

>  <Pocket>  (624) 
nan

>  <ATP_Site>  (624) 
nan

>  <Peripheral>  (624) 
nan

>  <Num_H_Atoms_ProtBoundConf>  (624) 
nan

>  <Num_Resolved_Atoms>  (624) 
nan

>  <Num_Not_Resolved_Atoms>  (624) 
nan

$$$$
CHEMBL4277755
     RDKit          3D

  0  0  0  0  0  0  0  0  0  0999 V3000
M  V30 BEGIN CTAB
M  V30 COUNTS 42 45 0 0 0
M  V30 BEGIN ATOM
M  V30 1 C 0.312995 -5.473259 0.444824 0
M  V30 2 C -0.060278 -4.021569 0.616440 0
M  V30 3 C -1.390075 -3.672237 0.024378 0
M  V30 4 C 0.987261 -3.099409 0.041320 0
M  V30 5 C 0.713825 -1.851617 0.782786 0
M  V30 6 C 0.849579 -0.485267 0.688787 0
M  V30 7 C 1.438965 0.238219 -0.437888 0
M  V30 8 C 0.531313 1.078712 -1.063080 0
M  V30 9 C 0.968076 1.822954 -2.150154 0
M  V30 10 N 2.232273 1.772729 -2.632936 0
M  V30 11 C 3.087296 0.946974 -2.002815 0
M  V30 12 C 2.726711 0.185643 -0.928048 0
M  V30 13 C 0.319488 0.012398 1.861119 0
M  V30 14 C 0.276819 1.456203 2.148889 0
M  V30 15 C 1.477461 2.159125 2.256963 0
M  V30 16 C 1.450492 3.501181 2.523947 0
M  V30 17 C 0.214390 4.126602 2.680391 0
M  V30 18 C -0.995350 3.461710 2.580155 0
M  V30 19 C -0.938226 2.096781 2.307746 0
M  V30 20 C -2.177161 1.343853 2.190357 0
M  V30 21 N -3.167124 0.759233 2.086744 0
M  V30 22 N -0.104527 -1.037436 2.598736 0
M  V30 23 N 0.130413 -2.166956 1.953935 0
M  V30 24 C -0.026096 -3.610653 2.080709 0
M  V30 25 H 0.082074 -5.978781 1.386907 0
M  V30 26 H -0.269601 -5.890157 -0.396248 0
M  V30 27 H 1.388361 -5.506160 0.177079 0
M  V30 28 H -2.051478 -3.179208 0.794002 0
M  V30 29 H -1.321917 -2.918798 -0.789690 0
M  V30 30 H -1.934865 -4.537770 -0.392834 0
M  V30 31 H 0.823211 -3.025307 -1.043181 0
M  V30 32 H 2.020917 -3.425653 0.251544 0
M  V30 33 H -0.514866 1.212141 -0.773877 0
M  V30 34 H 0.284559 2.488218 -2.659750 0
M  V30 35 H 4.110422 0.863007 -2.341171 0
M  V30 36 H 3.363022 -0.499245 -0.373853 0
M  V30 37 H 2.442985 1.701788 2.140792 0
M  V30 38 H 2.363132 4.102478 2.619185 0
M  V30 39 H 0.208691 5.207269 2.895262 0
M  V30 40 H -1.926873 3.963385 2.704245 0
M  V30 41 H 0.886881 -4.031755 2.566313 0
M  V30 42 H -0.948285 -3.881910 2.613686 0
M  V30 END ATOM
M  V30 BEGIN BOND
M  V30 1 1 1 2
M  V30 2 1 2 3
M  V30 3 1 2 4
M  V30 4 1 4 5
M  V30 5 2 5 6
M  V30 6 1 6 7
M  V30 7 2 7 8
M  V30 8 1 8 9
M  V30 9 2 9 10
M  V30 10 1 10 11
M  V30 11 2 11 12
M  V30 12 1 6 13
M  V30 13 1 13 14
M  V30 14 2 14 15
M  V30 15 1 15 16
M  V30 16 2 16 17
M  V30 17 1 17 18
M  V30 18 2 18 19
M  V30 19 1 19 20
M  V30 20 3 20 21
M  V30 21 2 13 22
M  V30 22 1 22 23
M  V30 23 1 23 24
M  V30 24 1 24 2
M  V30 25 1 23 5
M  V30 26 1 12 7
M  V30 27 1 19 14
M  V30 28 1 1 25
M  V30 29 1 1 26
M  V30 30 1 1 27
M  V30 31 1 3 28
M  V30 32 1 3 29
M  V30 33 1 3 30
M  V30 34 1 4 31
M  V30 35 1 4 32
M  V30 36 1 8 33
M  V30 37 1 9 34
M  V30 38 1 11 35
M  V30 39 1 12 36
M  V30 40 1 15 37
M  V30 41 1 16 38
M  V30 42 1 17 39
M  V30 43 1 18 40
M  V30 44 1 24 41
M  V30 45 1 24 42
M  V30 END BOND
M  V30 END CTAB
M  END
>  <Dataset>  (625) 
ChEMBL_Kinases

>  <Ligand_Instance>  (625) 
nan

>  <PDB_ID>  (625) 
nan

>  <Standardized_SMILES>  (625) 
CC1(C)Cc2c(-c3ccncc3)c(-c3ccccc3C#N)nn2C1

>  <Name>  (625) 
nan

>  <Pocket>  (625) 
nan

>  <ATP_Site>  (625) 
nan

>  <Peripheral>  (625) 
nan

>  <Num_H_Atoms_ProtBoundConf>  (625) 
nan

>  <Num_Resolved_Atoms>  (625) 
nan

>  <Num_Not_Resolved_Atoms>  (625) 
nan

$$$$
CHEMBL4762825
     RDKit          3D

  0  0  0  0  0  0  0  0  0  0999 V3000
M  V30 BEGIN CTAB
M  V30 COUNTS 67 70 0 0 0
M  V30 BEGIN ATOM
M  V30 1 C 4.704827 0.609380 6.038596 0
M  V30 2 C 5.304390 -0.720907 5.694590 0
M  V30 3 C 6.540492 -1.037200 6.518553 0
M  V30 4 C 4.284432 -1.793712 6.010724 0
M  V30 5 O 5.711089 -0.797804 4.319276 0
M  V30 6 C 4.770558 -0.628323 3.312191 0
M  V30 7 O 3.654588 -0.423428 3.860474 0
M  V30 8 N 4.949655 -0.664026 1.922007 0
M  V30 9 C 3.823530 -0.460269 1.031748 0
M  V30 10 C 3.525061 -1.695205 0.210669 0
M  V30 11 C 2.104873 -1.620738 -0.289586 0
M  V30 12 C 1.758473 -0.182003 -0.584286 0
M  V30 13 C 0.670314 -0.066055 -1.565123 0
M  V30 14 O 0.388696 -1.254301 -1.834918 0
M  V30 15 N 0.028633 1.027374 -2.130242 0
M  V30 16 C -1.017570 1.239195 -3.050686 0
M  V30 17 C -2.396299 0.812395 -2.676338 0
M  V30 18 C -2.558439 -0.615059 -2.357875 0
M  V30 19 N -3.978888 -0.956206 -2.071420 0
M  V30 20 C -4.779332 -1.345520 -3.105629 0
M  V30 21 O -4.299974 -1.405737 -4.270548 0
M  V30 22 C -6.089328 -1.655702 -2.810177 0
M  V30 23 C -6.899070 -2.052137 -3.869161 0
M  V30 24 C -8.219355 -2.362029 -3.551081 0
M  V30 25 F -9.017673 -2.750878 -4.582393 0
M  V30 26 C -8.717035 -2.288269 -2.273174 0
M  V30 27 C -7.909832 -1.897610 -1.245389 0
M  V30 28 C -6.609627 -1.588923 -1.537313 0
M  V30 29 N -5.788400 -1.204050 -0.565243 0
M  V30 30 C -5.967741 -1.039024 0.737518 0
M  V30 31 S -7.235826 -1.226363 1.714201 0
M  V30 32 N -4.828107 -0.633924 1.303702 0
M  V30 33 N -3.908469 -0.541958 0.330697 0
M  V30 34 C -4.511172 -0.899256 -0.838781 0
M  V30 35 C 2.993912 0.575048 -1.022617 0
M  V30 36 C 3.943611 0.739062 0.148975 0
M  V30 37 H 4.943028 0.891882 7.093530 0
M  V30 38 H 3.579735 0.523081 6.021134 0
M  V30 39 H 5.004468 1.390278 5.324731 0
M  V30 40 H 6.630656 -2.143803 6.516026 0
M  V30 41 H 7.475518 -0.648707 6.057869 0
M  V30 42 H 6.407973 -0.685208 7.554762 0
M  V30 43 H 4.465562 -2.288846 6.970902 0
M  V30 44 H 3.239523 -1.366075 5.973130 0
M  V30 45 H 4.345956 -2.545205 5.170510 0
M  V30 46 H 5.931910 -0.844221 1.615838 0
M  V30 47 H 2.938283 -0.294792 1.704045 0
M  V30 48 H 4.178320 -1.754572 -0.683574 0
M  V30 49 H 3.696718 -2.566092 0.870157 0
M  V30 50 H 1.410414 -1.979654 0.496530 0
M  V30 51 H 1.922976 -2.280721 -1.162469 0
M  V30 52 H 1.360581 0.250995 0.375665 0
M  V30 53 H 0.530784 1.862989 -1.688247 0
M  V30 54 H -0.747190 0.853802 -4.087208 0
M  V30 55 H -1.087703 2.361247 -3.204979 0
M  V30 56 H -2.859139 1.494247 -1.917391 0
M  V30 57 H -3.031720 1.004030 -3.606105 0
M  V30 58 H -2.162972 -1.327777 -3.085688 0
M  V30 59 H -2.084160 -0.839239 -1.368254 0
M  V30 60 H -6.566575 -2.129696 -4.894157 0
M  V30 61 H -9.775748 -2.556217 -2.135327 0
M  V30 62 H -8.393261 -1.874125 -0.297231 0
M  V30 63 H -4.480691 -0.383172 2.249909 0
M  V30 64 H 3.502561 0.026135 -1.816447 0
M  V30 65 H 2.654713 1.558785 -1.413233 0
M  V30 66 H 3.587658 1.633677 0.717608 0
M  V30 67 H 4.967587 0.960919 -0.169201 0
M  V30 END ATOM
M  V30 BEGIN BOND
M  V30 1 1 1 2
M  V30 2 1 2 3
M  V30 3 1 2 4
M  V30 4 1 2 5
M  V30 5 1 5 6
M  V30 6 2 6 7
M  V30 7 1 6 8
M  V30 8 1 8 9
M  V30 9 1 9 10
M  V30 10 1 10 11
M  V30 11 1 11 12
M  V30 12 1 12 13
M  V30 13 2 13 14
M  V30 14 1 13 15
M  V30 15 1 15 16
M  V30 16 1 16 17
M  V30 17 1 17 18
M  V30 18 1 18 19
M  V30 19 1 19 20
M  V30 20 2 20 21
M  V30 21 1 20 22
M  V30 22 2 22 23
M  V30 23 1 23 24
M  V30 24 1 24 25
M  V30 25 2 24 26
M  V30 26 1 26 27
M  V30 27 2 27 28
M  V30 28 1 28 29
M  V30 29 1 29 30
M  V30 30 2 30 31
M  V30 31 1 30 32
M  V30 32 1 32 33
M  V30 33 2 33 34
M  V30 34 1 12 35
M  V30 35 1 35 36
M  V30 36 1 36 9
M  V30 37 1 34 19
M  V30 38 1 28 22
M  V30 39 1 34 29
M  V30 40 1 1 37
M  V30 41 1 1 38
M  V30 42 1 1 39
M  V30 43 1 3 40
M  V30 44 1 3 41
M  V30 45 1 3 42
M  V30 46 1 4 43
M  V30 47 1 4 44
M  V30 48 1 4 45
M  V30 49 1 8 46
M  V30 50 1 9 47
M  V30 51 1 10 48
M  V30 52 1 10 49
M  V30 53 1 11 50
M  V30 54 1 11 51
M  V30 55 1 12 52
M  V30 56 1 15 53
M  V30 57 1 16 54
M  V30 58 1 16 55
M  V30 59 1 17 56
M  V30 60 1 17 57
M  V30 61 1 18 58
M  V30 62 1 18 59
M  V30 63 1 23 60
M  V30 64 1 26 61
M  V30 65 1 27 62
M  V30 66 1 32 63
M  V30 67 1 35 64
M  V30 68 1 35 65
M  V30 69 1 36 66
M  V30 70 1 36 67
M  V30 END BOND
M  V30 END CTAB
M  END
>  <Dataset>  (626) 
ChEMBL_Kinases

>  <Ligand_Instance>  (626) 
nan

>  <PDB_ID>  (626) 
nan

>  <Standardized_SMILES>  (626) 
CC(C)(C)OC(=O)NC1CCC(C(=O)NCCCn2c(=O)c3cc(F)ccc3n3c(=S)[nH]nc23)CC1

>  <Name>  (626) 
nan

>  <Pocket>  (626) 
nan

>  <ATP_Site>  (626) 
nan

>  <Peripheral>  (626) 
nan

>  <Num_H_Atoms_ProtBoundConf>  (626) 
nan

>  <Num_Resolved_Atoms>  (626) 
nan

>  <Num_Not_Resolved_Atoms>  (626) 
nan

$$$$
CHEMBL4762847
     RDKit          3D

  0  0  0  0  0  0  0  0  0  0999 V3000
M  V30 BEGIN CTAB
M  V30 COUNTS 36 38 0 0 0
M  V30 BEGIN ATOM
M  V30 1 C -1.440237 -3.498667 2.930064 0
M  V30 2 C 0.042779 -3.459495 3.250485 0
M  V30 3 O 0.707007 -2.435590 2.525490 0
M  V30 4 C 2.072707 -2.201614 2.649729 0
M  V30 5 O 2.660235 -2.975064 3.457522 0
M  V30 6 C 2.739126 -1.142629 1.894992 0
M  V30 7 C 4.095990 -0.978977 2.077751 0
M  V30 8 N 4.658575 0.019688 1.350237 0
M  V30 9 C 3.917534 0.782613 0.514887 0
M  V30 10 N 4.574065 1.811764 -0.216528 0
M  V30 11 N 2.593494 0.606715 0.350533 0
M  V30 12 N 1.677523 1.212700 -0.391107 0
M  V30 13 C 0.471548 0.643987 -0.188246 0
M  V30 14 C -0.868194 0.885330 -0.716364 0
M  V30 15 C -1.608564 1.997814 -0.312512 0
M  V30 16 C -2.868488 2.184511 -0.837711 0
M  V30 17 C -3.425687 1.308883 -1.750775 0
M  V30 18 C -2.720598 0.201153 -2.169673 0
M  V30 19 N -3.233885 -0.740896 -3.106996 0
M  V30 20 C -1.450306 0.026018 -1.630850 0
M  V30 21 N 0.675455 -0.338660 0.708442 0
M  V30 22 C 1.976265 -0.368740 1.044972 0
M  V30 23 H -1.582414 -3.245086 1.869578 0
M  V30 24 H -1.962392 -2.734819 3.538292 0
M  V30 25 H -1.824143 -4.522085 3.174098 0
M  V30 26 H 0.250072 -3.445438 4.327314 0
M  V30 27 H 0.440456 -4.436423 2.851899 0
M  V30 28 H 4.673298 -1.589979 2.742897 0
M  V30 29 H 4.897518 2.801294 -0.128233 0
M  V30 30 H 4.769079 1.348875 -1.148435 0
M  V30 31 H -1.146116 2.666564 0.404078 0
M  V30 32 H -3.387254 3.064665 -0.483214 0
M  V30 33 H -4.410515 1.476755 -2.145706 0
M  V30 34 H -3.618838 -1.520944 -2.512305 0
M  V30 35 H -3.236192 -0.685194 -4.169078 0
M  V30 36 H -0.895238 -0.845902 -1.960543 0
M  V30 END ATOM
M  V30 BEGIN BOND
M  V30 1 1 1 2
M  V30 2 1 2 3
M  V30 3 1 3 4
M  V30 4 2 4 5
M  V30 5 1 4 6
M  V30 6 2 6 7
M  V30 7 1 7 8
M  V30 8 2 8 9
M  V30 9 1 9 10
M  V30 10 1 9 11
M  V30 11 1 11 12
M  V30 12 2 12 13
M  V30 13 1 13 14
M  V30 14 2 14 15
M  V30 15 1 15 16
M  V30 16 2 16 17
M  V30 17 1 17 18
M  V30 18 1 18 19
M  V30 19 2 18 20
M  V30 20 1 13 21
M  V30 21 2 21 22
M  V30 22 1 22 6
M  V30 23 1 22 11
M  V30 24 1 20 14
M  V30 25 1 1 23
M  V30 26 1 1 24
M  V30 27 1 1 25
M  V30 28 1 2 26
M  V30 29 1 2 27
M  V30 30 1 7 28
M  V30 31 1 10 29
M  V30 32 1 10 30
M  V30 33 1 15 31
M  V30 34 1 16 32
M  V30 35 1 17 33
M  V30 36 1 19 34
M  V30 37 1 19 35
M  V30 38 1 20 36
M  V30 END BOND
M  V30 END CTAB
M  END
>  <Dataset>  (627) 
ChEMBL_Kinases

>  <Ligand_Instance>  (627) 
nan

>  <PDB_ID>  (627) 
nan

>  <Standardized_SMILES>  (627) 
CCOC(=O)c1cnc(N)n2nc(-c3cccc(N)c3)nc12

>  <Name>  (627) 
nan

>  <Pocket>  (627) 
nan

>  <ATP_Site>  (627) 
nan

>  <Peripheral>  (627) 
nan

>  <Num_H_Atoms_ProtBoundConf>  (627) 
nan

>  <Num_Resolved_Atoms>  (627) 
nan

>  <Num_Not_Resolved_Atoms>  (627) 
nan

$$$$
CHEMBL4762871
     RDKit          3D

  0  0  0  0  0  0  0  0  0  0999 V3000
M  V30 BEGIN CTAB
M  V30 COUNTS 39 41 0 0 0
M  V30 BEGIN ATOM
M  V30 1 O -1.132331 -1.415961 1.423410 0
M  V30 2 C -0.945884 -2.656405 1.580725 0
M  V30 3 N 0.403541 -2.968814 1.350023 0
M  V30 4 C 1.154690 -1.822156 1.012933 0
M  V30 5 C 1.813348 -0.991140 1.918734 0
M  V30 6 C 2.527121 0.120272 1.448385 0
M  V30 7 C 2.596515 0.420717 0.077871 0
M  V30 8 O 3.365362 1.561909 -0.043719 0
M  V30 9 C 2.960150 2.765778 -0.586385 0
M  V30 10 C 3.061226 3.320952 -1.844289 0
M  V30 11 C 2.544679 4.575285 -2.086513 0
M  V30 12 C 1.917882 5.319607 -1.111211 0
M  V30 13 C 1.808016 4.784241 0.146375 0
M  V30 14 O 1.169228 5.581306 1.078162 0
M  V30 15 C 2.322034 3.524997 0.404820 0
M  V30 16 C 1.937402 -0.415553 -0.797012 0
M  V30 17 Cl 2.118192 0.085027 -2.447050 0
M  V30 18 C 1.236822 -1.506909 -0.331664 0
M  V30 19 C -2.062037 -3.506904 1.946772 0
M  V30 20 C -3.297608 -2.913184 2.109423 0
M  V30 21 C -4.413934 -3.639945 2.455985 0
M  V30 22 Cl -5.943370 -2.809541 2.642242 0
M  V30 23 C -4.368675 -5.002047 2.661833 0
M  V30 24 C -3.145209 -5.617259 2.505091 0
M  V30 25 Cl -3.003121 -7.344836 2.748611 0
M  V30 26 C -2.047065 -4.862657 2.157901 0
M  V30 27 O -0.856848 -5.533774 2.016890 0
M  V30 28 H 0.675123 -3.970206 1.451882 0
M  V30 29 H 1.702054 -1.300685 2.930291 0
M  V30 30 H 2.961138 0.630725 2.301051 0
M  V30 31 H 3.569752 2.662285 -2.521480 0
M  V30 32 H 2.686365 4.898357 -3.108781 0
M  V30 33 H 1.572619 6.273052 -1.460866 0
M  V30 34 H 0.175669 5.666394 1.159988 0
M  V30 35 H 2.151476 3.245798 1.456508 0
M  V30 36 H 0.761662 -2.088134 -1.111075 0
M  V30 37 H -3.418404 -1.828171 1.963043 0
M  V30 38 H -5.214368 -5.616874 2.934531 0
M  V30 39 H -0.756247 -6.266349 1.312678 0
M  V30 END ATOM
M  V30 BEGIN BOND
M  V30 1 2 1 2
M  V30 2 1 2 3
M  V30 3 1 3 4
M  V30 4 2 4 5
M  V30 5 1 5 6
M  V30 6 2 6 7
M  V30 7 1 7 8
M  V30 8 1 8 9
M  V30 9 2 9 10
M  V30 10 1 10 11
M  V30 11 2 11 12
M  V30 12 1 12 13
M  V30 13 1 13 14
M  V30 14 2 13 15
M  V30 15 1 7 16
M  V30 16 1 16 17
M  V30 17 2 16 18
M  V30 18 1 2 19
M  V30 19 2 19 20
M  V30 20 1 20 21
M  V30 21 1 21 22
M  V30 22 2 21 23
M  V30 23 1 23 24
M  V30 24 1 24 25
M  V30 25 2 24 26
M  V30 26 1 26 27
M  V30 27 1 18 4
M  V30 28 1 26 19
M  V30 29 1 15 9
M  V30 30 1 3 28
M  V30 31 1 5 29
M  V30 32 1 6 30
M  V30 33 1 10 31
M  V30 34 1 11 32
M  V30 35 1 12 33
M  V30 36 1 14 34
M  V30 37 1 15 35
M  V30 38 1 18 36
M  V30 39 1 20 37
M  V30 40 1 23 38
M  V30 41 1 27 39
M  V30 END BOND
M  V30 END CTAB
M  END
>  <Dataset>  (628) 
ChEMBL_Kinases

>  <Ligand_Instance>  (628) 
nan

>  <PDB_ID>  (628) 
nan

>  <Standardized_SMILES>  (628) 
O=C(Nc1ccc(Oc2cccc(O)c2)c(Cl)c1)c1cc(Cl)cc(Cl)c1O

>  <Name>  (628) 
nan

>  <Pocket>  (628) 
nan

>  <ATP_Site>  (628) 
nan

>  <Peripheral>  (628) 
nan

>  <Num_H_Atoms_ProtBoundConf>  (628) 
nan

>  <Num_Resolved_Atoms>  (628) 
nan

>  <Num_Not_Resolved_Atoms>  (628) 
nan

$$$$
CHEMBL4277493
     RDKit          3D

  0  0  0  0  0  0  0  0  0  0999 V3000
M  V30 BEGIN CTAB
M  V30 COUNTS 84 89 0 0 0
M  V30 BEGIN ATOM
M  V30 1 O -4.415732 -3.068578 0.820677 0
M  V30 2 C -3.821408 -2.039301 0.447234 0
M  V30 3 S -4.663925 -0.655418 -0.367675 0
M  V30 4 C -3.341623 0.540667 -0.038954 0
M  V30 5 C -3.353442 1.852241 -0.059682 0
M  V30 6 C -4.588972 2.550983 -0.391313 0
M  V30 7 C -5.869082 2.233969 -0.066905 0
M  V30 8 C -6.925473 3.020644 -0.474824 0
M  V30 9 C -6.760737 4.168831 -1.230549 0
M  V30 10 N -7.910157 4.926520 -1.612239 0
M  V30 11 C -8.272227 5.179528 -2.993678 0
M  V30 12 C -8.657191 6.645017 -3.098914 0
M  V30 13 O -8.168944 7.368629 -2.018061 0
M  V30 14 C -8.860415 7.010312 -0.865338 0
M  V30 15 C -8.801919 5.498046 -0.625282 0
M  V30 16 C -5.461602 4.496530 -1.563521 0
M  V30 17 Cl -5.188085 5.929072 -2.515632 0
M  V30 18 C -4.403503 3.704789 -1.152187 0
M  V30 19 C -2.184929 -0.293817 0.269994 0
M  V30 20 O -1.004315 0.171433 0.308937 0
M  V30 21 N -2.455091 -1.650141 0.523573 0
M  V30 22 C -1.508585 -2.662701 0.844382 0
M  V30 23 C -1.257138 -2.832911 2.187015 0
M  V30 24 C -0.358043 -3.788738 2.601080 0
M  V30 25 C 0.320519 -4.603368 1.725403 0
M  V30 26 O 1.248639 -5.612635 1.858714 0
M  V30 27 C 1.791017 -6.110145 3.006616 0
M  V30 28 C 2.615907 -5.313588 3.916648 0
M  V30 29 C 3.899417 -4.837192 3.459275 0
M  V30 30 C 4.272643 -3.948341 2.399179 0
M  V30 31 C 3.999293 -4.181644 0.968985 0
M  V30 32 N 4.578950 -3.167334 0.110644 0
M  V30 33 C 4.263761 -3.389578 -1.245192 0
M  V30 34 C 5.096398 -2.573933 -2.208721 0
M  V30 35 N 5.771704 -1.474800 -1.597435 0
M  V30 36 C 7.143588 -1.707746 -1.334212 0
M  V30 37 C 7.904952 -0.596064 -0.694205 0
M  V30 38 C 9.418098 -0.886836 -0.421186 0
M  V30 39 C 8.415077 -0.638123 0.676601 0
M  V30 40 C 4.983292 -0.914549 -0.557662 0
M  V30 41 C 4.714542 -1.870189 0.599305 0
M  V30 42 C 0.060193 -4.423026 0.378430 0
M  V30 43 C -0.845711 -3.464357 -0.085764 0
M  V30 44 H -2.446376 2.403830 0.169632 0
M  V30 45 H -5.976373 1.333330 0.524519 0
M  V30 46 H -7.935809 2.749312 -0.205602 0
M  V30 47 H -7.459139 4.934178 -3.703681 0
M  V30 48 H -9.174761 4.557857 -3.263666 0
M  V30 49 H -8.212082 7.041880 -4.038764 0
M  V30 50 H -9.773816 6.757817 -3.190037 0
M  V30 51 H -9.928582 7.356099 -0.935608 0
M  V30 52 H -8.403430 7.490605 0.024554 0
M  V30 53 H -9.817425 5.061117 -0.663284 0
M  V30 54 H -8.391817 5.260961 0.381217 0
M  V30 55 H -3.414836 4.050098 -1.467816 0
M  V30 56 H -1.720339 -2.261987 2.978536 0
M  V30 57 H -0.093299 -4.008239 3.625049 0
M  V30 58 H 0.908870 -6.604979 3.569942 0
M  V30 59 H 2.362101 -7.071467 2.712173 0
M  V30 60 H 2.015465 -4.541425 4.494819 0
M  V30 61 H 2.853993 -6.034581 4.796155 0
M  V30 62 H 4.486666 -4.436100 4.405357 0
M  V30 63 H 4.565960 -5.805619 3.330368 0
M  V30 64 H 5.421358 -3.836769 2.477815 0
M  V30 65 H 3.954312 -2.877080 2.685132 0
M  V30 66 H 2.908106 -4.042199 0.765760 0
M  V30 67 H 4.257201 -5.198894 0.680811 0
M  V30 68 H 3.183722 -3.151881 -1.417625 0
M  V30 69 H 4.406420 -4.460514 -1.471841 0
M  V30 70 H 4.429819 -2.185862 -3.004534 0
M  V30 71 H 5.838169 -3.224980 -2.754721 0
M  V30 72 H 7.369278 -2.632447 -0.762824 0
M  V30 73 H 7.631979 -1.891227 -2.340580 0
M  V30 74 H 7.742030 0.410368 -1.140821 0
M  V30 75 H 10.132433 -0.105423 -0.719193 0
M  V30 76 H 9.713285 -1.940508 -0.602912 0
M  V30 77 H 8.592750 0.326853 1.201893 0
M  V30 78 H 8.281912 -1.485920 1.368630 0
M  V30 79 H 5.347514 0.062930 -0.175945 0
M  V30 80 H 3.980277 -0.683830 -0.999640 0
M  V30 81 H 3.748922 -1.522111 1.065360 0
M  V30 82 H 5.495046 -1.694562 1.365893 0
M  V30 83 H 0.474475 -4.945041 -0.484373 0
M  V30 84 H -1.107450 -3.258911 -1.113372 0
M  V30 END ATOM
M  V30 BEGIN BOND
M  V30 1 2 1 2
M  V30 2 1 2 3
M  V30 3 1 3 4
M  V30 4 2 4 5
M  V30 5 1 5 6
M  V30 6 2 6 7
M  V30 7 1 7 8
M  V30 8 2 8 9
M  V30 9 1 9 10
M  V30 10 1 10 11
M  V30 11 1 11 12
M  V30 12 1 12 13
M  V30 13 1 13 14
M  V30 14 1 14 15
M  V30 15 1 9 16
M  V30 16 1 16 17
M  V30 17 2 16 18
M  V30 18 1 4 19
M  V30 19 2 19 20
M  V30 20 1 19 21
M  V30 21 1 21 22
M  V30 22 2 22 23
M  V30 23 1 23 24
M  V30 24 2 24 25
M  V30 25 1 25 26
M  V30 26 1 26 27
M  V30 27 1 27 28
M  V30 28 1 28 29
M  V30 29 1 29 30
M  V30 30 1 30 31
M  V30 31 1 31 32
M  V30 32 1 32 33
M  V30 33 1 33 34
M  V30 34 1 34 35
M  V30 35 1 35 36
M  V30 36 1 36 37
M  V30 37 1 37 38
M  V30 38 1 38 39
M  V30 39 1 35 40
M  V30 40 1 40 41
M  V30 41 1 25 42
M  V30 42 2 42 43
M  V30 43 1 21 2
M  V30 44 1 43 22
M  V30 45 1 18 6
M  V30 46 1 41 32
M  V30 47 1 15 10
M  V30 48 1 39 37
M  V30 49 1 5 44
M  V30 50 1 7 45
M  V30 51 1 8 46
M  V30 52 1 11 47
M  V30 53 1 11 48
M  V30 54 1 12 49
M  V30 55 1 12 50
M  V30 56 1 14 51
M  V30 57 1 14 52
M  V30 58 1 15 53
M  V30 59 1 15 54
M  V30 60 1 18 55
M  V30 61 1 23 56
M  V30 62 1 24 57
M  V30 63 1 27 58
M  V30 64 1 27 59
M  V30 65 1 28 60
M  V30 66 1 28 61
M  V30 67 1 29 62
M  V30 68 1 29 63
M  V30 69 1 30 64
M  V30 70 1 30 65
M  V30 71 1 31 66
M  V30 72 1 31 67
M  V30 73 1 33 68
M  V30 74 1 33 69
M  V30 75 1 34 70
M  V30 76 1 34 71
M  V30 77 1 36 72
M  V30 78 1 36 73
M  V30 79 1 37 74
M  V30 80 1 38 75
M  V30 81 1 38 76
M  V30 82 1 39 77
M  V30 83 1 39 78
M  V30 84 1 40 79
M  V30 85 1 40 80
M  V30 86 1 41 81
M  V30 87 1 41 82
M  V30 88 1 42 83
M  V30 89 1 43 84
M  V30 END BOND
M  V30 END CTAB
M  END
>  <Dataset>  (629) 
ChEMBL_Kinases

>  <Ligand_Instance>  (629) 
nan

>  <PDB_ID>  (629) 
nan

>  <Standardized_SMILES>  (629) 
O=C1S/C(=C\c2ccc(N3CCOCC3)c(Cl)c2)C(=O)N1c1ccc(OCCCCCN2CCN(CC3CC3)CC2)cc1

>  <Name>  (629) 
nan

>  <Pocket>  (629) 
nan

>  <ATP_Site>  (629) 
nan

>  <Peripheral>  (629) 
nan

>  <Num_H_Atoms_ProtBoundConf>  (629) 
nan

>  <Num_Resolved_Atoms>  (629) 
nan

>  <Num_Not_Resolved_Atoms>  (629) 
nan

$$$$
CHEMBL4277463
     RDKit          3D

  0  0  0  0  0  0  0  0  0  0999 V3000
M  V30 BEGIN CTAB
M  V30 COUNTS 38 41 0 0 0
M  V30 BEGIN ATOM
M  V30 1 O -2.871962 -7.165687 3.251655 0
M  V30 2 C -2.216625 -6.179799 2.802933 0
M  V30 3 N -1.605691 -6.303679 1.601982 0
M  V30 4 C -0.939721 -5.154341 1.261877 0
M  V30 5 C -0.171225 -4.723702 0.199350 0
M  V30 6 C 0.313823 -3.404378 0.318243 0
M  V30 7 C 0.034266 -2.584926 1.440153 0
M  V30 8 C 0.701553 -1.399421 1.012967 0
M  V30 9 N 1.306404 -0.619779 0.368962 0
M  V30 10 N 1.799271 0.644225 0.351879 0
M  V30 11 C 1.657916 1.497715 1.291137 0
M  V30 12 N 2.184804 2.765469 1.233894 0
M  V30 13 C 2.366631 3.446395 -0.013200 0
M  V30 14 C 1.175386 3.657002 -0.841842 0
M  V30 15 C 0.348688 4.779246 -0.669759 0
M  V30 16 C -0.739655 4.928639 -1.477707 0
M  V30 17 N -1.115112 4.090883 -2.455688 0
M  V30 18 C -0.380473 2.979951 -2.696920 0
M  V30 19 C 0.735433 2.826401 -1.864287 0
M  V30 20 S 0.623080 0.798729 2.560927 0
M  V30 21 C 1.005937 -0.957417 2.434520 0
M  V30 22 C -0.730580 -3.091805 2.438803 0
M  V30 23 C -1.211434 -4.371741 2.344613 0
M  V30 24 N -1.971306 -4.933331 3.296963 0
M  V30 25 H -1.604867 -7.153974 0.964767 0
M  V30 26 H -0.072482 -5.488024 -0.550644 0
M  V30 27 H 0.874959 -3.302519 -0.624266 0
M  V30 28 H 2.441267 3.165971 2.184453 0
M  V30 29 H 3.165186 2.985964 -0.674878 0
M  V30 30 H 2.780927 4.485283 0.188550 0
M  V30 31 H 0.604454 5.489706 0.110935 0
M  V30 32 H -1.362732 5.802455 -1.332950 0
M  V30 33 H -0.588222 2.226722 -3.453648 0
M  V30 34 H 1.330502 1.930832 -2.061979 0
M  V30 35 H 2.172983 -0.968658 2.456099 0
M  V30 36 H 0.669422 -1.539290 3.260260 0
M  V30 37 H -0.910044 -2.404385 3.220738 0
M  V30 38 H -2.326041 -4.575866 4.203288 0
M  V30 END ATOM
M  V30 BEGIN BOND
M  V30 1 2 1 2
M  V30 2 1 2 3
M  V30 3 1 3 4
M  V30 4 2 4 5
M  V30 5 1 5 6
M  V30 6 2 6 7
M  V30 7 1 7 8
M  V30 8 2 8 9
M  V30 9 1 9 10
M  V30 10 2 10 11
M  V30 11 1 11 12
M  V30 12 1 12 13
M  V30 13 1 13 14
M  V30 14 2 14 15
M  V30 15 1 15 16
M  V30 16 2 16 17
M  V30 17 1 17 18
M  V30 18 2 18 19
M  V30 19 1 11 20
M  V30 20 1 20 21
M  V30 21 1 7 22
M  V30 22 2 22 23
M  V30 23 1 23 24
M  V30 24 1 24 2
M  V30 25 1 23 4
M  V30 26 1 21 8
M  V30 27 1 19 14
M  V30 28 1 3 25
M  V30 29 1 5 26
M  V30 30 1 6 27
M  V30 31 1 12 28
M  V30 32 1 13 29
M  V30 33 1 13 30
M  V30 34 1 15 31
M  V30 35 1 16 32
M  V30 36 1 18 33
M  V30 37 1 19 34
M  V30 38 1 21 35
M  V30 39 1 21 36
M  V30 40 1 22 37
M  V30 41 1 24 38
M  V30 END BOND
M  V30 END CTAB
M  END
>  <Dataset>  (630) 
ChEMBL_Kinases

>  <Ligand_Instance>  (630) 
nan

>  <PDB_ID>  (630) 
nan

>  <Standardized_SMILES>  (630) 
O=c1[nH]c2ccc(C3=NN=C(NCc4ccncc4)SC3)cc2[nH]1

>  <Name>  (630) 
nan

>  <Pocket>  (630) 
nan

>  <ATP_Site>  (630) 
nan

>  <Peripheral>  (630) 
nan

>  <Num_H_Atoms_ProtBoundConf>  (630) 
nan

>  <Num_Resolved_Atoms>  (630) 
nan

>  <Num_Not_Resolved_Atoms>  (630) 
nan

$$$$
CHEMBL4279172
     RDKit          3D

  0  0  0  0  0  0  0  0  0  0999 V3000
M  V30 BEGIN CTAB
M  V30 COUNTS 66 70 0 0 0
M  V30 BEGIN ATOM
M  V30 1 C 2.315066 -2.512846 4.707515 0
M  V30 2 C 3.371560 -2.596186 3.628753 0
M  V30 3 C 3.539594 -1.227178 3.076272 0
M  V30 4 C 4.471210 -0.358452 3.622766 0
M  V30 5 C 4.626276 0.904570 3.107028 0
M  V30 6 C 3.887200 1.383711 2.039276 0
M  V30 7 C 2.961338 0.475100 1.521305 0
M  V30 8 C 2.100146 0.809041 0.393145 0
M  V30 9 N 2.382379 1.107127 -0.895108 0
M  V30 10 N 1.235767 1.337815 -1.542939 0
M  V30 11 C 0.169285 1.199132 -0.704181 0
M  V30 12 C 0.728672 0.858934 0.539943 0
M  V30 13 C -0.193431 0.639332 1.679197 0
M  V30 14 C -0.235371 1.427799 2.808711 0
M  V30 15 C -1.174696 1.049014 3.735883 0
M  V30 16 N -2.020218 0.013948 3.632349 0
M  V30 17 C -1.999746 -0.771133 2.541818 0
M  V30 18 N -2.869532 -1.869316 2.325291 0
M  V30 19 C -2.809784 -2.840728 1.294554 0
M  V30 20 C -3.847390 -3.311557 0.516453 0
M  V30 21 C -3.626593 -4.281930 -0.435272 0
M  V30 22 C -2.365009 -4.835075 -0.663429 0
M  V30 23 S -2.058893 -6.048154 -1.875760 0
M  V30 24 N -1.434870 -5.285706 -3.298381 0
M  V30 25 O -1.111533 -7.065872 -1.319101 0
M  V30 26 O -3.366185 -6.705124 -2.274379 0
M  V30 27 C -1.330184 -4.373416 0.105920 0
M  V30 28 C -1.544103 -3.392433 1.070437 0
M  V30 29 C -1.063127 -0.435495 1.560019 0
M  V30 30 C -1.091787 1.460059 -1.431114 0
M  V30 31 C -2.144957 2.094886 -0.581272 0
M  V30 32 C -0.626309 2.293367 -2.569997 0
M  V30 33 C -1.547451 2.056858 -3.743551 0
M  V30 34 C -0.444506 3.744399 -2.247953 0
M  V30 35 C 0.729936 1.691018 -2.868005 0
M  V30 36 N 2.831282 -0.751747 2.044947 0
M  V30 37 H 1.854759 -3.474490 4.960748 0
M  V30 38 H 1.496809 -1.853083 4.295766 0
M  V30 39 H 2.689496 -1.951060 5.589042 0
M  V30 40 H 2.953094 -3.220141 2.797432 0
M  V30 41 H 4.318215 -3.017440 4.028557 0
M  V30 42 H 5.098811 -0.627039 4.456035 0
M  V30 43 H 5.359208 1.598455 3.532375 0
M  V30 44 H 3.964543 2.352455 1.599191 0
M  V30 45 H 0.451761 2.256783 2.876582 0
M  V30 46 H -1.243624 1.643031 4.641015 0
M  V30 47 H -3.660032 -1.967053 3.029338 0
M  V30 48 H -4.809924 -2.866704 0.714074 0
M  V30 49 H -4.463545 -4.631761 -1.033602 0
M  V30 50 H -0.961212 -5.972799 -3.925287 0
M  V30 51 H -0.706369 -4.584716 -2.987806 0
M  V30 52 H -0.339311 -4.809520 -0.073606 0
M  V30 53 H -0.627213 -3.140380 1.603309 0
M  V30 54 H -1.020159 -1.022724 0.678902 0
M  V30 55 H -1.509824 0.517072 -1.839023 0
M  V30 56 H -2.854565 2.624562 -1.269874 0
M  V30 57 H -1.790943 2.848294 0.117372 0
M  V30 58 H -2.753490 1.277850 -0.139128 0
M  V30 59 H -2.582915 2.210284 -3.373661 0
M  V30 60 H -1.377581 0.980652 -4.043926 0
M  V30 61 H -1.288351 2.759966 -4.538580 0
M  V30 62 H -1.184734 4.140634 -1.527741 0
M  V30 63 H -0.484070 4.364443 -3.167408 0
M  V30 64 H 0.562390 3.940550 -1.789966 0
M  V30 65 H 1.358634 2.434993 -3.379187 0
M  V30 66 H 0.662889 0.730824 -3.414843 0
M  V30 END ATOM
M  V30 BEGIN BOND
M  V30 1 1 1 2
M  V30 2 1 2 3
M  V30 3 2 3 4
M  V30 4 1 4 5
M  V30 5 2 5 6
M  V30 6 1 6 7
M  V30 7 1 7 8
M  V30 8 2 8 9
M  V30 9 1 9 10
M  V30 10 1 10 11
M  V30 11 2 11 12
M  V30 12 1 12 13
M  V30 13 2 13 14
M  V30 14 1 14 15
M  V30 15 2 15 16
M  V30 16 1 16 17
M  V30 17 1 17 18
M  V30 18 1 18 19
M  V30 19 2 19 20
M  V30 20 1 20 21
M  V30 21 2 21 22
M  V30 22 1 22 23
M  V30 23 1 23 24
M  V30 24 2 23 25
M  V30 25 2 23 26
M  V30 26 1 22 27
M  V30 27 2 27 28
M  V30 28 2 17 29
M  V30 29 1 11 30
M  V30 30 1 30 31
M  V30 31 1 30 32
M  V30 32 1 32 33
M  V30 33 1 32 34
M  V30 34 1 32 35
M  V30 35 2 7 36
M  V30 36 1 36 3
M  V30 37 1 12 8
M  V30 38 1 29 13
M  V30 39 1 35 10
M  V30 40 1 28 19
M  V30 41 1 1 37
M  V30 42 1 1 38
M  V30 43 1 1 39
M  V30 44 1 2 40
M  V30 45 1 2 41
M  V30 46 1 4 42
M  V30 47 1 5 43
M  V30 48 1 6 44
M  V30 49 1 14 45
M  V30 50 1 15 46
M  V30 51 1 18 47
M  V30 52 1 20 48
M  V30 53 1 21 49
M  V30 54 1 24 50
M  V30 55 1 24 51
M  V30 56 1 27 52
M  V30 57 1 28 53
M  V30 58 1 29 54
M  V30 59 1 30 55
M  V30 60 1 31 56
M  V30 61 1 31 57
M  V30 62 1 31 58
M  V30 63 1 33 59
M  V30 64 1 33 60
M  V30 65 1 33 61
M  V30 66 1 34 62
M  V30 67 1 34 63
M  V30 68 1 34 64
M  V30 69 1 35 65
M  V30 70 1 35 66
M  V30 END BOND
M  V30 END CTAB
M  END
>  <Dataset>  (631) 
ChEMBL_Kinases

>  <Ligand_Instance>  (631) 
nan

>  <PDB_ID>  (631) 
nan

>  <Standardized_SMILES>  (631) 
CCc1cccc(-c2nn3c(c2-c2ccnc(Nc4ccc(S(N)(=O)=O)cc4)c2)C(C)C(C)(C)C3)n1

>  <Name>  (631) 
nan

>  <Pocket>  (631) 
nan

>  <ATP_Site>  (631) 
nan

>  <Peripheral>  (631) 
nan

>  <Num_H_Atoms_ProtBoundConf>  (631) 
nan

>  <Num_Resolved_Atoms>  (631) 
nan

>  <Num_Not_Resolved_Atoms>  (631) 
nan

$$$$
CHEMBL4277446
     RDKit          3D

  0  0  0  0  0  0  0  0  0  0999 V3000
M  V30 BEGIN CTAB
M  V30 COUNTS 48 51 0 0 0
M  V30 BEGIN ATOM
M  V30 1 C 3.216102 -5.253971 1.130477 0
M  V30 2 C 3.224333 -3.796544 1.442840 0
M  V30 3 C 4.325137 -3.014253 1.727687 0
M  V30 4 C 4.164754 -1.667087 1.998420 0
M  V30 5 C 2.919876 -1.048499 1.997553 0
M  V30 6 C 1.864696 -1.882199 1.706617 0
M  V30 7 C 0.540454 -1.225902 1.705227 0
M  V30 8 N -0.468000 -1.549081 2.559424 0
M  V30 9 N -1.518242 -0.793795 2.313665 0
M  V30 10 C -1.235421 0.048812 1.292160 0
M  V30 11 C 0.062069 -0.215845 0.900831 0
M  V30 12 C 0.828960 0.412023 -0.145892 0
M  V30 13 C 1.039993 1.783224 0.053445 0
M  V30 14 C 1.770860 2.487079 -0.900003 0
M  V30 15 C 2.246120 1.785878 -1.990962 0
M  V30 16 O 2.989727 2.461879 -2.977170 0
M  V30 17 C 2.055195 0.436716 -2.215450 0
M  V30 18 C 1.328312 -0.241004 -1.258125 0
M  V30 19 C -2.447456 0.875933 1.053307 0 CFG=1
M  V30 20 C -2.649879 1.225152 -0.397959 0
M  V30 21 C -3.540145 -0.062636 1.558012 0
M  V30 22 C -3.656813 -1.231612 0.606787 0
M  V30 23 C -4.835464 0.643936 1.805354 0
M  V30 24 C -2.886595 -0.598496 2.814962 0
M  V30 25 N 2.016539 -3.208870 1.439352 0
M  V30 26 H 2.432318 -5.459430 0.343322 0
M  V30 27 H 4.210818 -5.591197 0.802761 0
M  V30 28 H 2.841688 -5.784667 2.031805 0
M  V30 29 H 5.266292 -3.524810 1.719034 0
M  V30 30 H 5.066557 -1.103878 2.215080 0
M  V30 31 H 2.809011 -0.002962 2.209069 0
M  V30 32 H 0.665771 2.330856 0.910540 0
M  V30 33 H 1.993248 3.544282 -0.847225 0
M  V30 34 H 3.542656 3.284420 -2.695285 0
M  V30 35 H 2.455065 -0.056481 -3.093747 0
M  V30 36 H 1.130382 -1.306538 -1.355731 0
M  V30 37 H -2.364070 1.772747 1.661809 0
M  V30 38 H -3.421907 1.989463 -0.475551 0
M  V30 39 H -1.685192 1.482899 -0.878633 0
M  V30 40 H -2.988371 0.287586 -0.906059 0
M  V30 41 H -4.413600 -1.111952 -0.170836 0
M  V30 42 H -2.630894 -1.415848 0.205584 0
M  V30 43 H -3.896849 -2.134060 1.224749 0
M  V30 44 H -4.966190 1.534560 1.142842 0
M  V30 45 H -4.847552 1.034385 2.840721 0
M  V30 46 H -5.716688 -0.001813 1.608829 0
M  V30 47 H -3.316570 -1.520888 3.196273 0
M  V30 48 H -2.777014 0.215276 3.584815 0
M  V30 END ATOM
M  V30 BEGIN BOND
M  V30 1 1 1 2
M  V30 2 2 2 3
M  V30 3 1 3 4
M  V30 4 2 4 5
M  V30 5 1 5 6
M  V30 6 1 6 7
M  V30 7 2 7 8
M  V30 8 1 8 9
M  V30 9 1 9 10
M  V30 10 2 10 11
M  V30 11 1 11 12
M  V30 12 2 12 13
M  V30 13 1 13 14
M  V30 14 2 14 15
M  V30 15 1 15 16
M  V30 16 1 15 17
M  V30 17 2 17 18
M  V30 18 1 10 19
M  V30 19 1 19 20
M  V30 20 1 19 21
M  V30 21 1 21 22
M  V30 22 1 21 23
M  V30 23 1 21 24
M  V30 24 2 6 25
M  V30 25 1 25 2
M  V30 26 1 11 7
M  V30 27 1 18 12
M  V30 28 1 24 9
M  V30 29 1 1 26
M  V30 30 1 1 27
M  V30 31 1 1 28
M  V30 32 1 3 29
M  V30 33 1 4 30
M  V30 34 1 5 31
M  V30 35 1 13 32
M  V30 36 1 14 33
M  V30 37 1 16 34
M  V30 38 1 17 35
M  V30 39 1 18 36
M  V30 40 1 19 37 CFG=1
M  V30 41 1 20 38
M  V30 42 1 20 39
M  V30 43 1 20 40
M  V30 44 1 22 41
M  V30 45 1 22 42
M  V30 46 1 22 43
M  V30 47 1 23 44
M  V30 48 1 23 45
M  V30 49 1 23 46
M  V30 50 1 24 47
M  V30 51 1 24 48
M  V30 END BOND
M  V30 END CTAB
M  END
>  <Dataset>  (632) 
ChEMBL_Kinases

>  <Ligand_Instance>  (632) 
nan

>  <PDB_ID>  (632) 
nan

>  <Standardized_SMILES>  (632) 
Cc1cccc(-c2nn3c(c2-c2ccc(O)cc2)[C@@H](C)C(C)(C)C3)n1

>  <Name>  (632) 
nan

>  <Pocket>  (632) 
nan

>  <ATP_Site>  (632) 
nan

>  <Peripheral>  (632) 
nan

>  <Num_H_Atoms_ProtBoundConf>  (632) 
nan

>  <Num_Resolved_Atoms>  (632) 
nan

>  <Num_Not_Resolved_Atoms>  (632) 
nan

$$$$
CHEMBL4277338
     RDKit          3D

  0  0  0  0  0  0  0  0  0  0999 V3000
M  V30 BEGIN CTAB
M  V30 COUNTS 44 47 0 0 0
M  V30 BEGIN ATOM
M  V30 1 C -3.679569 -1.569087 5.016598 0
M  V30 2 C -2.314380 -1.275433 4.463326 0
M  V30 3 O -1.907596 -1.823915 3.384559 0
M  V30 4 N -1.343393 -0.399639 5.029403 0
M  V30 5 C -0.207347 -0.454860 4.139026 0
M  V30 6 C -0.142255 0.444181 3.116367 0
M  V30 7 C 0.958527 0.349045 2.289445 0
M  V30 8 C 1.232167 1.213790 1.143044 0
M  V30 9 N 1.556460 2.519432 1.104495 0
M  V30 10 C 1.721553 2.882943 -0.186379 0
M  V30 11 C 2.059214 4.142547 -0.642993 0
M  V30 12 C 2.181563 4.314972 -2.004284 0
M  V30 13 C 1.953914 3.202032 -2.809629 0
M  V30 14 N 1.626676 1.996838 -2.304328 0
M  V30 15 C 1.494326 1.775113 -0.977794 0
M  V30 16 C 1.184657 0.718104 -0.143884 0
M  V30 17 C 0.892738 -0.582783 -0.734855 0
M  V30 18 C -0.184982 -0.704936 -1.620621 0
M  V30 19 C -0.446814 -1.967157 -2.175361 0
M  V30 20 C 0.344368 -3.078425 -1.856015 0
M  V30 21 O -0.165361 -4.146852 -2.553229 0
M  V30 22 C 0.419341 -5.414558 -2.440671 0
M  V30 23 F 0.935889 -5.687850 -3.717614 0
M  V30 24 F -0.493512 -6.393636 -2.099129 0
M  V30 25 C 1.377478 -2.854071 -0.977434 0
M  V30 26 N 1.638764 -1.655483 -0.440672 0
M  V30 27 C 1.934588 -0.605518 2.493065 0
M  V30 28 C 1.809471 -1.484913 3.545911 0
M  V30 29 N 0.734465 -1.414760 4.377664 0
M  V30 30 H -3.630236 -2.093796 5.981328 0
M  V30 31 H -4.255679 -0.623859 5.192666 0
M  V30 32 H -4.229207 -2.094316 4.222450 0
M  V30 33 H -1.638509 0.079714 5.929193 0
M  V30 34 H -0.855017 1.201537 2.902661 0
M  V30 35 H 1.646002 3.088081 1.981393 0
M  V30 36 H 2.224263 4.971696 0.031808 0
M  V30 37 H 2.443627 5.279928 -2.413198 0
M  V30 38 H 2.052158 3.347572 -3.877048 0
M  V30 39 H -0.735555 0.189619 -1.809400 0
M  V30 40 H -1.315966 -1.886399 -2.841119 0
M  V30 41 H 1.270853 -5.366204 -1.773371 0
M  V30 42 H 1.924263 -3.767221 -0.797218 0
M  V30 43 H 2.828155 -0.781801 1.928029 0
M  V30 44 H 2.497784 -2.260493 3.801403 0
M  V30 END ATOM
M  V30 BEGIN BOND
M  V30 1 1 1 2
M  V30 2 2 2 3
M  V30 3 1 2 4
M  V30 4 1 4 5
M  V30 5 2 5 6
M  V30 6 1 6 7
M  V30 7 1 7 8
M  V30 8 1 8 9
M  V30 9 1 9 10
M  V30 10 2 10 11
M  V30 11 1 11 12
M  V30 12 2 12 13
M  V30 13 1 13 14
M  V30 14 2 14 15
M  V30 15 1 15 16
M  V30 16 1 16 17
M  V30 17 2 17 18
M  V30 18 1 18 19
M  V30 19 2 19 20
M  V30 20 1 20 21
M  V30 21 1 21 22
M  V30 22 1 22 23
M  V30 23 1 22 24
M  V30 24 1 20 25
M  V30 25 2 25 26
M  V30 26 2 7 27
M  V30 27 1 27 28
M  V30 28 2 28 29
M  V30 29 1 29 5
M  V30 30 2 16 8
M  V30 31 1 26 17
M  V30 32 1 15 10
M  V30 33 1 1 30
M  V30 34 1 1 31
M  V30 35 1 1 32
M  V30 36 1 4 33
M  V30 37 1 6 34
M  V30 38 1 9 35
M  V30 39 1 11 36
M  V30 40 1 12 37
M  V30 41 1 13 38
M  V30 42 1 18 39
M  V30 43 1 19 40
M  V30 44 1 22 41
M  V30 45 1 25 42
M  V30 46 1 27 43
M  V30 47 1 28 44
M  V30 END BOND
M  V30 END CTAB
M  END
>  <Dataset>  (633) 
ChEMBL_Kinases

>  <Ligand_Instance>  (633) 
nan

>  <PDB_ID>  (633) 
nan

>  <Standardized_SMILES>  (633) 
CC(=O)Nc1cc(-c2[nH]c3cccnc3c2-c2ccc(OC(F)F)cn2)ccn1

>  <Name>  (633) 
nan

>  <Pocket>  (633) 
nan

>  <ATP_Site>  (633) 
nan

>  <Peripheral>  (633) 
nan

>  <Num_H_Atoms_ProtBoundConf>  (633) 
nan

>  <Num_Resolved_Atoms>  (633) 
nan

>  <Num_Not_Resolved_Atoms>  (633) 
nan

$$$$
CHEMBL4277304
     RDKit          3D

  0  0  0  0  0  0  0  0  0  0999 V3000
M  V30 BEGIN CTAB
M  V30 COUNTS 55 59 0 0 0
M  V30 BEGIN ATOM
M  V30 1 C -0.919405 1.232575 6.115534 0
M  V30 2 N -0.229057 0.060154 5.616806 0
M  V30 3 C 0.913551 0.441460 4.844687 0
M  V30 4 C 1.448528 -0.698880 4.007312 0
M  V30 5 N 0.415272 -1.441453 3.327572 0
M  V30 6 C 0.299061 -1.639022 1.930931 0
M  V30 7 C 1.239446 -1.134291 1.066847 0
M  V30 8 C 1.118850 -1.329787 -0.304292 0
M  V30 9 C 0.056301 -2.035779 -0.865871 0
M  V30 10 C 0.007945 -2.194046 -2.312513 0
M  V30 11 C -0.096517 -0.999541 -3.026137 0
M  V30 12 C -0.154929 0.314665 -2.412984 0
M  V30 13 C 0.760839 1.329393 -2.603604 0
M  V30 14 C 0.661581 2.563798 -1.997333 0
M  V30 15 C -0.427508 2.768870 -1.155503 0
M  V30 16 C -0.551821 4.096478 -0.491083 0
M  V30 17 F -0.517567 5.120866 -1.407516 0
M  V30 18 F 0.578831 4.216246 0.322578 0
M  V30 19 C -1.356014 1.757878 -0.954361 0
M  V30 20 C -1.240238 0.527299 -1.570451 0
M  V30 21 C -0.144983 -1.116099 -4.405542 0
M  V30 22 N -0.095357 -2.306690 -5.039350 0
M  V30 23 C 0.004743 -3.447616 -4.348563 0
M  V30 24 N 0.076142 -4.762489 -4.634882 0
M  V30 25 C 0.168704 -5.514954 -3.521460 0
M  V30 26 C 0.159708 -4.671533 -2.429941 0
M  V30 27 C 0.058339 -3.412873 -2.971226 0
M  V30 28 C -0.870948 -2.529772 0.026625 0
M  V30 29 C -0.747316 -2.333438 1.386359 0
M  V30 30 C -0.476157 -1.943757 4.349707 0
M  V30 31 C -1.212505 -0.703016 4.872915 0
M  V30 32 H -1.838383 1.451253 5.499262 0
M  V30 33 H -1.226889 1.021779 7.161288 0
M  V30 34 H -0.314604 2.153601 6.071463 0
M  V30 35 H 1.734235 0.706977 5.566083 0
M  V30 36 H 0.733269 1.363824 4.246587 0
M  V30 37 H 1.973203 -1.378541 4.744339 0
M  V30 38 H 2.243254 -0.310915 3.352091 0
M  V30 39 H 2.094429 -0.580299 1.361147 0
M  V30 40 H 1.869871 -0.927509 -0.998979 0
M  V30 41 H 1.585335 1.110030 -3.268852 0
M  V30 42 H 1.422285 3.318344 -2.194039 0
M  V30 43 H -1.470289 4.102129 0.141153 0
M  V30 44 H -2.187490 1.950203 -0.296042 0
M  V30 45 H -2.003433 -0.196012 -1.358229 0
M  V30 46 H -0.226170 -0.216477 -5.002951 0
M  V30 47 H 0.057450 -5.112031 -5.638379 0
M  V30 48 H 0.238500 -6.600986 -3.482691 0
M  V30 49 H 0.220496 -4.974448 -1.398071 0
M  V30 50 H -1.698780 -3.079617 -0.410183 0
M  V30 51 H -1.543384 -2.773077 1.967592 0
M  V30 52 H -1.188227 -2.683358 3.946899 0
M  V30 53 H 0.051133 -2.453003 5.187877 0
M  V30 54 H -2.051310 -0.942560 5.523019 0
M  V30 55 H -1.456939 -0.104888 3.971603 0
M  V30 END ATOM
M  V30 BEGIN BOND
M  V30 1 1 1 2
M  V30 2 1 2 3
M  V30 3 1 3 4
M  V30 4 1 4 5
M  V30 5 1 5 6
M  V30 6 2 6 7
M  V30 7 1 7 8
M  V30 8 2 8 9
M  V30 9 1 9 10
M  V30 10 1 10 11
M  V30 11 1 11 12
M  V30 12 2 12 13
M  V30 13 1 13 14
M  V30 14 2 14 15
M  V30 15 1 15 16
M  V30 16 1 16 17
M  V30 17 1 16 18
M  V30 18 1 15 19
M  V30 19 2 19 20
M  V30 20 2 11 21
M  V30 21 1 21 22
M  V30 22 2 22 23
M  V30 23 1 23 24
M  V30 24 1 24 25
M  V30 25 2 25 26
M  V30 26 1 26 27
M  V30 27 1 9 28
M  V30 28 2 28 29
M  V30 29 1 5 30
M  V30 30 1 30 31
M  V30 31 1 31 2
M  V30 32 1 29 6
M  V30 33 2 27 10
M  V30 34 1 20 12
M  V30 35 1 27 23
M  V30 36 1 1 32
M  V30 37 1 1 33
M  V30 38 1 1 34
M  V30 39 1 3 35
M  V30 40 1 3 36
M  V30 41 1 4 37
M  V30 42 1 4 38
M  V30 43 1 7 39
M  V30 44 1 8 40
M  V30 45 1 13 41
M  V30 46 1 14 42
M  V30 47 1 16 43
M  V30 48 1 19 44
M  V30 49 1 20 45
M  V30 50 1 21 46
M  V30 51 1 24 47
M  V30 52 1 25 48
M  V30 53 1 26 49
M  V30 54 1 28 50
M  V30 55 1 29 51
M  V30 56 1 30 52
M  V30 57 1 30 53
M  V30 58 1 31 54
M  V30 59 1 31 55
M  V30 END BOND
M  V30 END CTAB
M  END
>  <Dataset>  (634) 
ChEMBL_Kinases

>  <Ligand_Instance>  (634) 
nan

>  <PDB_ID>  (634) 
nan

>  <Standardized_SMILES>  (634) 
CN1CCN(c2ccc(-c3c(-c4ccc(C(F)F)cc4)cnc4[nH]ccc34)cc2)CC1

>  <Name>  (634) 
nan

>  <Pocket>  (634) 
nan

>  <ATP_Site>  (634) 
nan

>  <Peripheral>  (634) 
nan

>  <Num_H_Atoms_ProtBoundConf>  (634) 
nan

>  <Num_Resolved_Atoms>  (634) 
nan

>  <Num_Not_Resolved_Atoms>  (634) 
nan

$$$$
CHEMBL4277245
     RDKit          3D

  0  0  0  0  0  0  0  0  0  0999 V3000
M  V30 BEGIN CTAB
M  V30 COUNTS 41 44 0 0 0
M  V30 BEGIN ATOM
M  V30 1 O 2.720881 -6.054039 5.863060 0
M  V30 2 C 2.705204 -5.169669 4.979139 0
M  V30 3 N 3.459678 -5.072193 3.871839 0
M  V30 4 C 3.115141 -3.959489 3.193279 0
M  V30 5 C 3.531760 -3.370089 2.033046 0
M  V30 6 C 2.929916 -2.201964 1.640839 0
M  V30 7 C 1.910497 -1.541305 2.326294 0
M  V30 8 C 1.283311 -0.294175 1.888051 0
M  V30 9 N 1.815611 0.104120 0.763703 0
M  V30 10 N 1.413214 1.274307 0.102847 0
M  V30 11 C 0.456556 2.029767 0.613298 0
M  V30 12 N 0.271513 3.118370 -0.260334 0
M  V30 13 C -0.000805 3.292667 -1.648768 0
M  V30 14 C -1.374182 2.989950 -2.139673 0
M  V30 15 C -1.869334 1.637510 -2.081745 0
M  V30 16 C -1.513578 0.357089 -1.760618 0
M  V30 17 C -2.241107 -0.799492 -1.844797 0
M  V30 18 C -3.518675 -0.630916 -2.327882 0
M  V30 19 C -3.957784 0.623845 -2.676122 0
M  V30 20 N -3.157071 1.692468 -2.551572 0
M  V30 21 S -0.446462 1.763199 2.123574 0
M  V30 22 C 0.213256 0.199062 2.818340 0
M  V30 23 C 1.554999 -2.221085 3.497424 0
M  V30 24 C 2.118243 -3.393585 3.945511 0
M  V30 25 N 1.849030 -4.123952 5.052296 0
M  V30 26 H 4.196145 -5.765329 3.598054 0
M  V30 27 H 4.314621 -3.821797 1.449544 0
M  V30 28 H 3.284433 -1.766000 0.721151 0
M  V30 29 H 0.316467 4.065977 0.275001 0
M  V30 30 H 0.301519 4.346906 -1.931646 0
M  V30 31 H 0.766571 2.688607 -2.263918 0
M  V30 32 H -1.363010 3.332447 -3.236206 0
M  V30 33 H -2.093641 3.682294 -1.592463 0
M  V30 34 H -0.498177 0.343647 -1.427276 0
M  V30 35 H -1.736367 -1.689358 -1.528625 0
M  V30 36 H -4.103857 -1.536993 -2.399569 0
M  V30 37 H -4.986623 0.593771 -3.040217 0
M  V30 38 H -0.641954 -0.497323 2.804197 0
M  V30 39 H 0.642713 0.350050 3.813077 0
M  V30 40 H 0.758342 -1.772900 4.103942 0
M  V30 41 H 1.125843 -3.900448 5.789005 0
M  V30 END ATOM
M  V30 BEGIN BOND
M  V30 1 2 1 2
M  V30 2 1 2 3
M  V30 3 1 3 4
M  V30 4 2 4 5
M  V30 5 1 5 6
M  V30 6 2 6 7
M  V30 7 1 7 8
M  V30 8 2 8 9
M  V30 9 1 9 10
M  V30 10 2 10 11
M  V30 11 1 11 12
M  V30 12 1 12 13
M  V30 13 1 13 14
M  V30 14 1 14 15
M  V30 15 2 15 16
M  V30 16 1 16 17
M  V30 17 2 17 18
M  V30 18 1 18 19
M  V30 19 2 19 20
M  V30 20 1 11 21
M  V30 21 1 21 22
M  V30 22 1 7 23
M  V30 23 2 23 24
M  V30 24 1 24 25
M  V30 25 1 25 2
M  V30 26 1 24 4
M  V30 27 1 22 8
M  V30 28 1 20 15
M  V30 29 1 3 26
M  V30 30 1 5 27
M  V30 31 1 6 28
M  V30 32 1 12 29
M  V30 33 1 13 30
M  V30 34 1 13 31
M  V30 35 1 14 32
M  V30 36 1 14 33
M  V30 37 1 16 34
M  V30 38 1 17 35
M  V30 39 1 18 36
M  V30 40 1 19 37
M  V30 41 1 22 38
M  V30 42 1 22 39
M  V30 43 1 23 40
M  V30 44 1 25 41
M  V30 END BOND
M  V30 END CTAB
M  END
>  <Dataset>  (635) 
ChEMBL_Kinases

>  <Ligand_Instance>  (635) 
nan

>  <PDB_ID>  (635) 
nan

>  <Standardized_SMILES>  (635) 
O=c1[nH]c2ccc(C3=NN=C(NCCc4ccccn4)SC3)cc2[nH]1

>  <Name>  (635) 
nan

>  <Pocket>  (635) 
nan

>  <ATP_Site>  (635) 
nan

>  <Peripheral>  (635) 
nan

>  <Num_H_Atoms_ProtBoundConf>  (635) 
nan

>  <Num_Resolved_Atoms>  (635) 
nan

>  <Num_Not_Resolved_Atoms>  (635) 
nan

$$$$
CHEMBL427720
     RDKit          3D

  0  0  0  0  0  0  0  0  0  0999 V3000
M  V30 BEGIN CTAB
M  V30 COUNTS 61 65 0 0 0
M  V30 BEGIN ATOM
M  V30 1 C 3.966808 2.195729 3.342500 0
M  V30 2 O 3.729450 2.351007 1.964315 0
M  V30 3 C 2.936338 1.558572 1.188433 0
M  V30 4 C 2.255004 0.460089 1.723144 0
M  V30 5 C 1.444110 -0.358654 0.935440 0
M  V30 6 C 1.323943 -0.055761 -0.418805 0
M  V30 7 C 1.990937 1.035581 -0.987190 0
M  V30 8 C 2.789061 1.823504 -0.155452 0
M  V30 9 C 3.418648 2.965518 -0.846739 0
M  V30 10 C 2.656708 4.244669 -0.669895 0
M  V30 11 C 2.467264 4.705072 0.704694 0
M  V30 12 C 3.343351 5.514117 1.428227 0
M  V30 13 C 3.032039 5.891053 2.711897 0
M  V30 14 N 1.889359 5.504688 3.319218 0
M  V30 15 C 0.990129 4.722117 2.687372 0
M  V30 16 C 1.306976 4.348504 1.404276 0
M  V30 17 N 0.560066 -0.743679 -1.399929 0
M  V30 18 C -0.525890 -1.637144 -1.154642 0
M  V30 19 C -1.349942 -1.740382 -2.230872 0
M  V30 20 C -2.458611 -2.561469 -2.174555 0
M  V30 21 C -3.396745 -2.725758 -3.306524 0
M  V30 22 C -2.961393 -2.646406 -4.633930 0
M  V30 23 C -3.863054 -2.802226 -5.665804 0
M  V30 24 C -5.195668 -3.036544 -5.392390 0
M  V30 25 N -6.075003 -3.188467 -6.493035 0 CHG=1 VAL=4
M  V30 26 O -5.810117 -2.630049 -7.596382 0
M  V30 27 O -7.257196 -3.875389 -6.621545 0 CHG=-1 VAL=1
M  V30 28 C -5.654591 -3.119828 -4.075210 0
M  V30 29 O -7.013125 -3.358088 -3.890602 0
M  V30 30 C -7.653635 -3.472620 -2.657980 0
M  V30 31 C -4.732752 -2.960577 -3.056079 0
M  V30 32 C -2.763526 -3.301150 -1.026056 0
M  V30 33 C -1.919144 -3.198369 0.083253 0
M  V30 34 C -0.808602 -2.357478 -0.013772 0
M  V30 35 C -0.062256 -2.399055 1.256972 0
M  V30 36 O -0.242213 -3.390186 2.027443 0
M  V30 37 N 0.859533 -1.404477 1.701641 0
M  V30 38 H 4.990110 2.529908 3.614069 0
M  V30 39 H 3.869345 1.146264 3.685101 0
M  V30 40 H 3.230115 2.878317 3.851278 0
M  V30 41 H 2.323742 0.197830 2.759375 0
M  V30 42 H 1.859994 1.220275 -2.038437 0
M  V30 43 H 4.451200 3.049067 -0.387113 0
M  V30 44 H 3.553770 2.794271 -1.932372 0
M  V30 45 H 3.079259 5.055314 -1.309599 0
M  V30 46 H 1.622804 4.069066 -1.097807 0
M  V30 47 H 4.252438 5.812496 0.924768 0
M  V30 48 H 3.718480 6.520597 3.268903 0
M  V30 49 H 0.049000 4.373281 3.116877 0
M  V30 50 H 0.595730 3.716436 0.874066 0
M  V30 51 H 0.805867 -0.589971 -2.415626 0
M  V30 52 H -1.145682 -1.184509 -3.133960 0
M  V30 53 H -1.892850 -2.458860 -4.828708 0
M  V30 54 H -3.504307 -2.737226 -6.675014 0
M  V30 55 H -8.718859 -3.170695 -2.729496 0
M  V30 56 H -7.142774 -2.997901 -1.810101 0
M  V30 57 H -7.694297 -4.571018 -2.414896 0
M  V30 58 H -5.121567 -3.031229 -2.070229 0
M  V30 59 H -3.631204 -3.946245 -0.976604 0
M  V30 60 H -2.088051 -3.734492 0.998907 0
M  V30 61 H 1.138007 -1.447220 2.704304 0
M  V30 END ATOM
M  V30 BEGIN BOND
M  V30 1 1 1 2
M  V30 2 1 2 3
M  V30 3 2 3 4
M  V30 4 1 4 5
M  V30 5 2 5 6
M  V30 6 1 6 7
M  V30 7 2 7 8
M  V30 8 1 8 9
M  V30 9 1 9 10
M  V30 10 1 10 11
M  V30 11 2 11 12
M  V30 12 1 12 13
M  V30 13 2 13 14
M  V30 14 1 14 15
M  V30 15 2 15 16
M  V30 16 1 6 17
M  V30 17 1 17 18
M  V30 18 2 18 19
M  V30 19 1 19 20
M  V30 20 1 20 21
M  V30 21 2 21 22
M  V30 22 1 22 23
M  V30 23 2 23 24
M  V30 24 1 24 25
M  V30 25 2 25 26
M  V30 26 1 25 27
M  V30 27 1 24 28
M  V30 28 1 28 29
M  V30 29 1 29 30
M  V30 30 2 28 31
M  V30 31 2 20 32
M  V30 32 1 32 33
M  V30 33 2 33 34
M  V30 34 1 34 35
M  V30 35 2 35 36
M  V30 36 1 35 37
M  V30 37 1 8 3
M  V30 38 1 16 11
M  V30 39 1 34 18
M  V30 40 1 37 5
M  V30 41 1 31 21
M  V30 42 1 1 38
M  V30 43 1 1 39
M  V30 44 1 1 40
M  V30 45 1 4 41
M  V30 46 1 7 42
M  V30 47 1 9 43
M  V30 48 1 9 44
M  V30 49 1 10 45
M  V30 50 1 10 46
M  V30 51 1 12 47
M  V30 52 1 13 48
M  V30 53 1 15 49
M  V30 54 1 16 50
M  V30 55 1 17 51
M  V30 56 1 19 52
M  V30 57 1 22 53
M  V30 58 1 23 54
M  V30 59 1 30 55
M  V30 60 1 30 56
M  V30 61 1 30 57
M  V30 62 1 31 58
M  V30 63 1 32 59
M  V30 64 1 33 60
M  V30 65 1 37 61
M  V30 END BOND
M  V30 END CTAB
M  END
>  <Dataset>  (636) 
ChEMBL_Kinases

>  <Ligand_Instance>  (636) 
nan

>  <PDB_ID>  (636) 
nan

>  <Standardized_SMILES>  (636) 
COc1cc2c(cc1CCc1ccncc1)Nc1cc(-c3ccc([N+](=O)[O-])c(OC)c3)ccc1C(=O)N2

>  <Name>  (636) 
nan

>  <Pocket>  (636) 
nan

>  <ATP_Site>  (636) 
nan

>  <Peripheral>  (636) 
nan

>  <Num_H_Atoms_ProtBoundConf>  (636) 
nan

>  <Num_Resolved_Atoms>  (636) 
nan

>  <Num_Not_Resolved_Atoms>  (636) 
nan

$$$$
CHEMBL4763003
     RDKit          3D

  0  0  0  0  0  0  0  0  0  0999 V3000
M  V30 BEGIN CTAB
M  V30 COUNTS 48 52 0 0 0
M  V30 BEGIN ATOM
M  V30 1 O 2.428296 2.539869 1.824090 0
M  V30 2 C 2.745654 1.376561 1.464526 0
M  V30 3 N 3.662608 0.711283 0.640717 0
M  V30 4 C 4.685333 1.421771 -0.162248 0
M  V30 5 N 4.503713 1.804151 -1.291426 0
M  V30 6 C 5.361286 2.434709 -2.051826 0
M  V30 7 C 5.252675 2.909771 -3.343309 0
M  V30 8 C 6.341732 3.545503 -3.896223 0
M  V30 9 N 7.561859 3.784373 -3.331868 0
M  V30 10 C 7.728178 3.345076 -2.074913 0
M  V30 11 C 6.614813 2.678473 -1.467914 0
M  V30 12 S 6.407277 1.932460 0.200133 0
M  V30 13 C 1.744078 0.631458 2.246954 0 CFG=2
M  V30 14 C 1.973802 -0.747016 2.705968 0
M  V30 15 C 1.164054 -0.559120 1.502921 0 CFG=1
M  V30 16 C -0.321105 -0.591423 1.533410 0
M  V30 17 C -1.035937 -0.230778 2.654812 0
M  V30 18 C -2.419212 -0.273021 2.647886 0
M  V30 19 C -3.142539 -0.677138 1.520602 0
M  V30 20 S -4.860888 -0.619185 1.805823 0
M  V30 21 O -5.573102 -0.528514 0.463036 0
M  V30 22 O -5.222209 0.616665 2.556931 0
M  V30 23 N -5.445561 -2.029249 2.595042 0
M  V30 24 C -5.422502 -3.372461 2.149631 0
M  V30 25 C -4.908942 -3.790741 0.941053 0
M  V30 26 C -4.881489 -5.086067 0.489764 0
M  V30 27 C -5.401199 -6.056964 1.288988 0
M  V30 28 C -5.916518 -5.650914 2.497269 0
M  V30 29 N -5.933073 -4.378363 2.918844 0
M  V30 30 C -2.414642 -1.034458 0.406821 0
M  V30 31 C -1.041636 -0.988407 0.426322 0
M  V30 32 H 3.606627 -0.308875 0.606418 0
M  V30 33 H 4.363315 2.813910 -3.950372 0
M  V30 34 H 6.255667 3.923894 -4.924459 0
M  V30 35 H 8.579386 3.407860 -1.421444 0
M  V30 36 H 1.084803 1.261057 2.851394 0
M  V30 37 H 2.987706 -1.184576 2.605972 0
M  V30 38 H 1.466120 -1.067556 3.636211 0
M  V30 39 H 1.623709 -0.870589 0.549064 0
M  V30 40 H -0.443589 0.075583 3.505652 0
M  V30 41 H -2.839781 0.043461 3.614349 0
M  V30 42 H -5.879585 -1.871066 3.538894 0
M  V30 43 H -4.492932 -3.060866 0.279726 0
M  V30 44 H -4.462611 -5.346475 -0.471217 0
M  V30 45 H -5.394801 -7.086282 0.962775 0
M  V30 46 H -6.337213 -6.404254 3.154008 0
M  V30 47 H -3.056478 -1.324132 -0.411610 0
M  V30 48 H -0.551123 -1.286612 -0.492451 0
M  V30 END ATOM
M  V30 BEGIN BOND
M  V30 1 2 1 2
M  V30 2 1 2 3
M  V30 3 1 3 4
M  V30 4 2 4 5
M  V30 5 1 5 6
M  V30 6 2 6 7
M  V30 7 1 7 8
M  V30 8 2 8 9
M  V30 9 1 9 10
M  V30 10 2 10 11
M  V30 11 1 11 12
M  V30 12 1 2 13
M  V30 13 1 13 14
M  V30 14 1 14 15
M  V30 15 1 15 16
M  V30 16 2 16 17
M  V30 17 1 17 18
M  V30 18 2 18 19
M  V30 19 1 19 20
M  V30 20 2 20 21
M  V30 21 2 20 22
M  V30 22 1 20 23
M  V30 23 1 23 24
M  V30 24 2 24 25
M  V30 25 1 25 26
M  V30 26 2 26 27
M  V30 27 1 27 28
M  V30 28 2 28 29
M  V30 29 1 19 30
M  V30 30 2 30 31
M  V30 31 1 12 4
M  V30 32 1 15 13
M  V30 33 1 31 16
M  V30 34 1 11 6
M  V30 35 1 29 24
M  V30 36 1 3 32
M  V30 37 1 7 33
M  V30 38 1 8 34
M  V30 39 1 10 35
M  V30 40 1 13 36 CFG=1
M  V30 41 1 14 37
M  V30 42 1 14 38
M  V30 43 1 15 39 CFG=3
M  V30 44 1 17 40
M  V30 45 1 18 41
M  V30 46 1 23 42
M  V30 47 1 25 43
M  V30 48 1 26 44
M  V30 49 1 27 45
M  V30 50 1 28 46
M  V30 51 1 30 47
M  V30 52 1 31 48
M  V30 END BOND
M  V30 END CTAB
M  END
>  <Dataset>  (637) 
ChEMBL_Kinases

>  <Ligand_Instance>  (637) 
nan

>  <PDB_ID>  (637) 
nan

>  <Standardized_SMILES>  (637) 
O=C(Nc1nc2ccncc2s1)[C@@H]1C[C@H]1c1ccc(S(=O)(=O)Nc2ccccn2)cc1

>  <Name>  (637) 
nan

>  <Pocket>  (637) 
nan

>  <ATP_Site>  (637) 
nan

>  <Peripheral>  (637) 
nan

>  <Num_H_Atoms_ProtBoundConf>  (637) 
nan

>  <Num_Resolved_Atoms>  (637) 
nan

>  <Num_Not_Resolved_Atoms>  (637) 
nan

$$$$
CHEMBL4763012
     RDKit          3D

  0  0  0  0  0  0  0  0  0  0999 V3000
M  V30 BEGIN CTAB
M  V30 COUNTS 54 61 0 0 0
M  V30 BEGIN ATOM
M  V30 1 C 3.408293 -2.086436 0.405627 0
M  V30 2 C 2.186036 -1.281155 0.823168 0 CFG=2
M  V30 3 O 2.204864 -0.050431 0.189781 0
M  V30 4 C 1.571077 1.002032 0.717107 0 CFG=2
M  V30 5 C 1.680184 1.179887 2.195275 0
M  V30 6 C 2.806248 0.231966 2.636074 0 CFG=1
M  V30 7 O 3.180030 0.421507 3.945909 0
M  V30 8 C 2.298738 -1.145215 2.320009 0 CFG=1
M  V30 9 O 1.134354 -1.462625 2.991689 0
M  V30 10 N 0.177432 1.147973 0.275426 0
M  V30 11 C -0.576456 2.227516 0.066124 0
M  V30 12 C -0.181993 3.538259 0.223212 0
M  V30 13 C -1.084746 4.562367 -0.034169 0
M  V30 14 C -2.364453 4.172229 -0.445769 0
M  V30 15 C -2.671462 2.854531 -0.575580 0
M  V30 16 C -1.829653 1.828181 -0.337387 0
M  V30 17 C -1.797266 0.476548 -0.361334 0
M  V30 18 C -2.777184 -0.417163 -0.678841 0
M  V30 19 C -2.481814 -1.755790 -0.607353 0
M  V30 20 C -1.239594 -2.219321 -0.229669 0
M  V30 21 C -0.656731 -3.453510 -0.056047 0
M  V30 22 C -1.187257 -4.707195 -0.222330 0
M  V30 23 C -0.411329 -5.815679 0.025450 0
M  V30 24 C 0.886403 -5.620725 0.437047 0
M  V30 25 C 1.358432 -4.345211 0.584817 0
M  V30 26 C 0.633136 -3.198898 0.352041 0
M  V30 27 N 0.930566 -1.895719 0.453381 0
M  V30 28 C -0.253823 -1.317935 0.088363 0
M  V30 29 C -0.571258 0.035920 0.011706 0
M  V30 30 C -3.685819 -2.578074 -0.990408 0
M  V30 31 N -4.712977 -1.603826 -1.300735 0
M  V30 32 C -4.152025 -0.337074 -1.106248 0
M  V30 33 O -4.909681 0.621220 -1.327681 0
M  V30 34 H 3.211568 -2.654969 -0.518446 0
M  V30 35 H 4.212516 -1.358034 0.021015 0
M  V30 36 H 3.934390 -2.581117 1.213707 0
M  V30 37 H 2.065541 1.917793 0.272786 0
M  V30 38 H 1.952392 2.218733 2.507404 0
M  V30 39 H 0.765651 0.832699 2.725496 0
M  V30 40 H 3.631160 0.450225 1.908473 0
M  V30 41 H 3.882463 1.145777 3.924948 0
M  V30 42 H 3.076874 -1.838139 2.760448 0
M  V30 43 H 1.129646 -0.961760 3.840692 0
M  V30 44 H 0.814745 3.794322 0.542598 0
M  V30 45 H -0.783016 5.573897 0.086216 0
M  V30 46 H -3.018837 5.020578 -0.629645 0
M  V30 47 H -3.665506 2.689469 -0.891748 0
M  V30 48 H -2.199751 -4.850666 -0.543467 0
M  V30 49 H -0.812596 -6.801826 -0.100529 0
M  V30 50 H 1.499407 -6.488341 0.633011 0
M  V30 51 H 2.373647 -4.253018 0.924002 0
M  V30 52 H -3.471746 -3.136622 -1.924166 0
M  V30 53 H -3.983516 -3.285252 -0.216491 0
M  V30 54 H -5.634343 -1.965355 -1.596261 0
M  V30 END ATOM
M  V30 BEGIN BOND
M  V30 1 1 2 1 CFG=3
M  V30 2 1 2 3
M  V30 3 1 3 4
M  V30 4 1 4 5
M  V30 5 1 5 6
M  V30 6 1 6 7
M  V30 7 1 6 8
M  V30 8 1 8 9
M  V30 9 1 4 10
M  V30 10 1 10 11
M  V30 11 2 11 12
M  V30 12 1 12 13
M  V30 13 2 13 14
M  V30 14 1 14 15
M  V30 15 2 15 16
M  V30 16 1 16 17
M  V30 17 2 17 18
M  V30 18 1 18 19
M  V30 19 2 19 20
M  V30 20 1 20 21
M  V30 21 2 21 22
M  V30 22 1 22 23
M  V30 23 2 23 24
M  V30 24 1 24 25
M  V30 25 2 25 26
M  V30 26 1 26 27
M  V30 27 1 27 28
M  V30 28 2 28 29
M  V30 29 1 19 30
M  V30 30 1 30 31
M  V30 31 1 31 32
M  V30 32 2 32 33
M  V30 33 1 8 2
M  V30 34 1 29 10
M  V30 35 1 27 2
M  V30 36 1 16 11
M  V30 37 1 29 17
M  V30 38 1 32 18
M  V30 39 1 28 20
M  V30 40 1 26 21
M  V30 41 1 1 34
M  V30 42 1 1 35
M  V30 43 1 1 36
M  V30 44 1 4 37 CFG=3
M  V30 45 1 5 38
M  V30 46 1 5 39
M  V30 47 1 6 40 CFG=3
M  V30 48 1 7 41
M  V30 49 1 8 42 CFG=1
M  V30 50 1 9 43
M  V30 51 1 12 44
M  V30 52 1 13 45
M  V30 53 1 14 46
M  V30 54 1 15 47
M  V30 55 1 22 48
M  V30 56 1 23 49
M  V30 57 1 24 50
M  V30 58 1 25 51
M  V30 59 1 30 52
M  V30 60 1 30 53
M  V30 61 1 31 54
M  V30 END BOND
M  V30 END CTAB
M  END
>  <Dataset>  (638) 
ChEMBL_Kinases

>  <Ligand_Instance>  (638) 
nan

>  <PDB_ID>  (638) 
nan

>  <Standardized_SMILES>  (638) 
C[C@]12O[C@H](C[C@@H](O)[C@H]1O)n1c3ccccc3c3c4c(c5c6ccccc6n2c5c31)CNC4=O

>  <Name>  (638) 
nan

>  <Pocket>  (638) 
nan

>  <ATP_Site>  (638) 
nan

>  <Peripheral>  (638) 
nan

>  <Num_H_Atoms_ProtBoundConf>  (638) 
nan

>  <Num_Resolved_Atoms>  (638) 
nan

>  <Num_Not_Resolved_Atoms>  (638) 
nan

$$$$
CHEMBL4277111
     RDKit          3D

  0  0  0  0  0  0  0  0  0  0999 V3000
M  V30 BEGIN CTAB
M  V30 COUNTS 35 37 0 0 0
M  V30 BEGIN ATOM
M  V30 1 O 1.634442 -4.961863 -3.255211 0
M  V30 2 C 1.276900 -3.984692 -2.563567 0
M  V30 3 C 1.606653 -3.651856 -1.192677 0
M  V30 4 C 2.428896 -4.597641 -0.617617 0
M  V30 5 C 2.838068 -4.456480 0.677792 0
M  V30 6 C 2.380326 -3.342884 1.336393 0
M  V30 7 C 2.726612 -3.128820 2.632756 0
M  V30 8 C 2.279218 -2.029212 3.325229 0
M  V30 9 C 1.462535 -1.086402 2.755114 0
M  V30 10 C 1.093051 -1.289826 1.417276 0
M  V30 11 C 0.243219 -0.244259 0.879806 0
M  V30 12 O -0.272172 0.647168 1.661032 0
M  V30 13 N -0.271099 0.183873 -0.349583 0
M  V30 14 C -1.048894 1.331970 -0.069356 0
M  V30 15 C -2.398823 1.222649 0.202831 0
M  V30 16 C -3.137559 2.363723 0.505847 0
M  V30 17 C -2.523848 3.639176 0.538279 0
M  V30 18 C -3.277562 4.868194 0.881330 0
M  V30 19 F -3.031427 5.916903 0.000934 0
M  V30 20 F -4.640539 4.626402 0.979558 0
M  V30 21 F -2.912067 5.335525 2.152802 0
M  V30 22 C -1.176445 3.661399 0.254563 0
M  V30 23 N -0.471416 2.552738 -0.036929 0
M  V30 24 C 1.565091 -2.397743 0.779600 0
M  V30 25 N 1.170928 -2.554891 -0.509554 0
M  V30 26 H 0.758470 -3.742070 -3.467844 0
M  V30 27 H 2.804740 -5.502795 -1.114131 0
M  V30 28 H 3.483140 -5.121047 1.242835 0
M  V30 29 H 3.358524 -3.804639 3.173950 0
M  V30 30 H 2.561615 -1.862055 4.374578 0
M  V30 31 H 1.136446 -0.227050 3.349687 0
M  V30 32 H 0.052362 -0.443487 -1.119060 0
M  V30 33 H -2.877674 0.262988 0.184535 0
M  V30 34 H -4.177547 2.274307 0.715650 0
M  V30 35 H -0.750000 4.671242 0.302442 0
M  V30 END ATOM
M  V30 BEGIN BOND
M  V30 1 2 1 2
M  V30 2 1 2 3
M  V30 3 2 3 4
M  V30 4 1 4 5
M  V30 5 2 5 6
M  V30 6 1 6 7
M  V30 7 2 7 8
M  V30 8 1 8 9
M  V30 9 2 9 10
M  V30 10 1 10 11
M  V30 11 2 11 12
M  V30 12 1 11 13
M  V30 13 1 13 14
M  V30 14 2 14 15
M  V30 15 1 15 16
M  V30 16 2 16 17
M  V30 17 1 17 18
M  V30 18 1 18 19
M  V30 19 1 18 20
M  V30 20 1 18 21
M  V30 21 1 17 22
M  V30 22 2 22 23
M  V30 23 1 10 24
M  V30 24 2 24 25
M  V30 25 1 25 3
M  V30 26 1 24 6
M  V30 27 1 23 14
M  V30 28 1 2 26
M  V30 29 1 4 27
M  V30 30 1 5 28
M  V30 31 1 7 29
M  V30 32 1 8 30
M  V30 33 1 9 31
M  V30 34 1 13 32
M  V30 35 1 15 33
M  V30 36 1 16 34
M  V30 37 1 22 35
M  V30 END BOND
M  V30 END CTAB
M  END
>  <Dataset>  (639) 
ChEMBL_Kinases

>  <Ligand_Instance>  (639) 
nan

>  <PDB_ID>  (639) 
nan

>  <Standardized_SMILES>  (639) 
O=Cc1ccc2cccc(C(=O)Nc3ccc(C(F)(F)F)cn3)c2n1

>  <Name>  (639) 
nan

>  <Pocket>  (639) 
nan

>  <ATP_Site>  (639) 
nan

>  <Peripheral>  (639) 
nan

>  <Num_H_Atoms_ProtBoundConf>  (639) 
nan

>  <Num_Resolved_Atoms>  (639) 
nan

>  <Num_Not_Resolved_Atoms>  (639) 
nan

$$$$
CHEMBL4277021
     RDKit          3D

  0  0  0  0  0  0  0  0  0  0999 V3000
M  V30 BEGIN CTAB
M  V30 COUNTS 48 51 0 0 0
M  V30 BEGIN ATOM
M  V30 1 C 2.958706 -5.109592 2.430535 0
M  V30 2 C 2.975966 -3.925435 1.514894 0
M  V30 3 C 4.187252 -3.529214 0.983012 0
M  V30 4 C 4.139224 -2.449366 0.159863 0
M  V30 5 C 2.987996 -1.754287 -0.160425 0
M  V30 6 C 1.783835 -2.191981 0.402097 0
M  V30 7 C 0.475083 -1.562046 0.161230 0
M  V30 8 N -0.571651 -2.201102 -0.440011 0
M  V30 9 N -1.603325 -1.349457 -0.502783 0
M  V30 10 C -1.270869 -0.149016 0.044856 0
M  V30 11 C 0.050599 -0.289287 0.465214 0
M  V30 12 C 0.864664 0.707436 1.111505 0
M  V30 13 C 1.238675 1.940963 0.594277 0
M  V30 14 C 2.028641 2.822852 1.311310 0
M  V30 15 C 2.461413 2.475886 2.575667 0
M  V30 16 O 3.243743 3.451366 3.178566 0
M  V30 17 C 2.102007 1.262057 3.102566 0
M  V30 18 C 1.315397 0.387938 2.384350 0
M  V30 19 C -2.448406 0.750524 -0.052916 0
M  V30 20 C -2.313639 1.549843 -1.299746 0
M  V30 21 C -3.572987 -0.248758 -0.089403 0
M  V30 22 C -3.679862 -0.868756 1.296492 0
M  V30 23 C -4.869336 0.274911 -0.590379 0
M  V30 24 C -2.979408 -1.324847 -0.983614 0
M  V30 25 N 1.844551 -3.264124 1.216920 0
M  V30 26 H 1.946452 -5.174396 2.888948 0
M  V30 27 H 3.215981 -6.026850 1.900964 0
M  V30 28 H 3.700598 -4.956386 3.236586 0
M  V30 29 H 5.142731 -4.016325 1.179707 0
M  V30 30 H 5.037535 -2.048061 -0.317490 0
M  V30 31 H 2.933991 -0.892471 -0.814366 0
M  V30 32 H 0.874869 2.165179 -0.397635 0
M  V30 33 H 2.274367 3.775724 0.821950 0
M  V30 34 H 3.043552 4.437143 3.091845 0
M  V30 35 H 2.500886 1.103312 4.098867 0
M  V30 36 H 1.121308 -0.529816 2.944272 0
M  V30 37 H -2.528453 1.444856 0.803099 0
M  V30 38 H -1.350383 2.082347 -1.291760 0
M  V30 39 H -3.087328 2.370433 -1.263736 0
M  V30 40 H -2.369592 0.959867 -2.229442 0
M  V30 41 H -4.303227 -1.788650 1.285093 0
M  V30 42 H -3.988921 -0.128242 2.053463 0
M  V30 43 H -2.647504 -1.195429 1.576407 0
M  V30 44 H -5.340193 -0.465373 -1.262616 0
M  V30 45 H -4.790986 1.277677 -1.008101 0
M  V30 46 H -5.560430 0.347371 0.291683 0
M  V30 47 H -3.491448 -2.284517 -0.857334 0
M  V30 48 H -2.938048 -1.031110 -2.049756 0
M  V30 END ATOM
M  V30 BEGIN BOND
M  V30 1 1 1 2
M  V30 2 2 2 3
M  V30 3 1 3 4
M  V30 4 2 4 5
M  V30 5 1 5 6
M  V30 6 1 6 7
M  V30 7 2 7 8
M  V30 8 1 8 9
M  V30 9 1 9 10
M  V30 10 2 10 11
M  V30 11 1 11 12
M  V30 12 2 12 13
M  V30 13 1 13 14
M  V30 14 2 14 15
M  V30 15 1 15 16
M  V30 16 1 15 17
M  V30 17 2 17 18
M  V30 18 1 10 19
M  V30 19 1 19 20
M  V30 20 1 19 21
M  V30 21 1 21 22
M  V30 22 1 21 23
M  V30 23 1 21 24
M  V30 24 2 6 25
M  V30 25 1 25 2
M  V30 26 1 11 7
M  V30 27 1 18 12
M  V30 28 1 24 9
M  V30 29 1 1 26
M  V30 30 1 1 27
M  V30 31 1 1 28
M  V30 32 1 3 29
M  V30 33 1 4 30
M  V30 34 1 5 31
M  V30 35 1 13 32
M  V30 36 1 14 33
M  V30 37 1 16 34
M  V30 38 1 17 35
M  V30 39 1 18 36
M  V30 40 1 19 37
M  V30 41 1 20 38
M  V30 42 1 20 39
M  V30 43 1 20 40
M  V30 44 1 22 41
M  V30 45 1 22 42
M  V30 46 1 22 43
M  V30 47 1 23 44
M  V30 48 1 23 45
M  V30 49 1 23 46
M  V30 50 1 24 47
M  V30 51 1 24 48
M  V30 END BOND
M  V30 END CTAB
M  END
>  <Dataset>  (640) 
ChEMBL_Kinases

>  <Ligand_Instance>  (640) 
nan

>  <PDB_ID>  (640) 
nan

>  <Standardized_SMILES>  (640) 
Cc1cccc(-c2nn3c(c2-c2ccc(O)cc2)C(C)C(C)(C)C3)n1

>  <Name>  (640) 
nan

>  <Pocket>  (640) 
nan

>  <ATP_Site>  (640) 
nan

>  <Peripheral>  (640) 
nan

>  <Num_H_Atoms_ProtBoundConf>  (640) 
nan

>  <Num_Resolved_Atoms>  (640) 
nan

>  <Num_Not_Resolved_Atoms>  (640) 
nan

$$$$
CHEMBL4276946
     RDKit          3D

  0  0  0  0  0  0  0  0  0  0999 V3000
M  V30 BEGIN CTAB
M  V30 COUNTS 29 30 0 0 0
M  V30 BEGIN ATOM
M  V30 1 C -1.948199 -2.012172 4.226287 0
M  V30 2 C -0.499138 -2.230938 3.978487 0
M  V30 3 O 0.191940 -2.889620 4.824952 0
M  V30 4 N 0.180705 -1.740107 2.829522 0
M  V30 5 N 1.465014 -1.943546 2.626502 0
M  V30 6 C 1.811118 -1.351181 1.445590 0
M  V30 7 C 3.153796 -1.313376 0.797470 0
M  V30 8 C 0.688190 -0.758177 0.900716 0
M  V30 9 C 0.605469 -0.012375 -0.361208 0
M  V30 10 C 0.313307 -0.673343 -1.542835 0
M  V30 11 C 0.242032 0.062610 -2.722954 0
M  V30 12 C 0.453457 1.425910 -2.747575 0
M  V30 13 Cl 0.382124 2.410423 -4.175175 0
M  V30 14 C 0.742918 2.043815 -1.540129 0
M  V30 15 Cl 1.032579 3.763636 -1.426870 0
M  V30 16 C 0.825179 1.351320 -0.334070 0
M  V30 17 C -0.336239 -1.027202 1.813173 0
M  V30 18 N -1.657983 -0.599043 1.641388 0
M  V30 19 H -2.570150 -2.010054 3.329300 0
M  V30 20 H -2.291102 -2.760731 4.975473 0
M  V30 21 H -2.127544 -1.013434 4.721473 0
M  V30 22 H 3.616123 -2.307973 0.992632 0
M  V30 23 H 3.025816 -1.228766 -0.298999 0
M  V30 24 H 3.787515 -0.486991 1.140421 0
M  V30 25 H 0.144933 -1.741162 -1.540980 0
M  V30 26 H 0.013536 -0.426884 -3.674359 0
M  V30 27 H 1.051641 1.842559 0.602827 0
M  V30 28 H -2.220546 -1.276199 1.068108 0
M  V30 29 H -2.353594 -1.149397 1.099527 0
M  V30 END ATOM
M  V30 BEGIN BOND
M  V30 1 1 1 2
M  V30 2 2 2 3
M  V30 3 1 2 4
M  V30 4 1 4 5
M  V30 5 2 5 6
M  V30 6 1 6 7
M  V30 7 1 6 8
M  V30 8 1 8 9
M  V30 9 2 9 10
M  V30 10 1 10 11
M  V30 11 2 11 12
M  V30 12 1 12 13
M  V30 13 1 12 14
M  V30 14 1 14 15
M  V30 15 2 14 16
M  V30 16 2 8 17
M  V30 17 1 17 18
M  V30 18 1 17 4
M  V30 19 1 16 9
M  V30 20 1 1 19
M  V30 21 1 1 20
M  V30 22 1 1 21
M  V30 23 1 7 22
M  V30 24 1 7 23
M  V30 25 1 7 24
M  V30 26 1 10 25
M  V30 27 1 11 26
M  V30 28 1 16 27
M  V30 29 1 18 28
M  V30 30 1 18 29
M  V30 END BOND
M  V30 END CTAB
M  END
>  <Dataset>  (641) 
ChEMBL_Kinases

>  <Ligand_Instance>  (641) 
nan

>  <PDB_ID>  (641) 
nan

>  <Standardized_SMILES>  (641) 
CC(=O)n1nc(C)c(-c2ccc(Cl)c(Cl)c2)c1N

>  <Name>  (641) 
nan

>  <Pocket>  (641) 
nan

>  <ATP_Site>  (641) 
nan

>  <Peripheral>  (641) 
nan

>  <Num_H_Atoms_ProtBoundConf>  (641) 
nan

>  <Num_Resolved_Atoms>  (641) 
nan

>  <Num_Not_Resolved_Atoms>  (641) 
nan

$$$$
CHEMBL4276907
     RDKit          3D

  0  0  0  0  0  0  0  0  0  0999 V3000
M  V30 BEGIN CTAB
M  V30 COUNTS 43 46 0 0 0
M  V30 BEGIN ATOM
M  V30 1 C -3.989067 -1.277139 4.469025 0
M  V30 2 C -2.690762 -1.587881 3.814277 0
M  V30 3 O -2.595127 -2.526123 2.983368 0
M  V30 4 N -1.561647 -0.810112 4.140891 0
M  V30 5 C -0.207048 -0.859145 3.693242 0
M  V30 6 C 0.199761 -0.126030 2.585260 0
M  V30 7 C 1.527964 -0.218115 2.204536 0
M  V30 8 C 1.857272 0.589639 1.028032 0
M  V30 9 N 2.714461 1.641201 0.909576 0
M  V30 10 C 2.690537 2.069783 -0.366243 0
M  V30 11 C 3.400476 3.115739 -0.952287 0
M  V30 12 C 3.174104 3.330725 -2.297260 0
M  V30 13 C 2.291746 2.563866 -3.057367 0
M  V30 14 N 1.638496 1.569522 -2.428375 0
M  V30 15 C 1.816964 1.311183 -1.120153 0
M  V30 16 C 1.299879 0.378325 -0.215242 0
M  V30 17 C 0.316407 -0.614393 -0.676862 0
M  V30 18 C -0.935287 -0.432703 -1.210530 0
M  V30 19 C -1.660401 -1.546793 -1.565079 0
M  V30 20 C -1.152593 -2.819353 -1.393233 0
M  V30 21 C 0.107561 -2.976879 -0.854976 0
M  V30 22 C 0.640511 -4.352447 -0.676226 0
M  V30 23 F 0.322282 -5.084453 -1.813177 0
M  V30 24 F 2.031951 -4.286834 -0.593454 0
M  V30 25 F 0.135263 -4.947338 0.474375 0
M  V30 26 N 0.800821 -1.875106 -0.514617 0
M  V30 27 C 2.451914 -0.996989 2.870539 0
M  V30 28 C 1.981457 -1.710936 3.977427 0
M  V30 29 N 0.690249 -1.617923 4.342943 0
M  V30 30 H -3.947407 -0.316756 4.990548 0
M  V30 31 H -4.745145 -1.212770 3.642507 0
M  V30 32 H -4.323609 -2.118572 5.100942 0
M  V30 33 H -1.570198 -0.005445 4.831075 0
M  V30 34 H -0.534128 0.487095 2.063701 0
M  V30 35 H 3.255747 1.989821 1.714524 0
M  V30 36 H 4.103903 3.748312 -0.404690 0
M  V30 37 H 3.709413 4.135790 -2.784109 0
M  V30 38 H 2.151137 2.777621 -4.117968 0
M  V30 39 H -1.199063 0.604340 -1.285982 0
M  V30 40 H -2.641305 -1.341803 -1.980998 0
M  V30 41 H -1.755761 -3.666914 -1.685498 0
M  V30 42 H 3.474822 -1.024180 2.520429 0
M  V30 43 H 2.698414 -2.339213 4.525903 0
M  V30 END ATOM
M  V30 BEGIN BOND
M  V30 1 1 1 2
M  V30 2 2 2 3
M  V30 3 1 2 4
M  V30 4 1 4 5
M  V30 5 2 5 6
M  V30 6 1 6 7
M  V30 7 1 7 8
M  V30 8 1 8 9
M  V30 9 1 9 10
M  V30 10 2 10 11
M  V30 11 1 11 12
M  V30 12 2 12 13
M  V30 13 1 13 14
M  V30 14 2 14 15
M  V30 15 1 15 16
M  V30 16 1 16 17
M  V30 17 2 17 18
M  V30 18 1 18 19
M  V30 19 2 19 20
M  V30 20 1 20 21
M  V30 21 1 21 22
M  V30 22 1 22 23
M  V30 23 1 22 24
M  V30 24 1 22 25
M  V30 25 2 21 26
M  V30 26 2 7 27
M  V30 27 1 27 28
M  V30 28 2 28 29
M  V30 29 1 29 5
M  V30 30 2 16 8
M  V30 31 1 26 17
M  V30 32 1 15 10
M  V30 33 1 1 30
M  V30 34 1 1 31
M  V30 35 1 1 32
M  V30 36 1 4 33
M  V30 37 1 6 34
M  V30 38 1 9 35
M  V30 39 1 11 36
M  V30 40 1 12 37
M  V30 41 1 13 38
M  V30 42 1 18 39
M  V30 43 1 19 40
M  V30 44 1 20 41
M  V30 45 1 27 42
M  V30 46 1 28 43
M  V30 END BOND
M  V30 END CTAB
M  END
>  <Dataset>  (642) 
ChEMBL_Kinases

>  <Ligand_Instance>  (642) 
nan

>  <PDB_ID>  (642) 
nan

>  <Standardized_SMILES>  (642) 
CC(=O)Nc1cc(-c2[nH]c3cccnc3c2-c2cccc(C(F)(F)F)n2)ccn1

>  <Name>  (642) 
nan

>  <Pocket>  (642) 
nan

>  <ATP_Site>  (642) 
nan

>  <Peripheral>  (642) 
nan

>  <Num_H_Atoms_ProtBoundConf>  (642) 
nan

>  <Num_Resolved_Atoms>  (642) 
nan

>  <Num_Not_Resolved_Atoms>  (642) 
nan

$$$$
CHEMBL4276896
     RDKit          3D

  0  0  0  0  0  0  0  0  0  0999 V3000
M  V30 BEGIN CTAB
M  V30 COUNTS 43 46 0 0 0
M  V30 BEGIN ATOM
M  V30 1 C -0.822096 -5.389338 -1.976987 0
M  V30 2 C 0.094925 -4.309897 -1.526325 0
M  V30 3 C 1.347712 -4.156410 -2.076889 0
M  V30 4 C 2.300238 -3.216405 -1.768035 0
M  V30 5 C 1.938252 -2.322206 -0.779410 0
M  V30 6 C 0.680432 -2.441608 -0.195934 0
M  V30 7 C 0.287466 -1.497436 0.856349 0
M  V30 8 N -0.017210 -1.779668 2.151958 0
M  V30 9 N -0.324896 -0.666352 2.796512 0
M  V30 10 C -0.234288 0.398307 1.945532 0
M  V30 11 C 0.150433 -0.131363 0.730189 0
M  V30 12 C 0.379037 0.615131 -0.493648 0
M  V30 13 C 1.412250 1.525451 -0.373892 0
M  V30 14 C 1.761007 2.320157 -1.448865 0
M  V30 15 N 1.116897 2.234393 -2.625630 0
M  V30 16 C 0.112349 1.346834 -2.736052 0
M  V30 17 C -0.278467 0.532356 -1.705532 0
M  V30 18 C -0.591014 1.641436 2.713688 0
M  V30 19 C -0.121297 1.201088 4.108407 0
M  V30 20 C 1.373221 1.021043 4.042224 0
M  V30 21 C -0.602017 2.089260 5.197252 0
M  V30 22 C -0.729066 -0.197465 4.118174 0
M  V30 23 N -0.201198 -3.396215 -0.556602 0
M  V30 24 H -0.550163 -6.362689 -1.476400 0
M  V30 25 H -0.713239 -5.579729 -3.060966 0
M  V30 26 H -1.869702 -5.190858 -1.679109 0
M  V30 27 H 1.615233 -4.878617 -2.861776 0
M  V30 28 H 3.252446 -3.199345 -2.274339 0
M  V30 29 H 2.622945 -1.552306 -0.474488 0
M  V30 30 H 2.029046 1.708824 0.520481 0
M  V30 31 H 2.574566 3.056725 -1.400073 0
M  V30 32 H -0.485259 1.183963 -3.637430 0
M  V30 33 H -1.071136 -0.203640 -1.710785 0
M  V30 34 H -1.676295 1.719469 2.660321 0
M  V30 35 H -0.013417 2.507515 2.376056 0
M  V30 36 H 1.922476 1.498812 4.878590 0
M  V30 37 H 1.799311 1.446299 3.095161 0
M  V30 38 H 1.691381 -0.051877 4.044359 0
M  V30 39 H -1.455238 1.703794 5.785158 0
M  V30 40 H 0.230745 2.258113 5.911237 0
M  V30 41 H -0.819159 3.107259 4.764023 0
M  V30 42 H -0.312396 -0.827050 4.925618 0
M  V30 43 H -1.829852 -0.145137 4.106669 0
M  V30 END ATOM
M  V30 BEGIN BOND
M  V30 1 1 1 2
M  V30 2 2 2 3
M  V30 3 1 3 4
M  V30 4 2 4 5
M  V30 5 1 5 6
M  V30 6 1 6 7
M  V30 7 2 7 8
M  V30 8 1 8 9
M  V30 9 1 9 10
M  V30 10 2 10 11
M  V30 11 1 11 12
M  V30 12 2 12 13
M  V30 13 1 13 14
M  V30 14 2 14 15
M  V30 15 1 15 16
M  V30 16 2 16 17
M  V30 17 1 10 18
M  V30 18 1 18 19
M  V30 19 1 19 20
M  V30 20 1 19 21
M  V30 21 1 19 22
M  V30 22 2 6 23
M  V30 23 1 23 2
M  V30 24 1 11 7
M  V30 25 1 17 12
M  V30 26 1 22 9
M  V30 27 1 1 24
M  V30 28 1 1 25
M  V30 29 1 1 26
M  V30 30 1 3 27
M  V30 31 1 4 28
M  V30 32 1 5 29
M  V30 33 1 13 30
M  V30 34 1 14 31
M  V30 35 1 16 32
M  V30 36 1 17 33
M  V30 37 1 18 34
M  V30 38 1 18 35
M  V30 39 1 20 36
M  V30 40 1 20 37
M  V30 41 1 20 38
M  V30 42 1 21 39
M  V30 43 1 21 40
M  V30 44 1 21 41
M  V30 45 1 22 42
M  V30 46 1 22 43
M  V30 END BOND
M  V30 END CTAB
M  END
>  <Dataset>  (643) 
ChEMBL_Kinases

>  <Ligand_Instance>  (643) 
nan

>  <PDB_ID>  (643) 
nan

>  <Standardized_SMILES>  (643) 
Cc1cccc(-c2nn3c(c2-c2ccncc2)CC(C)(C)C3)n1

>  <Name>  (643) 
nan

>  <Pocket>  (643) 
nan

>  <ATP_Site>  (643) 
nan

>  <Peripheral>  (643) 
nan

>  <Num_H_Atoms_ProtBoundConf>  (643) 
nan

>  <Num_Resolved_Atoms>  (643) 
nan

>  <Num_Not_Resolved_Atoms>  (643) 
nan

$$$$
CHEMBL4762923
     RDKit          3D

  0  0  0  0  0  0  0  0  0  0999 V3000
M  V30 BEGIN CTAB
M  V30 COUNTS 57 64 0 0 0
M  V30 BEGIN ATOM
M  V30 1 C 3.780298 0.436533 3.385685 0
M  V30 2 O 2.906440 0.408872 2.305850 0
M  V30 3 C 1.896019 -0.505312 2.395011 0 CFG=2
M  V30 4 C 2.173612 -1.653519 1.444986 0 CFG=2
M  V30 5 O 1.985656 -1.246113 0.130405 0
M  V30 6 C 1.284440 -2.789537 1.868857 0
M  V30 7 C -0.109697 -2.358956 2.213046 0 CFG=1
M  V30 8 O -0.305949 -1.117610 2.631362 0
M  V30 9 C 0.504945 -0.065764 2.280138 0 CFG=1
M  V30 10 C 0.195100 0.998750 3.357932 0
M  V30 11 N 0.101845 0.457585 0.967106 0
M  V30 12 C 0.244178 1.675662 0.444330 0
M  V30 13 C 0.844737 2.781626 0.947545 0
M  V30 14 C 0.874729 3.948774 0.217202 0
M  V30 15 C 0.307530 4.049846 -1.037138 0
M  V30 16 C -0.297786 2.924592 -1.538209 0
M  V30 17 C -0.327566 1.756473 -0.806678 0
M  V30 18 C -0.854243 0.538954 -1.093956 0
M  V30 19 C -1.544857 0.010773 -2.171375 0
M  V30 20 C -1.960361 -1.297029 -2.155810 0
M  V30 21 C -1.685109 -2.068543 -1.071287 0
M  V30 22 C -1.953399 -3.371283 -0.795121 0
M  V30 23 C -2.563741 -4.432926 -1.366284 0
M  V30 24 C -2.674431 -5.681766 -0.804539 0
M  V30 25 C -2.126492 -5.917729 0.457196 0
M  V30 26 C -1.492106 -4.846175 1.070981 0
M  V30 27 C -1.410585 -3.595409 0.448769 0
M  V30 28 N -0.828826 -2.488085 0.933358 0
M  V30 29 C -0.999419 -1.540556 -0.004096 0
M  V30 30 C -0.577028 -0.229163 -0.000620 0
M  V30 31 C -2.638731 -1.530198 -3.401961 0
M  V30 32 O -3.200967 -2.507952 -3.910168 0
M  V30 33 N -2.638569 -0.355084 -4.187364 0
M  V30 34 C -1.938852 0.700687 -3.450663 0
M  V30 35 H 4.547628 1.215945 3.198759 0
M  V30 36 H 4.264763 -0.563783 3.533294 0
M  V30 37 H 3.287531 0.653965 4.348600 0
M  V30 38 H 2.038698 -0.989523 3.409030 0
M  V30 39 H 3.246636 -1.906443 1.560040 0
M  V30 40 H 2.843107 -0.952634 -0.303851 0
M  V30 41 H 1.723568 -3.256951 2.770383 0
M  V30 42 H 1.343465 -3.547294 1.064212 0
M  V30 43 H -0.606433 -3.066201 2.906959 0
M  V30 44 H -0.316703 0.522513 4.251838 0
M  V30 45 H 1.120229 1.399887 3.809962 0
M  V30 46 H -0.536105 1.736061 3.016869 0
M  V30 47 H 1.295476 2.747261 1.897624 0
M  V30 48 H 1.345742 4.864051 0.579914 0
M  V30 49 H 0.294702 4.923069 -1.657075 0
M  V30 50 H -0.759225 2.941478 -2.514593 0
M  V30 51 H -3.013116 -4.368804 -2.319208 0
M  V30 52 H -3.163480 -6.538555 -1.258361 0
M  V30 53 H -2.163421 -6.854597 0.972275 0
M  V30 54 H -1.058515 -4.998930 2.048000 0
M  V30 55 H -3.004776 -0.098201 -5.114184 0
M  V30 56 H -1.021279 0.980789 -3.976121 0
M  V30 57 H -2.617295 1.552724 -3.237765 0
M  V30 END ATOM
M  V30 BEGIN BOND
M  V30 1 1 1 2
M  V30 2 1 2 3
M  V30 3 1 3 4
M  V30 4 1 4 5
M  V30 5 1 4 6
M  V30 6 1 6 7
M  V30 7 1 7 8
M  V30 8 1 8 9
M  V30 9 1 9 10 CFG=1
M  V30 10 1 9 11
M  V30 11 1 11 12
M  V30 12 2 12 13
M  V30 13 1 13 14
M  V30 14 2 14 15
M  V30 15 1 15 16
M  V30 16 2 16 17
M  V30 17 1 17 18
M  V30 18 2 18 19
M  V30 19 1 19 20
M  V30 20 2 20 21
M  V30 21 1 21 22
M  V30 22 2 22 23
M  V30 23 1 23 24
M  V30 24 2 24 25
M  V30 25 1 25 26
M  V30 26 2 26 27
M  V30 27 1 27 28
M  V30 28 1 28 29
M  V30 29 2 29 30
M  V30 30 1 20 31
M  V30 31 2 31 32
M  V30 32 1 31 33
M  V30 33 1 33 34
M  V30 34 1 9 3
M  V30 35 1 30 11
M  V30 36 1 28 7
M  V30 37 1 17 12
M  V30 38 1 30 18
M  V30 39 1 34 19
M  V30 40 1 29 21
M  V30 41 1 27 22
M  V30 42 1 1 35
M  V30 43 1 1 36
M  V30 44 1 1 37
M  V30 45 1 3 38 CFG=1
M  V30 46 1 4 39 CFG=3
M  V30 47 1 5 40
M  V30 48 1 6 41
M  V30 49 1 6 42
M  V30 50 1 7 43 CFG=1
M  V30 51 1 10 44
M  V30 52 1 10 45
M  V30 53 1 10 46
M  V30 54 1 13 47
M  V30 55 1 14 48
M  V30 56 1 15 49
M  V30 57 1 16 50
M  V30 58 1 23 51
M  V30 59 1 24 52
M  V30 60 1 25 53
M  V30 61 1 26 54
M  V30 62 1 33 55
M  V30 63 1 34 56
M  V30 64 1 34 57
M  V30 END BOND
M  V30 END CTAB
M  END
>  <Dataset>  (644) 
ChEMBL_Kinases

>  <Ligand_Instance>  (644) 
nan

>  <PDB_ID>  (644) 
nan

>  <Standardized_SMILES>  (644) 
CO[C@@H]1[C@H](O)C[C@H]2O[C@]1(C)n1c3ccccc3c3c4c(c5c6ccccc6n2c5c31)C(=O)NC4

>  <Name>  (644) 
nan

>  <Pocket>  (644) 
nan

>  <ATP_Site>  (644) 
nan

>  <Peripheral>  (644) 
nan

>  <Num_H_Atoms_ProtBoundConf>  (644) 
nan

>  <Num_Resolved_Atoms>  (644) 
nan

>  <Num_Not_Resolved_Atoms>  (644) 
nan

$$$$
CHEMBL4279160
     RDKit          3D

  0  0  0  0  0  0  0  0  0  0999 V3000
M  V30 BEGIN CTAB
M  V30 COUNTS 44 47 0 0 0
M  V30 BEGIN ATOM
M  V30 1 C 2.722072 -6.000539 2.222603 0
M  V30 2 O 2.569602 -4.645436 2.570663 0
M  V30 3 C 1.603662 -3.791850 2.075545 0
M  V30 4 C 1.724271 -2.522039 2.615793 0
M  V30 5 C 0.855151 -1.502506 2.257745 0
M  V30 6 C -0.151495 -1.747442 1.347021 0
M  V30 7 C -1.150540 -0.810562 0.845393 0
M  V30 8 C -1.074591 0.305363 0.038648 0
M  V30 9 C 0.181395 0.786625 -0.524876 0
M  V30 10 C 0.112479 0.694158 -1.920440 0
M  V30 11 C 1.186881 1.089129 -2.727828 0
M  V30 12 N 2.294401 1.563841 -2.111528 0
M  V30 13 C 2.370772 1.657098 -0.772067 0
M  V30 14 N 3.526593 2.153650 -0.075067 0
M  V30 15 C 3.406161 3.544794 0.090994 0
M  V30 16 C 4.434909 4.385580 0.777332 0
M  V30 17 O 2.375511 4.128558 -0.360866 0
M  V30 18 C 1.336449 1.278287 0.039902 0
M  V30 19 N -2.306926 0.821260 -0.116744 0
M  V30 20 C -3.159783 0.048492 0.579019 0
M  V30 21 C -4.546993 0.161480 0.735789 0
M  V30 22 C -5.191720 -0.768705 1.507344 0
M  V30 23 C -4.496109 -1.790369 2.114688 0
M  V30 24 N -3.168315 -1.875920 1.948303 0
M  V30 25 C -2.493990 -0.984624 1.199487 0
M  V30 26 C -0.238900 -3.031539 0.829237 0
M  V30 27 N 0.614371 -4.006798 1.189942 0
M  V30 28 H 3.270922 -6.007338 1.235740 0
M  V30 29 H 3.320273 -6.537457 2.973281 0
M  V30 30 H 1.790996 -6.543466 2.033352 0
M  V30 31 H 2.475065 -2.190054 3.345324 0
M  V30 32 H 0.894530 -0.507519 2.639313 0
M  V30 33 H -0.722992 0.328855 -2.539948 0
M  V30 34 H 1.186155 1.038824 -3.804251 0
M  V30 35 H 4.411779 1.767185 0.331823 0
M  V30 36 H 4.698211 3.868907 1.722763 0
M  V30 37 H 5.366222 4.444889 0.199086 0
M  V30 38 H 4.042774 5.368493 1.054756 0
M  V30 39 H 1.247877 1.294151 1.116535 0
M  V30 40 H -2.562170 1.665455 -0.673077 0
M  V30 41 H -5.157003 0.926429 0.295131 0
M  V30 42 H -6.260604 -0.814003 1.722634 0
M  V30 43 H -4.958699 -2.559803 2.740768 0
M  V30 44 H -0.980767 -3.354354 0.108324 0
M  V30 END ATOM
M  V30 BEGIN BOND
M  V30 1 1 1 2
M  V30 2 1 2 3
M  V30 3 2 3 4
M  V30 4 1 4 5
M  V30 5 2 5 6
M  V30 6 1 6 7
M  V30 7 2 7 8
M  V30 8 1 8 9
M  V30 9 2 9 10
M  V30 10 1 10 11
M  V30 11 2 11 12
M  V30 12 1 12 13
M  V30 13 1 13 14
M  V30 14 1 14 15
M  V30 15 1 15 16
M  V30 16 2 15 17
M  V30 17 2 13 18
M  V30 18 1 8 19
M  V30 19 1 19 20
M  V30 20 2 20 21
M  V30 21 1 21 22
M  V30 22 2 22 23
M  V30 23 1 23 24
M  V30 24 2 24 25
M  V30 25 1 6 26
M  V30 26 2 26 27
M  V30 27 1 27 3
M  V30 28 1 25 7
M  V30 29 1 18 9
M  V30 30 1 25 20
M  V30 31 1 1 28
M  V30 32 1 1 29
M  V30 33 1 1 30
M  V30 34 1 4 31
M  V30 35 1 5 32
M  V30 36 1 10 33
M  V30 37 1 11 34
M  V30 38 1 14 35
M  V30 39 1 16 36
M  V30 40 1 16 37
M  V30 41 1 16 38
M  V30 42 1 18 39
M  V30 43 1 19 40
M  V30 44 1 21 41
M  V30 45 1 22 42
M  V30 46 1 23 43
M  V30 47 1 26 44
M  V30 END BOND
M  V30 END CTAB
M  END
>  <Dataset>  (645) 
ChEMBL_Kinases

>  <Ligand_Instance>  (645) 
nan

>  <PDB_ID>  (645) 
nan

>  <Standardized_SMILES>  (645) 
COc1ccc(-c2c(-c3ccnc(NC(C)=O)c3)[nH]c3cccnc23)cn1

>  <Name>  (645) 
nan

>  <Pocket>  (645) 
nan

>  <ATP_Site>  (645) 
nan

>  <Peripheral>  (645) 
nan

>  <Num_H_Atoms_ProtBoundConf>  (645) 
nan

>  <Num_Resolved_Atoms>  (645) 
nan

>  <Num_Not_Resolved_Atoms>  (645) 
nan

$$$$
CHEMBL4278969
     RDKit          3D

  0  0  0  0  0  0  0  0  0  0999 V3000
M  V30 BEGIN CTAB
M  V30 COUNTS 49 51 0 0 0
M  V30 BEGIN ATOM
M  V30 1 N -5.943043 0.231697 0.440116 0
M  V30 2 C -4.869849 0.651593 0.520377 0
M  V30 3 C -3.508844 1.174733 0.598184 0
M  V30 4 C -3.232185 2.476614 0.897368 0
M  V30 5 N -1.930552 2.763536 0.910186 0
M  V30 6 C -0.938441 1.915468 0.666129 0
M  V30 7 N 0.334820 2.542929 0.760497 0
M  V30 8 C 1.413172 2.370652 1.698113 0
M  V30 9 C 2.520159 3.206582 1.642820 0
M  V30 10 C 3.514703 2.951120 2.559198 0
M  V30 11 C 3.501962 1.955566 3.507924 0
M  V30 12 C 2.384229 1.141443 3.534494 0
M  V30 13 Br 2.353029 -0.238418 4.830875 0
M  V30 14 C 1.360176 1.367246 2.626685 0
M  V30 15 N -1.256394 0.664197 0.382385 0
M  V30 16 C -2.522730 0.222611 0.329383 0
M  V30 17 N -2.616717 -1.144431 0.058490 0
M  V30 18 C -2.336341 -2.496008 -0.244880 0
M  V30 19 C -2.109047 -2.915280 -1.632585 0
M  V30 20 C -1.014488 -2.446439 -2.460894 0 CFG=1
M  V30 21 C -1.169707 -3.161654 -3.832563 0
M  V30 22 C 0.001052 -2.923963 -4.687367 0
M  V30 23 C 0.708479 -1.622665 -4.602030 0 CFG=2
M  V30 24 N 2.106920 -1.839360 -4.917790 0
M  V30 25 C 0.618160 -0.915993 -3.286910 0
M  V30 26 C -0.844396 -1.028656 -2.813827 0
M  V30 27 H -4.127505 3.049148 1.071219 0
M  V30 28 H 0.461151 3.248824 -0.013066 0
M  V30 29 H 2.490062 3.966322 0.893479 0
M  V30 30 H 4.374534 3.620565 2.493205 0
M  V30 31 H 4.374361 1.889295 4.155450 0
M  V30 32 H 0.483914 0.727412 2.652553 0
M  V30 33 H -3.665968 -1.254413 0.082960 0
M  V30 34 H -3.122461 -3.167833 0.179238 0
M  V30 35 H -1.437864 -2.849344 0.417744 0
M  V30 36 H -2.065405 -4.057246 -1.659414 0
M  V30 37 H -3.096075 -2.741918 -2.179910 0
M  V30 38 H -0.020452 -2.881045 -2.107282 0
M  V30 39 H -1.253481 -4.258154 -3.638314 0
M  V30 40 H -2.110870 -2.774877 -4.259652 0
M  V30 41 H -0.364552 -3.002046 -5.764330 0
M  V30 42 H 0.724120 -3.782188 -4.618787 0
M  V30 43 H 0.352380 -0.882515 -5.368960 0
M  V30 44 H 2.699464 -1.293791 -4.266016 0
M  V30 45 H 2.316993 -2.849986 -4.764968 0
M  V30 46 H 1.233671 -1.376028 -2.493379 0
M  V30 47 H 0.857234 0.144535 -3.425491 0
M  V30 48 H -1.065505 -0.253642 -2.110314 0
M  V30 49 H -1.414367 -0.840463 -3.780312 0
M  V30 END ATOM
M  V30 BEGIN BOND
M  V30 1 3 1 2
M  V30 2 1 2 3
M  V30 3 2 3 4
M  V30 4 1 4 5
M  V30 5 2 5 6
M  V30 6 1 6 7
M  V30 7 1 7 8
M  V30 8 2 8 9
M  V30 9 1 9 10
M  V30 10 2 10 11
M  V30 11 1 11 12
M  V30 12 1 12 13
M  V30 13 2 12 14
M  V30 14 1 6 15
M  V30 15 2 15 16
M  V30 16 1 16 17
M  V30 17 1 17 18
M  V30 18 1 18 19
M  V30 19 1 19 20
M  V30 20 1 20 21
M  V30 21 1 21 22
M  V30 22 1 22 23
M  V30 23 1 23 24
M  V30 24 1 23 25
M  V30 25 1 25 26
M  V30 26 1 16 3
M  V30 27 1 26 20
M  V30 28 1 14 8
M  V30 29 1 4 27
M  V30 30 1 7 28
M  V30 31 1 9 29
M  V30 32 1 10 30
M  V30 33 1 11 31
M  V30 34 1 14 32
M  V30 35 1 17 33
M  V30 36 1 18 34
M  V30 37 1 18 35
M  V30 38 1 19 36
M  V30 39 1 19 37
M  V30 40 1 20 38 CFG=1
M  V30 41 1 21 39
M  V30 42 1 21 40
M  V30 43 1 22 41
M  V30 44 1 22 42
M  V30 45 1 23 43 CFG=3
M  V30 46 1 24 44
M  V30 47 1 24 45
M  V30 48 1 25 46
M  V30 49 1 25 47
M  V30 50 1 26 48
M  V30 51 1 26 49
M  V30 END BOND
M  V30 END CTAB
M  END
>  <Dataset>  (646) 
ChEMBL_Kinases

>  <Ligand_Instance>  (646) 
nan

>  <PDB_ID>  (646) 
nan

>  <Standardized_SMILES>  (646) 
N#Cc1cnc(Nc2cccc(Br)c2)nc1NCC[C@H]1CC[C@H](N)CC1

>  <Name>  (646) 
nan

>  <Pocket>  (646) 
nan

>  <ATP_Site>  (646) 
nan

>  <Peripheral>  (646) 
nan

>  <Num_H_Atoms_ProtBoundConf>  (646) 
nan

>  <Num_Resolved_Atoms>  (646) 
nan

>  <Num_Not_Resolved_Atoms>  (646) 
nan

$$$$
CHEMBL4762312
     RDKit          3D

  0  0  0  0  0  0  0  0  0  0999 V3000
M  V30 BEGIN CTAB
M  V30 COUNTS 48 52 0 0 0
M  V30 BEGIN ATOM
M  V30 1 N -2.609338 -4.128443 4.682875 0
M  V30 2 C -1.597809 -3.340518 4.074835 0
M  V30 3 N -0.496156 -2.938052 4.763483 0
M  V30 4 C 0.483055 -2.190956 4.221262 0
M  V30 5 C 0.430789 -1.776909 2.904474 0
M  V30 6 C 1.437746 -0.966106 2.221056 0
M  V30 7 C 2.819140 -1.120826 2.259559 0
M  V30 8 N 3.373361 -0.148729 1.478424 0
M  V30 9 N 2.425875 0.607235 0.951468 0
M  V30 10 C 2.590416 1.750877 0.060969 0
M  V30 11 C 2.393154 3.053113 0.807933 0
M  V30 12 C 2.176286 4.136546 -0.225978 0
M  V30 13 N 3.191486 3.986976 -1.237218 0
M  V30 14 C 4.334749 3.209518 -0.798075 0
M  V30 15 C 3.959721 1.763737 -0.540363 0
M  V30 16 C 1.237755 0.129422 1.388894 0
M  V30 17 C -0.679945 -2.175776 2.189635 0
M  V30 18 C -1.122536 -1.998450 0.907845 0
M  V30 19 C -2.325559 -2.619318 0.693518 0
M  V30 20 C -3.243476 -2.773125 -0.418501 0
M  V30 21 C -4.403972 -3.497106 -0.254092 0
M  V30 22 Cl -4.821145 -4.253569 1.276740 0
M  V30 23 C -5.313582 -3.673565 -1.284845 0
M  V30 24 C -5.108504 -3.137862 -2.523223 0
M  V30 25 C -3.956962 -2.411649 -2.709549 0
M  V30 26 F -3.750463 -1.878916 -3.936688 0
M  V30 27 C -3.065724 -2.247647 -1.673238 0
M  V30 28 Cl -1.662034 -1.312299 -2.048965 0
M  V30 29 O -2.600986 -3.168045 1.849866 0
M  V30 30 C -1.682108 -2.941221 2.747047 0
M  V30 31 H -3.327598 -3.391256 4.866826 0
M  V30 32 H -2.620335 -5.143266 4.881790 0
M  V30 33 H 1.352414 -1.881953 4.790178 0
M  V30 34 H 3.336605 -1.889124 2.821129 0
M  V30 35 H 1.784298 1.714575 -0.699294 0
M  V30 36 H 1.512185 2.980350 1.496962 0
M  V30 37 H 3.248307 3.325435 1.455652 0
M  V30 38 H 1.136767 4.005774 -0.626879 0
M  V30 39 H 2.205203 5.128357 0.278112 0
M  V30 40 H 3.561712 4.945298 -1.451578 0
M  V30 41 H 4.783144 3.676821 0.097230 0
M  V30 42 H 5.090086 3.289119 -1.613341 0
M  V30 43 H 3.888262 1.243282 -1.535635 0
M  V30 44 H 4.727132 1.302818 0.085708 0
M  V30 45 H 0.294038 0.559981 1.112400 0
M  V30 46 H -0.606660 -1.446050 0.151291 0
M  V30 47 H -6.211571 -4.241639 -1.134294 0
M  V30 48 H -5.823198 -3.284071 -3.310681 0
M  V30 END ATOM
M  V30 BEGIN BOND
M  V30 1 1 1 2
M  V30 2 2 2 3
M  V30 3 1 3 4
M  V30 4 2 4 5
M  V30 5 1 5 6
M  V30 6 1 6 7
M  V30 7 2 7 8
M  V30 8 1 8 9
M  V30 9 1 9 10
M  V30 10 1 10 11
M  V30 11 1 11 12
M  V30 12 1 12 13
M  V30 13 1 13 14
M  V30 14 1 14 15
M  V30 15 1 9 16
M  V30 16 1 5 17
M  V30 17 1 17 18
M  V30 18 2 18 19
M  V30 19 1 19 20
M  V30 20 2 20 21
M  V30 21 1 21 22
M  V30 22 1 21 23
M  V30 23 2 23 24
M  V30 24 1 24 25
M  V30 25 1 25 26
M  V30 26 2 25 27
M  V30 27 1 27 28
M  V30 28 1 19 29
M  V30 29 1 29 30
M  V30 30 1 30 2
M  V30 31 2 16 6
M  V30 32 2 30 17
M  V30 33 1 15 10
M  V30 34 1 27 20
M  V30 35 1 1 31
M  V30 36 1 1 32
M  V30 37 1 4 33
M  V30 38 1 7 34
M  V30 39 1 10 35
M  V30 40 1 11 36
M  V30 41 1 11 37
M  V30 42 1 12 38
M  V30 43 1 12 39
M  V30 44 1 13 40
M  V30 45 1 14 41
M  V30 46 1 14 42
M  V30 47 1 15 43
M  V30 48 1 15 44
M  V30 49 1 16 45
M  V30 50 1 18 46
M  V30 51 1 23 47
M  V30 52 1 24 48
M  V30 END BOND
M  V30 END CTAB
M  END
>  <Dataset>  (647) 
ChEMBL_Kinases

>  <Ligand_Instance>  (647) 
nan

>  <PDB_ID>  (647) 
nan

>  <Standardized_SMILES>  (647) 
Nc1ncc(-c2cnn(C3CCNCC3)c2)c2cc(-c3c(Cl)ccc(F)c3Cl)oc12

>  <Name>  (647) 
nan

>  <Pocket>  (647) 
nan

>  <ATP_Site>  (647) 
nan

>  <Peripheral>  (647) 
nan

>  <Num_H_Atoms_ProtBoundConf>  (647) 
nan

>  <Num_Resolved_Atoms>  (647) 
nan

>  <Num_Not_Resolved_Atoms>  (647) 
nan

$$$$
CHEMBL4762347
     RDKit          3D

  0  0  0  0  0  0  0  0  0  0999 V3000
M  V30 BEGIN CTAB
M  V30 COUNTS 44 47 0 0 0
M  V30 BEGIN ATOM
M  V30 1 C -0.664088 -5.869491 -1.555569 0
M  V30 2 O -1.096341 -4.510687 -1.509889 0
M  V30 3 C -0.249238 -3.458040 -1.780311 0
M  V30 4 C 1.071573 -3.729522 -2.108903 0
M  V30 5 C 1.880228 -2.642893 -2.371017 0
M  V30 6 C 1.357176 -1.361795 -2.297999 0
M  V30 7 C 0.024724 -1.092274 -1.966362 0
M  V30 8 C -0.390454 0.332336 -1.931761 0 CFG=2
M  V30 9 C 0.416202 1.053857 -3.010317 0
M  V30 10 N -0.147350 0.965176 -0.648484 0
M  V30 11 C -0.040029 2.324069 -0.744439 0
M  V30 12 N 0.187778 3.119023 0.328769 0
M  V30 13 C 0.324740 2.623312 1.569302 0
M  V30 14 C 0.557534 3.391373 2.693125 0
M  V30 15 C 0.683314 2.781197 3.927836 0
M  V30 16 C 0.572091 1.393833 4.015339 0
M  V30 17 C 0.701281 0.730755 5.307541 0
M  V30 18 C 1.519455 1.214162 6.324254 0
M  V30 19 N 1.426745 0.387923 7.390954 0
M  V30 20 N 0.578521 -0.582866 7.056316 0
M  V30 21 C 0.125390 -0.400481 5.803695 0
M  V30 22 C 0.338527 0.639601 2.877438 0
M  V30 23 C 0.212676 1.251178 1.640941 0
M  V30 24 C -0.017144 0.419144 0.576133 0
M  V30 25 O -0.125251 -0.809936 0.587656 0
M  V30 26 C -0.775130 -2.185797 -1.706207 0
M  V30 27 H -0.470400 -6.061948 -2.641441 0
M  V30 28 H 0.275669 -6.033553 -1.004171 0
M  V30 29 H -1.438019 -6.529716 -1.121246 0
M  V30 30 H 1.414628 -4.739251 -2.148635 0
M  V30 31 H 2.915397 -2.816503 -2.630575 0
M  V30 32 H 2.069616 -0.572070 -2.520813 0
M  V30 33 H -1.449441 0.440944 -2.249965 0
M  V30 34 H 1.413416 1.356107 -2.630887 0
M  V30 35 H -0.151441 1.925193 -3.429137 0
M  V30 36 H 0.588102 0.319698 -3.823086 0
M  V30 37 H -0.116352 2.938920 -1.642768 0
M  V30 38 H 0.630987 4.453928 2.545152 0
M  V30 39 H 0.866215 3.387061 4.809649 0
M  V30 40 H 2.158234 2.073999 6.379018 0
M  V30 41 H 0.322994 -1.371867 7.716204 0
M  V30 42 H -0.570851 -1.015242 5.250129 0
M  V30 43 H 0.260976 -0.436230 3.004906 0
M  V30 44 H -1.794777 -1.973447 -1.452788 0
M  V30 END ATOM
M  V30 BEGIN BOND
M  V30 1 1 1 2
M  V30 2 1 2 3
M  V30 3 2 3 4
M  V30 4 1 4 5
M  V30 5 2 5 6
M  V30 6 1 6 7
M  V30 7 1 7 8
M  V30 8 1 8 9
M  V30 9 1 8 10
M  V30 10 1 10 11
M  V30 11 2 11 12
M  V30 12 1 12 13
M  V30 13 2 13 14
M  V30 14 1 14 15
M  V30 15 2 15 16
M  V30 16 1 16 17
M  V30 17 1 17 18
M  V30 18 2 18 19
M  V30 19 1 19 20
M  V30 20 1 20 21
M  V30 21 1 16 22
M  V30 22 2 22 23
M  V30 23 1 23 24
M  V30 24 2 24 25
M  V30 25 2 7 26
M  V30 26 1 26 3
M  V30 27 1 24 10
M  V30 28 1 23 13
M  V30 29 2 21 17
M  V30 30 1 1 27
M  V30 31 1 1 28
M  V30 32 1 1 29
M  V30 33 1 4 30
M  V30 34 1 5 31
M  V30 35 1 6 32
M  V30 36 1 8 33 CFG=3
M  V30 37 1 9 34
M  V30 38 1 9 35
M  V30 39 1 9 36
M  V30 40 1 11 37
M  V30 41 1 14 38
M  V30 42 1 15 39
M  V30 43 1 18 40
M  V30 44 1 20 41
M  V30 45 1 21 42
M  V30 46 1 22 43
M  V30 47 1 26 44
M  V30 END BOND
M  V30 END CTAB
M  END
>  <Dataset>  (648) 
ChEMBL_Kinases

>  <Ligand_Instance>  (648) 
nan

>  <PDB_ID>  (648) 
nan

>  <Standardized_SMILES>  (648) 
COc1cccc([C@H](C)n2cnc3ccc(-c4cn[nH]c4)cc3c2=O)c1

>  <Name>  (648) 
nan

>  <Pocket>  (648) 
nan

>  <ATP_Site>  (648) 
nan

>  <Peripheral>  (648) 
nan

>  <Num_H_Atoms_ProtBoundConf>  (648) 
nan

>  <Num_Resolved_Atoms>  (648) 
nan

>  <Num_Not_Resolved_Atoms>  (648) 
nan

$$$$
CHEMBL4278844
     RDKit          3D

  0  0  0  0  0  0  0  0  0  0999 V3000
M  V30 BEGIN CTAB
M  V30 COUNTS 42 45 0 0 0
M  V30 BEGIN ATOM
M  V30 1 O 1.322049 -6.020594 -0.427843 0
M  V30 2 C 1.737124 -5.115416 0.558595 0
M  V30 3 C 2.402694 -5.454868 1.718850 0
M  V30 4 C 2.769198 -4.485661 2.629858 0
M  V30 5 C 2.439492 -3.183119 2.322080 0
M  V30 6 C 1.773819 -2.814498 1.168492 0
M  V30 7 C 1.451326 -1.408034 0.898635 0
M  V30 8 N 0.825589 -0.962647 -0.162485 0
M  V30 9 N 0.699030 0.432369 -0.069011 0
M  V30 10 C 0.529893 1.321267 -1.147117 0
M  V30 11 C 0.477784 0.823788 -2.429884 0
M  V30 12 C 0.311840 1.658503 -3.533527 0
M  V30 13 C 0.203548 3.007335 -3.262654 0
M  V30 14 Cl -0.007260 4.103290 -4.620534 0
M  V30 15 C 0.248803 3.560690 -1.999108 0
M  V30 16 C 0.416675 2.678672 -0.929011 0
M  V30 17 C 0.778362 0.749938 1.342988 0
M  V30 18 C -0.538419 0.551368 2.023384 0
M  V30 19 C -1.389036 -0.518609 1.882844 0
M  V30 20 C -2.573363 -0.593094 2.558070 0
M  V30 21 C -2.979557 0.411285 3.423465 0
M  V30 22 Cl -4.483435 0.373961 4.316103 0
M  V30 23 C -2.173265 1.506595 3.606612 0
M  V30 24 C -0.985898 1.541027 2.904874 0
M  V30 25 C 1.792612 -0.277588 1.792692 0
M  V30 26 C 1.408144 -3.789193 0.257740 0
M  V30 27 H 1.848152 -6.897735 -0.510714 0
M  V30 28 H 2.616587 -6.511821 1.868639 0
M  V30 29 H 3.291126 -4.750668 3.539968 0
M  V30 30 H 2.715767 -2.409041 3.019045 0
M  V30 31 H 0.564559 -0.233636 -2.618092 0
M  V30 32 H 0.265910 1.311976 -4.550784 0
M  V30 33 H 0.158262 4.617171 -1.860409 0
M  V30 34 H 0.457715 3.060593 0.069022 0
M  V30 35 H 1.137169 1.787882 1.513840 0
M  V30 36 H -1.069144 -1.298662 1.208683 0
M  V30 37 H -3.229044 -1.440209 2.435961 0
M  V30 38 H -2.404095 2.341459 4.260927 0
M  V30 39 H -0.335204 2.412038 3.044727 0
M  V30 40 H 2.805929 0.148650 1.570658 0
M  V30 41 H 1.697511 -0.530467 2.862594 0
M  V30 42 H 0.885944 -3.496840 -0.646457 0
M  V30 END ATOM
M  V30 BEGIN BOND
M  V30 1 1 1 2
M  V30 2 2 2 3
M  V30 3 1 3 4
M  V30 4 2 4 5
M  V30 5 1 5 6
M  V30 6 1 6 7
M  V30 7 2 7 8
M  V30 8 1 8 9
M  V30 9 1 9 10
M  V30 10 2 10 11
M  V30 11 1 11 12
M  V30 12 2 12 13
M  V30 13 1 13 14
M  V30 14 1 13 15
M  V30 15 2 15 16
M  V30 16 1 9 17
M  V30 17 1 17 18
M  V30 18 2 18 19
M  V30 19 1 19 20
M  V30 20 2 20 21
M  V30 21 1 21 22
M  V30 22 1 21 23
M  V30 23 2 23 24
M  V30 24 1 17 25
M  V30 25 2 6 26
M  V30 26 1 26 2
M  V30 27 1 25 7
M  V30 28 1 16 10
M  V30 29 1 24 18
M  V30 30 1 1 27
M  V30 31 1 3 28
M  V30 32 1 4 29
M  V30 33 1 5 30
M  V30 34 1 11 31
M  V30 35 1 12 32
M  V30 36 1 15 33
M  V30 37 1 16 34
M  V30 38 1 17 35
M  V30 39 1 19 36
M  V30 40 1 20 37
M  V30 41 1 23 38
M  V30 42 1 24 39
M  V30 43 1 25 40
M  V30 44 1 25 41
M  V30 45 1 26 42
M  V30 END BOND
M  V30 END CTAB
M  END
>  <Dataset>  (649) 
ChEMBL_Kinases

>  <Ligand_Instance>  (649) 
nan

>  <PDB_ID>  (649) 
nan

>  <Standardized_SMILES>  (649) 
Oc1cccc(C2=NN(c3ccc(Cl)cc3)C(c3ccc(Cl)cc3)C2)c1

>  <Name>  (649) 
nan

>  <Pocket>  (649) 
nan

>  <ATP_Site>  (649) 
nan

>  <Peripheral>  (649) 
nan

>  <Num_H_Atoms_ProtBoundConf>  (649) 
nan

>  <Num_Resolved_Atoms>  (649) 
nan

>  <Num_Not_Resolved_Atoms>  (649) 
nan

$$$$
CHEMBL427882
     RDKit          3D

  0  0  0  0  0  0  0  0  0  0999 V3000
M  V30 BEGIN CTAB
M  V30 COUNTS 59 62 0 0 0
M  V30 BEGIN ATOM
M  V30 1 C 1.027154 -1.509700 4.235599 0
M  V30 2 N 2.266936 -2.219606 3.854459 0
M  V30 3 C 2.027439 -3.097689 2.732646 0
M  V30 4 C 2.914632 -2.779505 1.541397 0
M  V30 5 N 2.539251 -1.519307 0.974056 0
M  V30 6 C 2.123506 -0.773018 -0.183721 0
M  V30 7 C 2.609635 0.507735 -0.293496 0
M  V30 8 N 2.127890 1.244941 -1.326953 0
M  V30 9 C 1.229177 0.742993 -2.191468 0
M  V30 10 N 0.991124 1.851870 -3.056675 0
M  V30 11 C -0.422199 2.129024 -3.323664 0
M  V30 12 C -1.278041 1.751955 -2.131157 0
M  V30 13 N -0.901307 2.455600 -0.927169 0
M  V30 14 C -1.762208 1.875703 0.083248 0
M  V30 15 C -1.140725 1.028527 0.980760 0
M  V30 16 C -1.901272 0.387053 1.965780 0
M  V30 17 C -3.243455 0.687392 1.928122 0
M  V30 18 N -4.110499 0.079292 2.872745 0 CHG=1 VAL=4
M  V30 19 O -4.281468 -0.432178 3.981641 0
M  V30 20 O -5.455254 -0.188683 2.713534 0 CHG=-1 VAL=1
M  V30 21 C -3.877256 1.522657 1.047955 0
M  V30 22 N -5.258328 1.832292 1.007704 0
M  V30 23 N -3.079843 2.116148 0.113507 0
M  V30 24 N 0.762992 -0.508217 -2.081358 0
M  V30 25 C 1.201017 -1.312146 -1.065788 0
M  V30 26 C 0.620508 -2.626508 -1.114441 0
M  V30 27 C 1.492084 -3.670485 -1.367457 0
M  V30 28 C 1.167566 -4.994501 -1.506315 0
M  V30 29 C -0.148795 -5.379590 -1.390450 0
M  V30 30 Cl -0.645497 -7.042062 -1.556569 0
M  V30 31 C -1.074825 -4.396872 -1.137920 0
M  V30 32 C -0.668281 -3.091082 -1.012230 0
M  V30 33 Cl -1.897550 -1.898900 -0.711734 0
M  V30 34 C 2.636942 -0.643232 2.158840 0
M  V30 35 O 2.308931 0.593523 2.279806 0
M  V30 36 C 3.182862 -1.138471 3.486554 0
M  V30 37 H 0.158965 -2.158720 4.272022 0
M  V30 38 H 0.871917 -0.693512 3.476951 0
M  V30 39 H 1.262067 -0.975255 5.169119 0
M  V30 40 H 0.956455 -2.991477 2.451856 0
M  V30 41 H 2.218209 -4.133630 3.053621 0
M  V30 42 H 3.966477 -2.692287 1.912703 0
M  V30 43 H 2.866863 -3.653224 0.903419 0
M  V30 44 H 3.365395 0.887535 0.414516 0
M  V30 45 H 1.690344 2.463141 -3.521969 0
M  V30 46 H -0.570432 3.230883 -3.558046 0
M  V30 47 H -0.733913 1.557422 -4.198139 0
M  V30 48 H -1.287215 0.677989 -1.950403 0
M  V30 49 H -2.353232 2.026514 -2.367371 0
M  V30 50 H -0.241769 3.199539 -0.590207 0
M  V30 51 H -0.099503 0.823793 0.974626 0
M  V30 52 H -1.526248 -0.302107 2.716315 0
M  V30 53 H -5.697060 2.024118 0.058337 0
M  V30 54 H -5.943806 1.910148 1.791205 0
M  V30 55 H 2.571680 -3.485917 -1.482581 0
M  V30 56 H 1.896728 -5.778907 -1.707582 0
M  V30 57 H -2.122556 -4.641512 -1.048028 0
M  V30 58 H 3.121577 -0.402921 4.268894 0
M  V30 59 H 4.215080 -1.491505 3.390505 0
M  V30 END ATOM
M  V30 BEGIN BOND
M  V30 1 1 1 2
M  V30 2 1 2 3
M  V30 3 1 3 4
M  V30 4 1 4 5
M  V30 5 1 5 6
M  V30 6 2 6 7
M  V30 7 1 7 8
M  V30 8 2 8 9
M  V30 9 1 9 10
M  V30 10 1 10 11
M  V30 11 1 11 12
M  V30 12 1 12 13
M  V30 13 1 13 14
M  V30 14 2 14 15
M  V30 15 1 15 16
M  V30 16 2 16 17
M  V30 17 1 17 18
M  V30 18 2 18 19
M  V30 19 1 18 20
M  V30 20 1 17 21
M  V30 21 1 21 22
M  V30 22 2 21 23
M  V30 23 1 9 24
M  V30 24 2 24 25
M  V30 25 1 25 26
M  V30 26 2 26 27
M  V30 27 1 27 28
M  V30 28 2 28 29
M  V30 29 1 29 30
M  V30 30 1 29 31
M  V30 31 2 31 32
M  V30 32 1 32 33
M  V30 33 1 5 34
M  V30 34 2 34 35
M  V30 35 1 34 36
M  V30 36 1 36 2
M  V30 37 1 25 6
M  V30 38 1 32 26
M  V30 39 1 23 14
M  V30 40 1 1 37
M  V30 41 1 1 38
M  V30 42 1 1 39
M  V30 43 1 3 40
M  V30 44 1 3 41
M  V30 45 1 4 42
M  V30 46 1 4 43
M  V30 47 1 7 44
M  V30 48 1 10 45
M  V30 49 1 11 46
M  V30 50 1 11 47
M  V30 51 1 12 48
M  V30 52 1 12 49
M  V30 53 1 13 50
M  V30 54 1 15 51
M  V30 55 1 16 52
M  V30 56 1 22 53
M  V30 57 1 22 54
M  V30 58 1 27 55
M  V30 59 1 28 56
M  V30 60 1 31 57
M  V30 61 1 36 58
M  V30 62 1 36 59
M  V30 END BOND
M  V30 END CTAB
M  END
>  <Dataset>  (650) 
ChEMBL_Kinases

>  <Ligand_Instance>  (650) 
nan

>  <PDB_ID>  (650) 
nan

>  <Standardized_SMILES>  (650) 
CN1CCN(c2cnc(NCCNc3ccc([N+](=O)[O-])c(N)n3)nc2-c2ccc(Cl)cc2Cl)C(=O)C1

>  <Name>  (650) 
nan

>  <Pocket>  (650) 
nan

>  <ATP_Site>  (650) 
nan

>  <Peripheral>  (650) 
nan

>  <Num_H_Atoms_ProtBoundConf>  (650) 
nan

>  <Num_Resolved_Atoms>  (650) 
nan

>  <Num_Not_Resolved_Atoms>  (650) 
nan

$$$$
CHEMBL4762381
     RDKit          3D

  0  0  0  0  0  0  0  0  0  0999 V3000
M  V30 BEGIN CTAB
M  V30 COUNTS 118 124 0 0 0
M  V30 BEGIN ATOM
M  V30 1 C 3.464760 -3.816070 1.276262 0
M  V30 2 O 2.137431 -4.290988 1.265168 0
M  V30 3 C 1.051410 -3.586112 1.773988 0
M  V30 4 C 1.264011 -2.326088 2.327699 0
M  V30 5 C 0.143015 -1.645824 2.828745 0
M  V30 6 N 0.383293 -0.352867 3.372182 0
M  V30 7 C -0.589803 0.691988 3.711895 0
M  V30 8 C -0.312896 1.925945 2.879297 0
M  V30 9 C 1.025832 2.457111 3.219095 0
M  V30 10 O 1.750563 2.682577 2.050056 0
M  V30 11 C 2.202267 3.972285 1.921341 0
M  V30 12 C 2.929584 4.113275 0.640050 0
M  V30 13 O 3.438362 5.225792 0.329988 0
M  V30 14 N 3.157344 3.123089 -0.362822 0
M  V30 15 C 3.912589 3.404292 -1.582049 0 CFG=2
M  V30 16 C 2.947594 3.470271 -2.705541 0
M  V30 17 O 3.389187 3.642099 -3.887216 0
M  V30 18 N 1.560634 3.406887 -2.965498 0
M  V30 19 C 0.946397 3.523401 -4.253279 0
M  V30 20 C -0.144275 4.563061 -4.069909 0 CFG=2
M  V30 21 O 0.348229 5.867352 -4.184438 0
M  V30 22 C -0.580025 4.322696 -2.635691 0
M  V30 23 C 0.388014 3.242178 -2.136883 0 CFG=1
M  V30 24 C -0.319322 1.955026 -2.354192 0
M  V30 25 O -0.353531 1.017322 -3.218826 0
M  V30 26 N -1.225655 1.639155 -1.324757 0
M  V30 27 C -2.043136 0.442747 -1.309865 0 CFG=1
M  V30 28 C -1.301247 -0.691911 -0.600459 0
M  V30 29 C -3.338420 0.644539 -0.680696 0
M  V30 30 C -4.106100 1.754603 -1.016575 0
M  V30 31 C -5.298844 1.900235 -0.363886 0
M  V30 32 C -5.845377 1.105249 0.576036 0
M  V30 33 C -7.094730 1.240947 1.317780 0
M  V30 34 S -7.650817 0.040276 2.490087 0
M  V30 35 C -9.169051 0.937643 2.928517 0
M  V30 36 N -9.115463 2.061861 2.147931 0
M  V30 37 C -8.082429 2.173421 1.371764 0
M  V30 38 C -8.062545 3.418789 0.543904 0
M  V30 39 C -5.040970 -0.004418 0.884811 0
M  V30 40 C -3.829433 -0.223262 0.274734 0
M  V30 41 C 4.960054 2.349443 -1.731328 0
M  V30 42 C 5.826345 2.529827 -2.973140 0
M  V30 43 C 5.875388 2.447520 -0.529214 0
M  V30 44 C 4.363136 0.951305 -1.730755 0
M  V30 45 C 1.762673 1.512914 4.154930 0
M  V30 46 C 1.721472 0.094164 3.663943 0
M  V30 47 C -1.113242 -2.210849 2.770966 0
M  V30 48 C -1.277562 -3.466397 2.211273 0
M  V30 49 C -0.192865 -4.172472 1.703138 0
M  V30 50 N -0.333786 -5.470214 1.119605 0
M  V30 51 C -0.258060 -6.813867 1.599567 0
M  V30 52 O -0.021460 -7.015934 2.797588 0
M  V30 53 C -0.487384 -7.773799 0.520400 0
M  V30 54 C -0.455980 -9.088377 0.928027 0
M  V30 55 C -0.665403 -10.129055 0.025699 0
M  V30 56 C -0.908558 -9.823495 -1.305717 0
M  V30 57 C -0.931948 -8.498785 -1.674363 0
M  V30 58 C -1.172169 -8.032765 -3.031864 0
M  V30 59 C -1.416515 -8.820547 -4.125350 0
M  V30 60 C -1.602239 -8.010580 -5.247811 0
M  V30 61 N -1.461747 -6.769892 -4.779634 0
M  V30 62 N -1.209083 -6.767849 -3.482585 0
M  V30 63 N -0.726955 -7.477813 -0.789255 0
M  V30 64 H 3.670865 -3.168166 0.382210 0
M  V30 65 H 3.731703 -3.251417 2.180587 0
M  V30 66 H 4.196291 -4.663033 1.207400 0
M  V30 67 H 2.238871 -1.902257 2.365252 0
M  V30 68 H -0.610780 0.892694 4.791624 0
M  V30 69 H -1.591206 0.324744 3.342414 0
M  V30 70 H -0.283332 1.544463 1.813280 0
M  V30 71 H -1.095831 2.683586 2.968102 0
M  V30 72 H 0.941564 3.420167 3.752173 0
M  V30 73 H 2.939048 4.202627 2.720818 0
M  V30 74 H 1.385034 4.721708 1.904062 0
M  V30 75 H 2.740340 2.185344 -0.140979 0
M  V30 76 H 4.429103 4.402551 -1.471794 0
M  V30 77 H 1.635262 3.932100 -5.027394 0
M  V30 78 H 0.547322 2.589223 -4.658097 0
M  V30 79 H -0.918172 4.418607 -4.814379 0
M  V30 80 H 1.012186 5.860855 -4.914189 0
M  V30 81 H -0.471694 5.195054 -2.002037 0
M  V30 82 H -1.626513 3.948490 -2.672892 0
M  V30 83 H 0.651750 3.344773 -1.087123 0
M  V30 84 H -1.402904 2.235159 -0.468370 0
M  V30 85 H -2.147586 0.081270 -2.346681 0
M  V30 86 H -1.285490 -0.543859 0.476644 0
M  V30 87 H -0.302825 -0.844647 -1.054671 0
M  V30 88 H -1.871522 -1.614907 -0.824855 0
M  V30 89 H -3.767442 2.448450 -1.746410 0
M  V30 90 H -5.870830 2.765191 -0.649847 0
M  V30 91 H -10.068828 0.795340 3.638635 0
M  V30 92 H -7.151220 4.044799 0.775380 0
M  V30 93 H -8.160229 3.204462 -0.540960 0
M  V30 94 H -8.896192 4.125032 0.762349 0
M  V30 95 H -5.326719 -0.763706 1.630534 0
M  V30 96 H -3.245345 -1.101493 0.559689 0
M  V30 97 H 5.870926 3.605893 -3.285808 0
M  V30 98 H 6.856850 2.254987 -2.701493 0
M  V30 99 H 5.437711 1.950377 -3.837095 0
M  V30 100 H 6.248175 1.411416 -0.300197 0
M  V30 101 H 5.373481 2.787974 0.383411 0
M  V30 102 H 6.779605 3.062921 -0.716550 0
M  V30 103 H 3.447918 0.968643 -2.335611 0
M  V30 104 H 4.099495 0.654756 -0.692866 0
M  V30 105 H 5.119019 0.199293 -2.079540 0
M  V30 106 H 1.271317 1.570825 5.145554 0
M  V30 107 H 2.784074 1.899008 4.266221 0
M  V30 108 H 2.208032 -0.599145 4.372776 0
M  V30 109 H 2.341336 0.081817 2.731198 0
M  V30 110 H -1.963364 -1.670640 3.164656 0
M  V30 111 H -2.251495 -3.931542 2.153990 0
M  V30 112 H -0.527737 -5.158731 0.143088 0
M  V30 113 H -0.269109 -9.407318 1.956178 0
M  V30 114 H -0.667187 -11.192022 0.219923 0
M  V30 115 H -1.092003 -10.481386 -2.145923 0
M  V30 116 H -1.473554 -9.900364 -4.209780 0
M  V30 117 H -1.810793 -8.181045 -6.293629 0
M  V30 118 H -1.063134 -5.890803 -2.904523 0
M  V30 END ATOM
M  V30 BEGIN BOND
M  V30 1 1 1 2
M  V30 2 1 2 3
M  V30 3 2 3 4
M  V30 4 1 4 5
M  V30 5 1 5 6
M  V30 6 1 6 7
M  V30 7 1 7 8
M  V30 8 1 8 9
M  V30 9 1 9 10
M  V30 10 1 10 11
M  V30 11 1 11 12
M  V30 12 2 12 13
M  V30 13 1 12 14
M  V30 14 1 14 15
M  V30 15 1 15 16
M  V30 16 2 16 17
M  V30 17 1 16 18
M  V30 18 1 18 19
M  V30 19 1 19 20
M  V30 20 1 20 21
M  V30 21 1 20 22
M  V30 22 1 22 23
M  V30 23 1 23 24
M  V30 24 2 24 25
M  V30 25 1 24 26
M  V30 26 1 26 27
M  V30 27 1 27 28
M  V30 28 1 27 29
M  V30 29 2 29 30
M  V30 30 1 30 31
M  V30 31 2 31 32
M  V30 32 1 32 33
M  V30 33 1 33 34
M  V30 34 1 34 35
M  V30 35 2 35 36
M  V30 36 1 36 37
M  V30 37 1 37 38
M  V30 38 1 32 39
M  V30 39 2 39 40
M  V30 40 1 15 41
M  V30 41 1 41 42
M  V30 42 1 41 43
M  V30 43 1 41 44
M  V30 44 1 9 45
M  V30 45 1 45 46
M  V30 46 2 5 47
M  V30 47 1 47 48
M  V30 48 2 48 49
M  V30 49 1 49 50
M  V30 50 1 50 51
M  V30 51 2 51 52
M  V30 52 1 51 53
M  V30 53 2 53 54
M  V30 54 1 54 55
M  V30 55 2 55 56
M  V30 56 1 56 57
M  V30 57 1 57 58
M  V30 58 2 58 59
M  V30 59 1 59 60
M  V30 60 2 60 61
M  V30 61 1 61 62
M  V30 62 2 57 63
M  V30 63 1 49 3
M  V30 64 1 63 53
M  V30 65 1 46 6
M  V30 66 1 62 58
M  V30 67 1 23 18
M  V30 68 1 40 29
M  V30 69 2 37 33
M  V30 70 1 1 64
M  V30 71 1 1 65
M  V30 72 1 1 66
M  V30 73 1 4 67
M  V30 74 1 7 68
M  V30 75 1 7 69
M  V30 76 1 8 70
M  V30 77 1 8 71
M  V30 78 1 9 72
M  V30 79 1 11 73
M  V30 80 1 11 74
M  V30 81 1 14 75
M  V30 82 1 15 76 CFG=1
M  V30 83 1 19 77
M  V30 84 1 19 78
M  V30 85 1 20 79 CFG=3
M  V30 86 1 21 80
M  V30 87 1 22 81
M  V30 88 1 22 82
M  V30 89 1 23 83 CFG=1
M  V30 90 1 26 84
M  V30 91 1 27 85 CFG=3
M  V30 92 1 28 86
M  V30 93 1 28 87
M  V30 94 1 28 88
M  V30 95 1 30 89
M  V30 96 1 31 90
M  V30 97 1 35 91
M  V30 98 1 38 92
M  V30 99 1 38 93
M  V30 100 1 38 94
M  V30 101 1 39 95
M  V30 102 1 40 96
M  V30 103 1 42 97
M  V30 104 1 42 98
M  V30 105 1 42 99
M  V30 106 1 43 100
M  V30 107 1 43 101
M  V30 108 1 43 102
M  V30 109 1 44 103
M  V30 110 1 44 104
M  V30 111 1 44 105
M  V30 112 1 45 106
M  V30 113 1 45 107
M  V30 114 1 46 108
M  V30 115 1 46 109
M  V30 116 1 47 110
M  V30 117 1 48 111
M  V30 118 1 50 112
M  V30 119 1 54 113
M  V30 120 1 55 114
M  V30 121 1 56 115
M  V30 122 1 59 116
M  V30 123 1 60 117
M  V30 124 1 62 118
M  V30 END BOND
M  V30 END CTAB
M  END
>  <Dataset>  (651) 
ChEMBL_Kinases

>  <Ligand_Instance>  (651) 
nan

>  <PDB_ID>  (651) 
nan

>  <Standardized_SMILES>  (651) 
COc1cc(N2CCC(OCC(=O)N[C@H](C(=O)N3C[C@H](O)C[C@H]3C(=O)N[C@@H](C)c3ccc(-c4scnc4C)cc3)C(C)(C)C)CC2)ccc1NC(=O)c1cccc(-c2ccn[nH]2)n1

>  <Name>  (651) 
nan

>  <Pocket>  (651) 
nan

>  <ATP_Site>  (651) 
nan

>  <Peripheral>  (651) 
nan

>  <Num_H_Atoms_ProtBoundConf>  (651) 
nan

>  <Num_Resolved_Atoms>  (651) 
nan

>  <Num_Not_Resolved_Atoms>  (651) 
nan

$$$$
CHEMBL4762464
     RDKit          3D

  0  0  0  0  0  0  0  0  0  0999 V3000
M  V30 BEGIN CTAB
M  V30 COUNTS 51 54 0 0 0
M  V30 BEGIN ATOM
M  V30 1 C 1.204361 -4.629077 3.070385 0
M  V30 2 N 1.420819 -3.204849 2.995194 0
M  V30 3 C 1.726519 -2.396029 4.137785 0
M  V30 4 O 1.798378 -2.988344 5.219359 0
M  V30 5 C 1.947372 -0.955370 4.073501 0
M  V30 6 C 2.231122 -0.345973 5.280499 0
M  V30 7 C 2.449637 1.035749 5.260548 0
M  V30 8 C 2.393922 1.792802 4.111334 0
M  V30 9 C 2.106114 1.160229 2.902212 0
M  V30 10 C 2.020608 1.862195 1.614509 0
M  V30 11 C 2.766217 2.976340 1.285655 0
M  V30 12 N 2.614525 3.555629 0.065716 0
M  V30 13 C 1.748419 3.082325 -0.862976 0
M  V30 14 N 1.412013 3.456688 -2.114992 0
M  V30 15 C 0.471743 2.615403 -2.600265 0
M  V30 16 C 0.165959 1.663780 -1.675465 0
M  V30 17 C -0.785732 0.562855 -1.768047 0
M  V30 18 C -2.006917 0.939967 -2.305756 0
M  V30 19 C -3.015805 0.003244 -2.457623 0
M  V30 20 C -4.294312 0.360555 -3.011664 0
M  V30 21 N -5.312770 0.662320 -3.461246 0
M  V30 22 C -2.756896 -1.286578 -2.060246 0
M  V30 23 C -1.568676 -1.694665 -1.527399 0
M  V30 24 N -1.242098 -3.009261 -1.099270 0
M  V30 25 S -2.309669 -3.969354 -0.150428 0
M  V30 26 C -3.838247 -4.312164 -0.966530 0
M  V30 27 O -1.646484 -5.282708 0.137500 0
M  V30 28 O -2.589559 -3.300317 1.164456 0
M  V30 29 C -0.583137 -0.745263 -1.387096 0
M  V30 30 C 0.979743 1.967477 -0.577822 0
M  V30 31 C 1.140931 1.387076 0.662356 0
M  V30 32 C 1.889803 -0.216361 2.931020 0
M  V30 33 H 2.074500 -5.167983 2.595811 0
M  V30 34 H 1.126358 -5.006549 4.091298 0
M  V30 35 H 0.343131 -4.870902 2.423815 0
M  V30 36 H 1.350566 -2.744525 2.062064 0
M  V30 37 H 2.291261 -0.875323 6.221575 0
M  V30 38 H 2.676856 1.541186 6.209361 0
M  V30 39 H 2.559753 2.841389 4.095865 0
M  V30 40 H 3.461591 3.360311 2.025041 0
M  V30 41 H 1.817852 4.282423 -2.644325 0
M  V30 42 H 0.037042 2.710963 -3.598148 0
M  V30 43 H -2.252138 1.948188 -2.632042 0
M  V30 44 H -3.529461 -2.032935 -2.169722 0
M  V30 45 H -0.291346 -3.378395 -1.397424 0
M  V30 46 H -4.642626 -3.587565 -0.718717 0
M  V30 47 H -3.682564 -4.425203 -2.056088 0
M  V30 48 H -4.223881 -5.305533 -0.594260 0
M  V30 49 H 0.372585 -0.968214 -0.983196 0
M  V30 50 H 0.551976 0.533511 0.880108 0
M  V30 51 H 1.668347 -0.729871 2.028440 0
M  V30 END ATOM
M  V30 BEGIN BOND
M  V30 1 1 1 2
M  V30 2 1 2 3
M  V30 3 2 3 4
M  V30 4 1 3 5
M  V30 5 2 5 6
M  V30 6 1 6 7
M  V30 7 2 7 8
M  V30 8 1 8 9
M  V30 9 1 9 10
M  V30 10 2 10 11
M  V30 11 1 11 12
M  V30 12 2 12 13
M  V30 13 1 13 14
M  V30 14 1 14 15
M  V30 15 2 15 16
M  V30 16 1 16 17
M  V30 17 2 17 18
M  V30 18 1 18 19
M  V30 19 1 19 20
M  V30 20 3 20 21
M  V30 21 2 19 22
M  V30 22 1 22 23
M  V30 23 1 23 24
M  V30 24 1 24 25
M  V30 25 1 25 26
M  V30 26 2 25 27
M  V30 27 2 25 28
M  V30 28 2 23 29
M  V30 29 1 16 30
M  V30 30 2 30 31
M  V30 31 2 9 32
M  V30 32 1 32 5
M  V30 33 1 31 10
M  V30 34 1 30 13
M  V30 35 1 29 17
M  V30 36 1 1 33
M  V30 37 1 1 34
M  V30 38 1 1 35
M  V30 39 1 2 36
M  V30 40 1 6 37
M  V30 41 1 7 38
M  V30 42 1 8 39
M  V30 43 1 11 40
M  V30 44 1 14 41
M  V30 45 1 15 42
M  V30 46 1 18 43
M  V30 47 1 22 44
M  V30 48 1 24 45
M  V30 49 1 26 46
M  V30 50 1 26 47
M  V30 51 1 26 48
M  V30 52 1 29 49
M  V30 53 1 31 50
M  V30 54 1 32 51
M  V30 END BOND
M  V30 END CTAB
M  END
>  <Dataset>  (652) 
ChEMBL_Kinases

>  <Ligand_Instance>  (652) 
nan

>  <PDB_ID>  (652) 
nan

>  <Standardized_SMILES>  (652) 
CNC(=O)c1cccc(-c2cnc3[nH]cc(-c4cc(C#N)cc(NS(C)(=O)=O)c4)c3c2)c1

>  <Name>  (652) 
nan

>  <Pocket>  (652) 
nan

>  <ATP_Site>  (652) 
nan

>  <Peripheral>  (652) 
nan

>  <Num_H_Atoms_ProtBoundConf>  (652) 
nan

>  <Num_Resolved_Atoms>  (652) 
nan

>  <Num_Not_Resolved_Atoms>  (652) 
nan

$$$$
CHEMBL4278817
     RDKit          3D

  0  0  0  0  0  0  0  0  0  0999 V3000
M  V30 BEGIN CTAB
M  V30 COUNTS 49 53 0 0 0
M  V30 BEGIN ATOM
M  V30 1 O 1.691145 -5.833654 2.448127 0
M  V30 2 C 1.992132 -4.653060 1.787069 0
M  V30 3 C 3.000607 -3.839342 2.257999 0
M  V30 4 F 3.668761 -4.243760 3.377859 0
M  V30 5 C 3.289351 -2.662307 1.585535 0
M  V30 6 C 2.579201 -2.289890 0.445560 0
M  V30 7 C 3.074454 -1.013952 -0.070379 0
M  V30 8 C 4.396238 -0.916408 -0.453207 0
M  V30 9 N 4.857127 0.265932 -0.928844 0
M  V30 10 C 4.064944 1.344649 -1.038239 0
M  V30 11 N 4.271108 2.605016 -1.469337 0
M  V30 12 C 3.109156 3.290628 -1.362863 0
M  V30 13 C 2.137322 2.459233 -0.854801 0
M  V30 14 C 2.749679 1.242445 -0.655817 0
M  V30 15 C 2.222336 0.066813 -0.164560 0
M  V30 16 C 0.828501 -0.065414 0.242729 0
M  V30 17 C 0.389018 -0.365346 1.513283 0
M  V30 18 C -0.939825 -0.476442 1.830522 0
M  V30 19 C -1.928778 -0.293708 0.891792 0
M  V30 20 N -3.319364 -0.396760 1.156092 0
M  V30 21 C -4.409713 -0.199397 0.219431 0
M  V30 22 C -5.132431 1.027153 0.718373 0
M  V30 23 O -5.541452 1.013004 2.000257 0
M  V30 24 C -4.997919 0.178046 2.888668 0
M  V30 25 C -3.900487 -0.727009 2.441656 0
M  V30 26 C -1.515947 0.006369 -0.381971 0
M  V30 27 C -0.170736 0.122496 -0.719502 0
M  V30 28 C 1.572693 -3.105709 -0.021209 0
M  V30 29 C 1.296780 -4.273323 0.658025 0
M  V30 30 F 0.300388 -5.023919 0.147548 0
M  V30 31 H 1.116181 -5.815240 3.296897 0
M  V30 32 H 4.106424 -2.110475 2.057957 0
M  V30 33 H 5.016576 -1.799084 -0.356514 0
M  V30 34 H 5.162774 3.014445 -1.830678 0
M  V30 35 H 2.978893 4.321563 -1.635228 0
M  V30 36 H 1.116317 2.749819 -0.668297 0
M  V30 37 H 1.141811 -0.514961 2.274525 0
M  V30 38 H -1.185586 -0.709790 2.831150 0
M  V30 39 H -5.150836 -1.047830 0.288485 0
M  V30 40 H -4.099251 -0.019654 -0.815176 0
M  V30 41 H -5.995935 1.194131 0.029257 0
M  V30 42 H -4.443306 1.894024 0.554547 0
M  V30 43 H -4.604871 0.761026 3.755821 0
M  V30 44 H -5.830632 -0.433617 3.345785 0
M  V30 45 H -3.140824 -0.912011 3.223946 0
M  V30 46 H -4.354806 -1.750582 2.271024 0
M  V30 47 H -2.152541 0.180655 -1.235587 0
M  V30 48 H 0.172855 0.362255 -1.735641 0
M  V30 49 H 1.105370 -2.714510 -0.896471 0
M  V30 END ATOM
M  V30 BEGIN BOND
M  V30 1 1 1 2
M  V30 2 2 2 3
M  V30 3 1 3 4
M  V30 4 1 3 5
M  V30 5 2 5 6
M  V30 6 1 6 7
M  V30 7 2 7 8
M  V30 8 1 8 9
M  V30 9 2 9 10
M  V30 10 1 10 11
M  V30 11 1 11 12
M  V30 12 2 12 13
M  V30 13 1 13 14
M  V30 14 2 14 15
M  V30 15 1 15 16
M  V30 16 2 16 17
M  V30 17 1 17 18
M  V30 18 2 18 19
M  V30 19 1 19 20
M  V30 20 1 20 21
M  V30 21 1 21 22
M  V30 22 1 22 23
M  V30 23 1 23 24
M  V30 24 1 24 25
M  V30 25 1 19 26
M  V30 26 2 26 27
M  V30 27 1 6 28
M  V30 28 2 28 29
M  V30 29 1 29 30
M  V30 30 1 29 2
M  V30 31 1 15 7
M  V30 32 1 27 16
M  V30 33 1 14 10
M  V30 34 1 25 20
M  V30 35 1 1 31
M  V30 36 1 5 32
M  V30 37 1 8 33
M  V30 38 1 11 34
M  V30 39 1 12 35
M  V30 40 1 13 36
M  V30 41 1 17 37
M  V30 42 1 18 38
M  V30 43 1 21 39
M  V30 44 1 21 40
M  V30 45 1 22 41
M  V30 46 1 22 42
M  V30 47 1 24 43
M  V30 48 1 24 44
M  V30 49 1 25 45
M  V30 50 1 25 46
M  V30 51 1 26 47
M  V30 52 1 27 48
M  V30 53 1 28 49
M  V30 END BOND
M  V30 END CTAB
M  END
>  <Dataset>  (653) 
ChEMBL_Kinases

>  <Ligand_Instance>  (653) 
nan

>  <PDB_ID>  (653) 
nan

>  <Standardized_SMILES>  (653) 
Oc1c(F)cc(-c2cnc3[nH]ccc3c2-c2ccc(N3CCOCC3)cc2)cc1F

>  <Name>  (653) 
nan

>  <Pocket>  (653) 
nan

>  <ATP_Site>  (653) 
nan

>  <Peripheral>  (653) 
nan

>  <Num_H_Atoms_ProtBoundConf>  (653) 
nan

>  <Num_Resolved_Atoms>  (653) 
nan

>  <Num_Not_Resolved_Atoms>  (653) 
nan

$$$$
CHEMBL4278812
     RDKit          3D

  0  0  0  0  0  0  0  0  0  0999 V3000
M  V30 BEGIN CTAB
M  V30 COUNTS 50 53 0 0 0
M  V30 BEGIN ATOM
M  V30 1 C 0.474744 -4.674287 4.561012 0
M  V30 2 C -0.158973 -3.376516 4.208485 0
M  V30 3 C -0.747607 -2.588428 5.177886 0
M  V30 4 C -1.330257 -1.390123 4.835251 0
M  V30 5 C -1.328337 -0.971709 3.522046 0
M  V30 6 C -0.758400 -1.709476 2.506240 0
M  V30 7 C -0.700913 -1.353665 1.091923 0
M  V30 8 N -1.329202 -1.997293 0.075291 0
M  V30 9 N -1.040323 -1.379973 -1.067462 0
M  V30 10 C -0.225423 -0.334057 -0.807004 0
M  V30 11 C 0.010681 -0.291582 0.573006 0
M  V30 12 C 0.848582 0.708510 1.212892 0
M  V30 13 C 2.175776 0.546204 0.794900 0
M  V30 14 C 3.191204 1.386146 1.263278 0
M  V30 15 C 2.893362 2.396714 2.153378 0
M  V30 16 O 3.828684 3.279234 2.673666 0
M  V30 17 C 1.580675 2.534711 2.548224 0
M  V30 18 C 0.570393 1.723529 2.101909 0
M  V30 19 C 0.083934 0.344008 -2.108614 0
M  V30 20 C 1.248895 -0.377314 -2.710631 0
M  V30 21 C -1.200503 0.022291 -2.862792 0
M  V30 22 C -2.323557 0.760127 -2.213370 0
M  V30 23 C -1.117636 0.289407 -4.332335 0
M  V30 24 C -1.309556 -1.454983 -2.508291 0
M  V30 25 C -0.174215 -2.922397 2.885114 0
M  V30 26 C 0.455791 -3.780975 1.897354 0
M  V30 27 N 0.975660 -4.472374 1.118295 0
M  V30 28 H 1.513913 -4.655268 4.176224 0
M  V30 29 H 0.418527 -4.801112 5.650523 0
M  V30 30 H -0.100560 -5.500015 4.075052 0
M  V30 31 H -0.772360 -2.878063 6.224249 0
M  V30 32 H -1.810747 -0.725888 5.565851 0
M  V30 33 H -1.783129 -0.035116 3.231842 0
M  V30 34 H 2.572609 -0.204798 0.095114 0
M  V30 35 H 4.221791 1.301828 0.973024 0
M  V30 36 H 4.435059 3.007240 3.446061 0
M  V30 37 H 1.249471 3.291097 3.237587 0
M  V30 38 H -0.476130 1.748465 2.343953 0
M  V30 39 H 0.230781 1.429484 -1.989368 0
M  V30 40 H 2.131868 0.298233 -2.814067 0
M  V30 41 H 1.551951 -1.275127 -2.140624 0
M  V30 42 H 1.014321 -0.723588 -3.751089 0
M  V30 43 H -2.069232 0.915023 -1.141163 0
M  V30 44 H -2.456710 1.773216 -2.677659 0
M  V30 45 H -3.281952 0.196015 -2.200218 0
M  V30 46 H -0.647977 -0.496966 -4.922371 0
M  V30 47 H -2.169769 0.404301 -4.702512 0
M  V30 48 H -0.642404 1.291356 -4.463175 0
M  V30 49 H -2.325653 -1.857054 -2.703475 0
M  V30 50 H -0.495625 -2.060430 -2.934144 0
M  V30 END ATOM
M  V30 BEGIN BOND
M  V30 1 1 1 2
M  V30 2 2 2 3
M  V30 3 1 3 4
M  V30 4 2 4 5
M  V30 5 1 5 6
M  V30 6 1 6 7
M  V30 7 2 7 8
M  V30 8 1 8 9
M  V30 9 1 9 10
M  V30 10 2 10 11
M  V30 11 1 11 12
M  V30 12 2 12 13
M  V30 13 1 13 14
M  V30 14 2 14 15
M  V30 15 1 15 16
M  V30 16 1 15 17
M  V30 17 2 17 18
M  V30 18 1 10 19
M  V30 19 1 19 20
M  V30 20 1 19 21
M  V30 21 1 21 22
M  V30 22 1 21 23
M  V30 23 1 21 24
M  V30 24 2 6 25
M  V30 25 1 25 26
M  V30 26 3 26 27
M  V30 27 1 25 2
M  V30 28 1 11 7
M  V30 29 1 18 12
M  V30 30 1 24 9
M  V30 31 1 1 28
M  V30 32 1 1 29
M  V30 33 1 1 30
M  V30 34 1 3 31
M  V30 35 1 4 32
M  V30 36 1 5 33
M  V30 37 1 13 34
M  V30 38 1 14 35
M  V30 39 1 16 36
M  V30 40 1 17 37
M  V30 41 1 18 38
M  V30 42 1 19 39
M  V30 43 1 20 40
M  V30 44 1 20 41
M  V30 45 1 20 42
M  V30 46 1 22 43
M  V30 47 1 22 44
M  V30 48 1 22 45
M  V30 49 1 23 46
M  V30 50 1 23 47
M  V30 51 1 23 48
M  V30 52 1 24 49
M  V30 53 1 24 50
M  V30 END BOND
M  V30 END CTAB
M  END
>  <Dataset>  (654) 
ChEMBL_Kinases

>  <Ligand_Instance>  (654) 
nan

>  <PDB_ID>  (654) 
nan

>  <Standardized_SMILES>  (654) 
Cc1cccc(-c2nn3c(c2-c2ccc(O)cc2)C(C)C(C)(C)C3)c1C#N

>  <Name>  (654) 
nan

>  <Pocket>  (654) 
nan

>  <ATP_Site>  (654) 
nan

>  <Peripheral>  (654) 
nan

>  <Num_H_Atoms_ProtBoundConf>  (654) 
nan

>  <Num_Resolved_Atoms>  (654) 
nan

>  <Num_Not_Resolved_Atoms>  (654) 
nan

$$$$
CHEMBL427879
     RDKit          3D

  0  0  0  0  0  0  0  0  0  0999 V3000
M  V30 BEGIN CTAB
M  V30 COUNTS 65 69 0 0 0
M  V30 BEGIN ATOM
M  V30 1 C 0.917413 -1.987968 4.045809 0
M  V30 2 O 1.493246 -0.754790 4.442579 0
M  V30 3 C 1.554254 0.287192 3.527827 0
M  V30 4 C 2.119869 1.505552 3.908849 0
M  V30 5 C 2.157890 2.507332 2.969887 0
M  V30 6 C 1.666185 2.375862 1.665659 0
M  V30 7 C 1.777899 3.545197 0.756495 0
M  V30 8 N 0.673503 4.439021 0.785988 0
M  V30 9 C 0.868451 5.530065 -0.101156 0
M  V30 10 C 0.200196 5.422306 -1.435219 0
M  V30 11 C -1.264980 5.006259 -1.292133 0
M  V30 12 C -1.204386 3.634259 -0.623545 0
M  V30 13 C -2.567097 3.037760 -0.471498 0
M  V30 14 O -2.655472 1.797838 0.116592 0
M  V30 15 C -2.164652 0.584753 -0.226010 0
M  V30 16 C -1.407915 0.084037 -1.262248 0
M  V30 17 C -1.050201 -1.243323 -1.344525 0
M  V30 18 C -1.444881 -2.137784 -0.372933 0
M  V30 19 C -1.040901 -3.532693 -0.505076 0
M  V30 20 N -1.309665 -4.574117 0.303350 0
M  V30 21 C -0.744978 -5.708677 -0.184093 0
M  V30 22 C -0.760400 -6.998919 0.310074 0
M  V30 23 C -0.057549 -7.901951 -0.481753 0
M  V30 24 C 0.035485 -9.321459 -0.112847 0
M  V30 25 N -0.603268 -9.745234 1.077330 0
M  V30 26 O 0.594434 -10.317259 -0.654001 0
M  V30 27 C 0.605998 -7.596517 -1.650672 0
M  V30 28 C 0.567220 -6.263734 -2.074178 0
M  V30 29 C -0.102454 -5.321953 -1.349848 0
M  V30 30 N -0.293259 -3.992126 -1.530070 0
M  V30 31 C -2.205313 -1.691639 0.689582 0
M  V30 32 C -2.559563 -0.337128 0.756298 0
M  V30 33 C -0.625849 3.883008 0.749679 0
M  V30 34 C 1.115179 1.155668 1.329165 0
M  V30 35 C 1.065809 0.135093 2.254544 0
M  V30 36 H 1.444322 -2.399445 3.135437 0
M  V30 37 H -0.142300 -1.885782 3.740197 0
M  V30 38 H 1.068573 -2.769042 4.816746 0
M  V30 39 H 2.515550 1.658772 4.908315 0
M  V30 40 H 2.607404 3.445522 3.304100 0
M  V30 41 H 2.679568 4.154251 1.067276 0
M  V30 42 H 2.059340 3.220589 -0.287974 0
M  V30 43 H 1.961817 5.611762 -0.300789 0
M  V30 44 H 0.576792 6.520503 0.343225 0
M  V30 45 H 0.683348 4.719163 -2.132465 0
M  V30 46 H 0.173651 6.431165 -1.877584 0
M  V30 47 H -1.828233 5.739581 -0.700578 0
M  V30 48 H -1.672576 4.970566 -2.312216 0
M  V30 49 H -0.576598 3.019624 -1.257187 0
M  V30 50 H -3.074372 3.069831 -1.471433 0
M  V30 51 H -3.205120 3.735372 0.152716 0
M  V30 52 H -1.156959 0.852122 -1.964092 0
M  V30 53 H -0.455495 -1.504754 -2.206710 0
M  V30 54 H -1.252092 -7.304275 1.205568 0
M  V30 55 H -0.795157 -10.031966 2.056557 0
M  V30 56 H -1.649827 -9.917559 1.002245 0
M  V30 57 H 1.130414 -8.358205 -2.208512 0
M  V30 58 H 1.078028 -5.998391 -2.985735 0
M  V30 59 H 0.093983 -3.469521 -2.338429 0
M  V30 60 H -2.466097 -2.453046 1.395725 0
M  V30 61 H -3.159104 -0.176128 1.666579 0
M  V30 62 H -1.316443 4.649594 1.212943 0
M  V30 63 H -0.733169 3.000571 1.413361 0
M  V30 64 H 0.765766 1.151341 0.306307 0
M  V30 65 H 0.613676 -0.793952 1.903292 0
M  V30 END ATOM
M  V30 BEGIN BOND
M  V30 1 1 1 2
M  V30 2 1 2 3
M  V30 3 2 3 4
M  V30 4 1 4 5
M  V30 5 2 5 6
M  V30 6 1 6 7
M  V30 7 1 7 8
M  V30 8 1 8 9
M  V30 9 1 9 10
M  V30 10 1 10 11
M  V30 11 1 11 12
M  V30 12 1 12 13
M  V30 13 1 13 14
M  V30 14 1 14 15
M  V30 15 2 15 16
M  V30 16 1 16 17
M  V30 17 2 17 18
M  V30 18 1 18 19
M  V30 19 2 19 20
M  V30 20 1 20 21
M  V30 21 2 21 22
M  V30 22 1 22 23
M  V30 23 1 23 24
M  V30 24 1 24 25
M  V30 25 2 24 26
M  V30 26 2 23 27
M  V30 27 1 27 28
M  V30 28 2 28 29
M  V30 29 1 29 30
M  V30 30 1 18 31
M  V30 31 2 31 32
M  V30 32 1 12 33
M  V30 33 1 6 34
M  V30 34 2 34 35
M  V30 35 1 35 3
M  V30 36 1 33 8
M  V30 37 1 32 15
M  V30 38 1 30 19
M  V30 39 1 29 21
M  V30 40 1 1 36
M  V30 41 1 1 37
M  V30 42 1 1 38
M  V30 43 1 4 39
M  V30 44 1 5 40
M  V30 45 1 7 41
M  V30 46 1 7 42
M  V30 47 1 9 43
M  V30 48 1 9 44
M  V30 49 1 10 45
M  V30 50 1 10 46
M  V30 51 1 11 47
M  V30 52 1 11 48
M  V30 53 1 12 49
M  V30 54 1 13 50
M  V30 55 1 13 51
M  V30 56 1 16 52
M  V30 57 1 17 53
M  V30 58 1 22 54
M  V30 59 1 25 55
M  V30 60 1 25 56
M  V30 61 1 27 57
M  V30 62 1 28 58
M  V30 63 1 30 59
M  V30 64 1 31 60
M  V30 65 1 32 61
M  V30 66 1 33 62
M  V30 67 1 33 63
M  V30 68 1 34 64
M  V30 69 1 35 65
M  V30 END BOND
M  V30 END CTAB
M  END
>  <Dataset>  (655) 
ChEMBL_Kinases

>  <Ligand_Instance>  (655) 
nan

>  <PDB_ID>  (655) 
nan

>  <Standardized_SMILES>  (655) 
COc1ccc(CN2CCCC(COc3ccc(-c4nc5cc(C(N)=O)ccc5[nH]4)cc3)C2)cc1

>  <Name>  (655) 
nan

>  <Pocket>  (655) 
nan

>  <ATP_Site>  (655) 
nan

>  <Peripheral>  (655) 
nan

>  <Num_H_Atoms_ProtBoundConf>  (655) 
nan

>  <Num_Resolved_Atoms>  (655) 
nan

>  <Num_Not_Resolved_Atoms>  (655) 
nan

$$$$
CHEMBL4762694
     RDKit          3D

  0  0  0  0  0  0  0  0  0  0999 V3000
M  V30 BEGIN CTAB
M  V30 COUNTS 52 55 0 0 0
M  V30 BEGIN ATOM
M  V30 1 C -1.973423 -6.182511 0.126756 0
M  V30 2 O -0.705371 -6.840808 0.062092 0
M  V30 3 C 0.475580 -6.138243 -0.068240 0
M  V30 4 C 0.560184 -4.763987 -0.146510 0
M  V30 5 C 1.795753 -4.167977 -0.275099 0
M  V30 6 C 1.976388 -2.720427 -0.363082 0
M  V30 7 C 1.073175 -1.932466 0.321063 0
M  V30 8 N 1.236195 -0.603515 0.243944 0
M  V30 9 C 2.198958 0.030021 -0.438836 0
M  V30 10 C 2.455208 1.358542 -0.583632 0
M  V30 11 C 1.655051 2.520522 0.037063 0
M  V30 12 C 2.102283 3.792639 -0.247313 0
M  V30 13 C 1.421388 4.897125 0.283662 0
M  V30 14 C 0.314615 4.702004 1.082843 0
M  V30 15 C -0.111910 3.417346 1.351898 0
M  V30 16 N -1.256782 3.154119 2.175484 0
M  V30 17 C -2.539163 3.060737 1.557203 0
M  V30 18 O -2.412887 3.242254 0.301256 0
M  V30 19 C -3.676714 2.790374 2.441674 0
M  V30 20 C -3.872041 3.848873 3.504003 0
M  V30 21 C -4.935646 2.675563 1.626680 0
M  V30 22 C 0.567172 2.345401 0.823069 0
M  V30 23 S 3.769978 1.623200 -1.534725 0
M  V30 24 N 4.120697 -0.193493 -1.848501 0
M  V30 25 C 3.100890 -0.728311 -1.121185 0
M  V30 26 C 2.986652 -2.110718 -1.081403 0
M  V30 27 C 2.965250 -4.892749 -0.329875 0
M  V30 28 C 2.883540 -6.266820 -0.251887 0
M  V30 29 C 1.645679 -6.881063 -0.122076 0
M  V30 30 N 1.589080 -8.297838 -0.044745 0
M  V30 31 H -2.150282 -5.656150 -0.829688 0
M  V30 32 H -2.794171 -6.895649 0.247319 0
M  V30 33 H -2.004386 -5.466218 0.975688 0
M  V30 34 H -0.326253 -4.178436 -0.107128 0
M  V30 35 H 0.256761 -2.334502 0.904766 0
M  V30 36 H 2.951439 4.030501 -0.857751 0
M  V30 37 H 1.762893 5.900090 0.067002 0
M  V30 38 H -0.246920 5.517504 1.517664 0
M  V30 39 H -1.127055 3.035205 3.221823 0
M  V30 40 H -3.562210 1.823730 3.003770 0
M  V30 41 H -4.593536 3.415314 4.246950 0
M  V30 42 H -2.899584 3.976110 4.030935 0
M  V30 43 H -4.296486 4.772103 3.111834 0
M  V30 44 H -5.162028 1.623924 1.437010 0
M  V30 45 H -4.758365 3.167870 0.645022 0
M  V30 46 H -5.786658 3.180142 2.158641 0
M  V30 47 H 0.225125 1.357672 1.040013 0
M  V30 48 H 3.616579 -2.834562 -1.564065 0
M  V30 49 H 3.954838 -4.504221 -0.428369 0
M  V30 50 H 3.760498 -6.893200 -0.288503 0
M  V30 51 H 0.679420 -8.799643 0.036127 0
M  V30 52 H 2.454943 -8.871922 -0.066950 0
M  V30 END ATOM
M  V30 BEGIN BOND
M  V30 1 1 1 2
M  V30 2 1 2 3
M  V30 3 2 3 4
M  V30 4 1 4 5
M  V30 5 1 5 6
M  V30 6 1 6 7
M  V30 7 2 7 8
M  V30 8 1 8 9
M  V30 9 2 9 10
M  V30 10 1 10 11
M  V30 11 2 11 12
M  V30 12 1 12 13
M  V30 13 2 13 14
M  V30 14 1 14 15
M  V30 15 1 15 16
M  V30 16 1 16 17
M  V30 17 2 17 18
M  V30 18 1 17 19
M  V30 19 1 19 20
M  V30 20 1 19 21
M  V30 21 2 15 22
M  V30 22 1 10 23
M  V30 23 1 23 24
M  V30 24 2 24 25
M  V30 25 1 25 26
M  V30 26 2 5 27
M  V30 27 1 27 28
M  V30 28 2 28 29
M  V30 29 1 29 30
M  V30 30 1 29 3
M  V30 31 2 26 6
M  V30 32 1 25 9
M  V30 33 1 22 11
M  V30 34 1 1 31
M  V30 35 1 1 32
M  V30 36 1 1 33
M  V30 37 1 4 34
M  V30 38 1 7 35
M  V30 39 1 12 36
M  V30 40 1 13 37
M  V30 41 1 14 38
M  V30 42 1 16 39
M  V30 43 1 19 40
M  V30 44 1 20 41
M  V30 45 1 20 42
M  V30 46 1 20 43
M  V30 47 1 21 44
M  V30 48 1 21 45
M  V30 49 1 21 46
M  V30 50 1 22 47
M  V30 51 1 26 48
M  V30 52 1 27 49
M  V30 53 1 28 50
M  V30 54 1 30 51
M  V30 55 1 30 52
M  V30 END BOND
M  V30 END CTAB
M  END
>  <Dataset>  (656) 
ChEMBL_Kinases

>  <Ligand_Instance>  (656) 
nan

>  <PDB_ID>  (656) 
nan

>  <Standardized_SMILES>  (656) 
COc1cc(-c2cnc3c(-c4cccc(NC(=O)C(C)C)c4)snc3c2)ccc1N

>  <Name>  (656) 
nan

>  <Pocket>  (656) 
nan

>  <ATP_Site>  (656) 
nan

>  <Peripheral>  (656) 
nan

>  <Num_H_Atoms_ProtBoundConf>  (656) 
nan

>  <Num_Resolved_Atoms>  (656) 
nan

>  <Num_Not_Resolved_Atoms>  (656) 
nan

$$$$
CHEMBL4762563
     RDKit          3D

  0  0  0  0  0  0  0  0  0  0999 V3000
M  V30 BEGIN CTAB
M  V30 COUNTS 57 60 0 0 0
M  V30 BEGIN ATOM
M  V30 1 C 3.339634 -7.261130 1.376989 0
M  V30 2 C 3.702257 -6.425489 2.330961 0
M  V30 3 C 4.323824 -5.227238 1.815342 0
M  V30 4 O 4.418186 -5.173239 0.563284 0
M  V30 5 N 4.806542 -4.164378 2.625604 0
M  V30 6 C 5.436371 -2.940058 2.171224 0
M  V30 7 C 4.435737 -1.982823 1.625239 0
M  V30 8 C 3.827445 -1.067749 2.490244 0
M  V30 9 C 2.891048 -0.147732 2.068521 0
M  V30 10 C 2.522334 -0.111191 0.733519 0
M  V30 11 C 1.527584 0.862811 0.293499 0
M  V30 12 C 1.394711 2.103378 0.884235 0
M  V30 13 C 0.436066 2.991264 0.433163 0
M  V30 14 C -0.385646 2.622386 -0.614040 0
M  V30 15 C -1.468743 3.447622 -1.223186 0
M  V30 16 C -1.204500 3.737897 -2.686125 0
M  V30 17 C -2.720471 2.657970 -1.105671 0
M  V30 18 O -3.424827 2.286268 -2.087670 0
M  V30 19 N -3.233133 2.250433 0.156398 0
M  V30 20 C -4.456550 1.486602 0.150733 0
M  V30 21 C -4.271622 0.113456 0.076880 0
M  V30 22 C -5.548697 -0.457694 0.082495 0
M  V30 23 C -5.891245 -1.917610 0.019073 0
M  V30 24 C -4.998860 -2.800013 -0.834622 0
M  V30 25 C -4.816806 -2.825104 0.636125 0
M  V30 26 N -6.407624 0.567162 0.156841 0
M  V30 27 N -5.775839 1.733685 0.198366 0
M  V30 28 C -0.248690 1.380714 -1.201325 0
M  V30 29 C 0.706365 0.472585 -0.765869 0
M  V30 30 C 3.104480 -0.999640 -0.141547 0
M  V30 31 C 4.039658 -1.911138 0.306377 0
M  V30 32 H 3.134456 -7.774853 0.460886 0
M  V30 33 H 2.856934 -8.225310 1.476681 0
M  V30 34 H 3.473417 -6.780361 3.321777 0
M  V30 35 H 4.655057 -4.361105 3.637566 0
M  V30 36 H 5.964710 -2.497303 3.038996 0
M  V30 37 H 6.181724 -3.232998 1.399343 0
M  V30 38 H 4.069301 -1.036978 3.562445 0
M  V30 39 H 2.424748 0.556615 2.743445 0
M  V30 40 H 2.036030 2.396255 1.703345 0
M  V30 41 H 0.268213 3.978524 0.840340 0
M  V30 42 H -1.595841 4.434874 -0.741166 0
M  V30 43 H -0.204061 4.157062 -2.814971 0
M  V30 44 H -1.933210 4.547463 -2.968656 0
M  V30 45 H -1.432337 2.860237 -3.314260 0
M  V30 46 H -2.701467 2.523032 1.016204 0
M  V30 47 H -3.391453 -0.546978 0.019991 0
M  V30 48 H -6.934204 -2.240652 0.032894 0
M  V30 49 H -5.415193 -3.642132 -1.392975 0
M  V30 50 H -4.206627 -2.240573 -1.404056 0
M  V30 51 H -3.918875 -2.337334 1.068154 0
M  V30 52 H -5.144284 -3.769764 1.121549 0
M  V30 53 H -7.468524 0.504505 0.182146 0
M  V30 54 H -0.866804 1.023569 -2.035453 0
M  V30 55 H 0.820753 -0.512056 -1.225544 0
M  V30 56 H 2.836707 -0.991665 -1.177934 0
M  V30 57 H 4.493856 -2.607834 -0.394715 0
M  V30 END ATOM
M  V30 BEGIN BOND
M  V30 1 2 1 2
M  V30 2 1 2 3
M  V30 3 2 3 4
M  V30 4 1 3 5
M  V30 5 1 5 6
M  V30 6 1 6 7
M  V30 7 2 7 8
M  V30 8 1 8 9
M  V30 9 2 9 10
M  V30 10 1 10 11
M  V30 11 2 11 12
M  V30 12 1 12 13
M  V30 13 2 13 14
M  V30 14 1 14 15
M  V30 15 1 15 16
M  V30 16 1 15 17
M  V30 17 2 17 18
M  V30 18 1 17 19
M  V30 19 1 19 20
M  V30 20 1 20 21
M  V30 21 2 21 22
M  V30 22 1 22 23
M  V30 23 1 23 24
M  V30 24 1 24 25
M  V30 25 1 22 26
M  V30 26 1 26 27
M  V30 27 1 14 28
M  V30 28 2 28 29
M  V30 29 1 10 30
M  V30 30 2 30 31
M  V30 31 1 31 7
M  V30 32 1 29 11
M  V30 33 2 27 20
M  V30 34 1 25 23
M  V30 35 1 1 32
M  V30 36 1 1 33
M  V30 37 1 2 34
M  V30 38 1 5 35
M  V30 39 1 6 36
M  V30 40 1 6 37
M  V30 41 1 8 38
M  V30 42 1 9 39
M  V30 43 1 12 40
M  V30 44 1 13 41
M  V30 45 1 15 42
M  V30 46 1 16 43
M  V30 47 1 16 44
M  V30 48 1 16 45
M  V30 49 1 19 46
M  V30 50 1 21 47
M  V30 51 1 23 48
M  V30 52 1 24 49
M  V30 53 1 24 50
M  V30 54 1 25 51
M  V30 55 1 25 52
M  V30 56 1 26 53
M  V30 57 1 28 54
M  V30 58 1 29 55
M  V30 59 1 30 56
M  V30 60 1 31 57
M  V30 END BOND
M  V30 END CTAB
M  END
>  <Dataset>  (657) 
ChEMBL_Kinases

>  <Ligand_Instance>  (657) 
nan

>  <PDB_ID>  (657) 
nan

>  <Standardized_SMILES>  (657) 
C=CC(=O)NCc1ccc(-c2ccc(C(C)C(=O)Nc3cc(C4CC4)[nH]n3)cc2)cc1

>  <Name>  (657) 
nan

>  <Pocket>  (657) 
nan

>  <ATP_Site>  (657) 
nan

>  <Peripheral>  (657) 
nan

>  <Num_H_Atoms_ProtBoundConf>  (657) 
nan

>  <Num_Resolved_Atoms>  (657) 
nan

>  <Num_Not_Resolved_Atoms>  (657) 
nan

$$$$
CHEMBL4278686
     RDKit          3D

  0  0  0  0  0  0  0  0  0  0999 V3000
M  V30 BEGIN CTAB
M  V30 COUNTS 72 77 0 0 0
M  V30 BEGIN ATOM
M  V30 1 C 4.975801 -5.240311 3.516131 0
M  V30 2 O 3.886117 -4.956126 2.688322 0
M  V30 3 C 3.329233 -3.697312 2.497066 0
M  V30 4 N 3.821058 -2.643978 3.116712 0
M  V30 5 C 3.320222 -1.504225 2.946349 0
M  V30 6 C 3.775782 -0.239265 3.580304 0
M  V30 7 C 4.827363 -0.131564 4.459373 0
M  V30 8 C 5.142068 1.118205 4.975480 0
M  V30 9 N 4.432949 2.210672 4.624831 0
M  V30 10 C 3.407027 2.156115 3.777716 0
M  V30 11 N 2.661728 3.307332 3.409969 0
M  V30 12 C 3.008045 4.576390 3.957316 0
M  V30 13 O 3.977156 4.571617 4.747061 0
M  V30 14 C 2.189596 5.747579 3.533885 0
M  V30 15 C 1.646555 5.753760 2.120950 0
M  V30 16 C 0.747042 5.522446 3.313358 0
M  V30 17 C 3.080199 0.921998 3.254983 0
M  V30 18 S 1.982895 -1.671360 1.822973 0
M  V30 19 C 2.213732 -3.518619 1.626277 0
M  V30 20 C 1.561936 -4.600492 0.870526 0
M  V30 21 O 1.706416 -5.832460 0.731577 0
M  V30 22 N 0.461761 -4.106012 0.078162 0
M  V30 23 C -0.300560 -5.015135 -0.731565 0
M  V30 24 C -1.411212 -4.347461 -1.497036 0
M  V30 25 C -0.948403 -3.277890 -2.451128 0
M  V30 26 N -1.948322 -2.613709 -3.182467 0
M  V30 27 C -3.037848 -1.734005 -3.149641 0
M  V30 28 C -3.451665 -1.124314 -1.988812 0
M  V30 29 C -4.529699 -0.270835 -1.901656 0
M  V30 30 N -5.205312 -0.033336 -3.040005 0
M  V30 31 C -4.868449 -0.585325 -4.211507 0
M  V30 32 C -5.599682 -0.303829 -5.343868 0
M  V30 33 C -5.313078 -0.834969 -6.583502 0
M  V30 34 C -4.224366 -1.689946 -6.641197 0
M  V30 35 C -3.506986 -1.957337 -5.495303 0
M  V30 36 C -3.790385 -1.429011 -4.257162 0
M  V30 37 C -5.069030 0.434779 -0.716709 0
M  V30 38 C -4.020701 0.670301 0.359123 0
M  V30 39 C -2.688986 0.206610 -0.134116 0
M  V30 40 C -2.840983 -1.238970 -0.651962 0
M  V30 41 H 5.397087 -6.214205 3.218616 0
M  V30 42 H 4.782564 -5.142237 4.595229 0
M  V30 43 H 5.778027 -4.488983 3.262157 0
M  V30 44 H 5.336061 -1.059436 4.681011 0
M  V30 45 H 5.979414 1.155859 5.665394 0
M  V30 46 H 1.872735 3.230500 2.750310 0
M  V30 47 H 2.457369 6.744953 3.961683 0
M  V30 48 H 1.835455 4.875971 1.471695 0
M  V30 49 H 1.522857 6.706827 1.601008 0
M  V30 50 H 0.362120 4.493361 3.468329 0
M  V30 51 H 0.001982 6.300903 3.563061 0
M  V30 52 H 2.250781 0.851965 2.564649 0
M  V30 53 H 0.154398 -3.087846 0.040072 0
M  V30 54 H 0.380042 -5.584446 -1.381336 0
M  V30 55 H -0.793432 -5.752020 -0.061856 0
M  V30 56 H -1.877813 -5.175683 -2.115085 0
M  V30 57 H -2.229616 -3.971011 -0.881839 0
M  V30 58 H -0.255689 -2.533926 -1.989067 0
M  V30 59 H -0.239301 -3.813944 -3.165768 0
M  V30 60 H -1.771366 -2.937191 -4.147426 0
M  V30 61 H -6.433238 0.370795 -5.219652 0
M  V30 62 H -5.963801 -0.534737 -7.392138 0
M  V30 63 H -4.014979 -2.096761 -7.621749 0
M  V30 64 H -2.699162 -2.631411 -5.693308 0
M  V30 65 H -5.512534 1.424999 -1.022508 0
M  V30 66 H -5.912163 -0.142520 -0.295971 0
M  V30 67 H -4.266450 0.059398 1.263312 0
M  V30 68 H -3.973403 1.753730 0.592729 0
M  V30 69 H -1.930616 0.235629 0.670525 0
M  V30 70 H -2.385226 0.799766 -1.020554 0
M  V30 71 H -1.832535 -1.638199 -0.605020 0
M  V30 72 H -3.536312 -1.718237 0.083322 0
M  V30 END ATOM
M  V30 BEGIN BOND
M  V30 1 1 1 2
M  V30 2 1 2 3
M  V30 3 1 3 4
M  V30 4 2 4 5
M  V30 5 1 5 6
M  V30 6 2 6 7
M  V30 7 1 7 8
M  V30 8 2 8 9
M  V30 9 1 9 10
M  V30 10 1 10 11
M  V30 11 1 11 12
M  V30 12 2 12 13
M  V30 13 1 12 14
M  V30 14 1 14 15
M  V30 15 1 15 16
M  V30 16 2 10 17
M  V30 17 1 5 18
M  V30 18 1 18 19
M  V30 19 1 19 20
M  V30 20 2 20 21
M  V30 21 1 20 22
M  V30 22 1 22 23
M  V30 23 1 23 24
M  V30 24 1 24 25
M  V30 25 1 25 26
M  V30 26 1 26 27
M  V30 27 2 27 28
M  V30 28 1 28 29
M  V30 29 2 29 30
M  V30 30 1 30 31
M  V30 31 2 31 32
M  V30 32 1 32 33
M  V30 33 2 33 34
M  V30 34 1 34 35
M  V30 35 2 35 36
M  V30 36 1 29 37
M  V30 37 1 37 38
M  V30 38 1 38 39
M  V30 39 1 39 40
M  V30 40 2 19 3
M  V30 41 1 36 27
M  V30 42 1 17 6
M  V30 43 1 40 28
M  V30 44 1 16 14
M  V30 45 1 36 31
M  V30 46 1 1 41
M  V30 47 1 1 42
M  V30 48 1 1 43
M  V30 49 1 7 44
M  V30 50 1 8 45
M  V30 51 1 11 46
M  V30 52 1 14 47
M  V30 53 1 15 48
M  V30 54 1 15 49
M  V30 55 1 16 50
M  V30 56 1 16 51
M  V30 57 1 17 52
M  V30 58 1 22 53
M  V30 59 1 23 54
M  V30 60 1 23 55
M  V30 61 1 24 56
M  V30 62 1 24 57
M  V30 63 1 25 58
M  V30 64 1 25 59
M  V30 65 1 26 60
M  V30 66 1 32 61
M  V30 67 1 33 62
M  V30 68 1 34 63
M  V30 69 1 35 64
M  V30 70 1 37 65
M  V30 71 1 37 66
M  V30 72 1 38 67
M  V30 73 1 38 68
M  V30 74 1 39 69
M  V30 75 1 39 70
M  V30 76 1 40 71
M  V30 77 1 40 72
M  V30 END BOND
M  V30 END CTAB
M  END
>  <Dataset>  (658) 
ChEMBL_Kinases

>  <Ligand_Instance>  (658) 
nan

>  <PDB_ID>  (658) 
nan

>  <Standardized_SMILES>  (658) 
COc1nc(-c2ccnc(NC(=O)C3CC3)c2)sc1C(=O)NCCCNc1c2c(nc3ccccc13)CCCC2

>  <Name>  (658) 
nan

>  <Pocket>  (658) 
nan

>  <ATP_Site>  (658) 
nan

>  <Peripheral>  (658) 
nan

>  <Num_H_Atoms_ProtBoundConf>  (658) 
nan

>  <Num_Resolved_Atoms>  (658) 
nan

>  <Num_Not_Resolved_Atoms>  (658) 
nan

$$$$
CHEMBL4762636
     RDKit          3D

  0  0  0  0  0  0  0  0  0  0999 V3000
M  V30 BEGIN CTAB
M  V30 COUNTS 56 60 0 0 0
M  V30 BEGIN ATOM
M  V30 1 C 4.209497 -2.665888 -1.743115 0
M  V30 2 N 5.398944 -2.672807 -0.966860 0
M  V30 3 C 5.293626 -3.408828 0.263726 0
M  V30 4 C 4.828206 -2.523039 1.399193 0
M  V30 5 N 4.354913 -1.286619 0.793824 0
M  V30 6 C 2.995507 -0.866219 0.776995 0
M  V30 7 C 2.520446 0.298819 0.210228 0
M  V30 8 C 1.155354 0.609413 0.254808 0
M  V30 9 C 0.805115 1.870713 -0.366008 0
M  V30 10 C 1.250610 2.202966 -1.652111 0
M  V30 11 N 0.772844 3.431663 -1.946809 0
M  V30 12 N 0.064525 3.910226 -0.964959 0
M  V30 13 C 0.071355 2.978739 0.004858 0
M  V30 14 C 0.335084 -0.301531 0.885689 0
M  V30 15 C -1.002863 0.038480 0.904360 0
M  V30 16 C -1.920902 -0.800219 1.506824 0
M  V30 17 C -3.324918 -0.488311 1.551435 0
M  V30 18 C -4.511735 -0.231516 1.580146 0
M  V30 19 C -5.955657 0.074204 1.594464 0
M  V30 20 C -6.436574 -0.276589 3.000615 0
M  V30 21 O -6.083734 1.414945 1.326456 0
M  V30 22 C -6.696549 -0.818378 0.670885 0
M  V30 23 N -6.548225 -1.996280 0.131560 0
M  V30 24 C -7.539660 -2.389438 -0.675038 0
M  V30 25 C -8.791811 -1.533402 -0.971922 0
M  V30 26 S -8.309123 -0.054145 0.108058 0
M  V30 27 C -1.432053 -1.969336 2.074462 0
M  V30 28 C -0.091745 -2.321304 2.061505 0
M  V30 29 C 0.807350 -1.466790 1.453149 0
M  V30 30 N 2.132027 -1.706186 1.376102 0
M  V30 31 C 5.462949 -0.549275 0.213399 0
M  V30 32 C 6.089701 -1.431374 -0.836245 0
M  V30 33 H 3.386095 -3.058384 -1.082072 0
M  V30 34 H 3.862333 -1.666429 -2.080692 0
M  V30 35 H 4.302003 -3.385810 -2.578833 0
M  V30 36 H 6.276382 -3.874555 0.479066 0
M  V30 37 H 4.523643 -4.202054 0.074516 0
M  V30 38 H 5.677111 -2.366363 2.081378 0
M  V30 39 H 4.010971 -3.018957 1.975204 0
M  V30 40 H 3.233524 0.932239 -0.251441 0
M  V30 41 H 1.874236 1.598777 -2.323212 0
M  V30 42 H -0.424233 4.828639 -0.909024 0
M  V30 43 H -0.410179 3.036633 0.967287 0
M  V30 44 H -1.386403 0.944622 0.459536 0
M  V30 45 H -7.511187 -0.518266 2.915922 0
M  V30 46 H -5.894552 -1.162440 3.330785 0
M  V30 47 H -6.353063 0.591491 3.684338 0
M  V30 48 H -6.660635 1.527693 0.529365 0
M  V30 49 H -7.208104 -3.389026 -1.008829 0
M  V30 50 H -9.370994 -2.262825 -1.709822 0
M  V30 51 H -2.145355 -2.643971 2.555444 0
M  V30 52 H 0.267220 -3.231599 2.506771 0
M  V30 53 H 6.213701 -0.410167 1.042696 0
M  V30 54 H 5.210201 0.451046 -0.148765 0
M  V30 55 H 6.104738 -0.931784 -1.825020 0
M  V30 56 H 7.143549 -1.667066 -0.581426 0
M  V30 END ATOM
M  V30 BEGIN BOND
M  V30 1 1 1 2
M  V30 2 1 2 3
M  V30 3 1 3 4
M  V30 4 1 4 5
M  V30 5 1 5 6
M  V30 6 2 6 7
M  V30 7 1 7 8
M  V30 8 1 8 9
M  V30 9 1 9 10
M  V30 10 2 10 11
M  V30 11 1 11 12
M  V30 12 1 12 13
M  V30 13 2 8 14
M  V30 14 1 14 15
M  V30 15 2 15 16
M  V30 16 1 16 17
M  V30 17 3 17 18
M  V30 18 1 18 19
M  V30 19 1 19 20
M  V30 20 1 19 21
M  V30 21 1 19 22
M  V30 22 2 22 23
M  V30 23 1 23 24
M  V30 24 2 24 25
M  V30 25 1 25 26
M  V30 26 1 16 27
M  V30 27 2 27 28
M  V30 28 1 28 29
M  V30 29 2 29 30
M  V30 30 1 5 31
M  V30 31 1 31 32
M  V30 32 1 32 2
M  V30 33 1 30 6
M  V30 34 2 13 9
M  V30 35 1 29 14
M  V30 36 1 26 22
M  V30 37 1 1 33
M  V30 38 1 1 34
M  V30 39 1 1 35
M  V30 40 1 3 36
M  V30 41 1 3 37
M  V30 42 1 4 38
M  V30 43 1 4 39
M  V30 44 1 7 40
M  V30 45 1 10 41
M  V30 46 1 12 42
M  V30 47 1 13 43
M  V30 48 1 15 44
M  V30 49 1 20 45
M  V30 50 1 20 46
M  V30 51 1 20 47
M  V30 52 1 21 48
M  V30 53 1 24 49
M  V30 54 1 25 50
M  V30 55 1 27 51
M  V30 56 1 28 52
M  V30 57 1 31 53
M  V30 58 1 31 54
M  V30 59 1 32 55
M  V30 60 1 32 56
M  V30 END BOND
M  V30 END CTAB
M  END
>  <Dataset>  (659) 
ChEMBL_Kinases

>  <Ligand_Instance>  (659) 
nan

>  <PDB_ID>  (659) 
nan

>  <Standardized_SMILES>  (659) 
CN1CCN(c2cc(-c3cn[nH]c3)c3cc(C#CC(C)(O)c4nccs4)ccc3n2)CC1

>  <Name>  (659) 
nan

>  <Pocket>  (659) 
nan

>  <ATP_Site>  (659) 
nan

>  <Peripheral>  (659) 
nan

>  <Num_H_Atoms_ProtBoundConf>  (659) 
nan

>  <Num_Resolved_Atoms>  (659) 
nan

>  <Num_Not_Resolved_Atoms>  (659) 
nan

$$$$
CHEMBL4762658
     RDKit          3D

  0  0  0  0  0  0  0  0  0  0999 V3000
M  V30 BEGIN CTAB
M  V30 COUNTS 145 151 0 0 0
M  V30 BEGIN ATOM
M  V30 1 C 8.098335 -1.065462 -3.792394 0
M  V30 2 C 8.260923 -0.927587 -2.310593 0
M  V30 3 N 9.444147 -1.119919 -1.780202 0
M  V30 4 C 9.633339 -1.010519 -0.523967 0
M  V30 5 S 7.913278 -0.559871 0.136463 0
M  V30 6 C 7.191217 -0.606135 -1.552425 0
M  V30 7 C 5.801500 -0.327459 -1.693819 0
M  V30 8 C 5.052280 -0.001695 -0.554046 0
M  V30 9 C 3.684549 0.268547 -0.646584 0
M  V30 10 C 3.024086 0.225549 -1.853611 0
M  V30 11 C 1.578024 0.488681 -1.926526 0
M  V30 12 N 0.791160 -0.727173 -1.851055 0
M  V30 13 C 0.590835 -1.361267 -0.615495 0
M  V30 14 O 0.926547 -1.150400 0.567569 0
M  V30 15 C -0.168281 -2.586649 -0.547882 0 CFG=2
M  V30 16 C -1.510079 -2.535298 -1.222158 0
M  V30 17 C -1.908988 -4.018153 -0.972579 0 CFG=1
M  V30 18 O -1.728119 -4.685374 -2.155700 0
M  V30 19 C -0.844165 -4.448485 0.086178 0
M  V30 20 N -0.488813 -3.151806 0.716064 0
M  V30 21 C -0.537324 -2.988409 2.156025 0
M  V30 22 O -0.511251 -1.839008 2.624352 0
M  V30 23 C -0.608070 -4.238691 2.997181 0 CFG=1
M  V30 24 N 0.204702 -5.256928 2.432771 0
M  V30 25 C 0.967495 -6.260136 1.882523 0
M  V30 26 O 0.050277 -7.132867 1.660611 0
M  V30 27 C 2.233905 -6.788720 1.443411 0
M  V30 28 O 3.320104 -6.003860 1.620638 0
M  V30 29 C 3.858176 -6.033637 2.906348 0
M  V30 30 C 5.087153 -5.188985 2.983784 0
M  V30 31 O 4.938473 -3.813448 2.781192 0
M  V30 32 C 4.536128 -3.308056 3.993390 0
M  V30 33 C 4.250933 -1.887637 4.187978 0
M  V30 34 O 3.227357 -1.314678 3.463072 0
M  V30 35 C 3.146925 0.040987 3.916015 0
M  V30 36 C 1.924807 0.677634 3.377092 0
M  V30 37 O 1.714005 2.027314 3.746480 0
M  V30 38 C 0.428318 2.262372 3.202234 0
M  V30 39 C -0.113034 3.585921 3.380120 0
M  V30 40 O 0.343302 4.669842 3.824048 0
M  V30 41 N -1.480111 3.618440 2.939018 0
M  V30 42 C -2.198435 2.445890 2.404686 0
M  V30 43 C -3.636518 2.731501 2.211491 0
M  V30 44 N -3.913376 3.888258 1.376698 0
M  V30 45 C -4.080957 3.534398 0.009370 0 CFG=1
M  V30 46 C -4.722701 4.651047 -0.800756 0
M  V30 47 C -5.208301 4.075707 -2.133845 0
M  V30 48 C -4.260022 2.964013 -2.556453 0 CFG=1
M  V30 49 N -4.383469 2.530744 -3.898581 0
M  V30 50 C -5.505829 1.660622 -4.135449 0
M  V30 51 N -6.251881 1.374208 -3.076804 0
M  V30 52 C -7.309956 0.509072 -3.137256 0
M  V30 53 N -7.525680 -0.016879 -4.339007 0
M  V30 54 N -6.816871 0.244295 -5.388999 0
M  V30 55 C -6.988681 -0.239046 -6.629616 0
M  V30 56 C -5.982463 0.362900 -7.391587 0
M  V30 57 C -5.208444 1.210932 -6.593928 0
M  V30 58 C -4.091681 2.057314 -7.007517 0
M  V30 59 C -2.771647 1.432153 -6.633949 0
M  V30 60 C -4.141604 2.195201 -8.535087 0
M  V30 61 C -5.782507 1.089216 -5.341697 0
M  V30 62 C -2.884450 3.356141 -2.116620 0
M  V30 63 C -2.809951 3.059086 -0.612719 0
M  V30 64 C -2.974781 4.958410 1.631777 0
M  V30 65 C -2.317761 4.798287 2.983044 0
M  V30 66 C -0.443112 -4.045445 4.444816 0
M  V30 67 C -1.499523 -3.149530 5.048605 0
M  V30 68 C -0.542591 -5.433240 5.111962 0
M  V30 69 C 0.891560 -3.480666 4.874835 0
M  V30 70 C 3.729408 -0.093844 -3.017742 0
M  V30 71 C 5.070530 -0.348305 -2.854072 0
M  V30 72 H 7.799762 -0.100113 -4.273795 0
M  V30 73 H 7.465927 -1.927626 -4.075829 0
M  V30 74 H 9.080427 -1.292675 -4.309404 0
M  V30 75 H 10.582770 -1.150494 0.022462 0
M  V30 76 H 5.417975 0.074654 0.453247 0
M  V30 77 H 3.088542 0.525186 0.207880 0
M  V30 78 H 1.325429 1.217435 -1.139099 0
M  V30 79 H 1.349450 0.939758 -2.900443 0
M  V30 80 H 0.354825 -1.157694 -2.705207 0
M  V30 81 H 0.397531 -3.398731 -1.154625 0
M  V30 82 H -1.458637 -2.342811 -2.297503 0
M  V30 83 H -2.189522 -1.887932 -0.649924 0
M  V30 84 H -2.919489 -4.089854 -0.564661 0
M  V30 85 H -1.882865 -4.128376 -2.965427 0
M  V30 86 H -1.401899 -5.084322 0.766444 0
M  V30 87 H -0.010294 -4.883420 -0.466473 0
M  V30 88 H -1.692245 -4.645056 2.889432 0
M  V30 89 H 1.091895 -4.642884 2.593660 0
M  V30 90 H 2.185210 -7.022120 0.320629 0
M  V30 91 H 2.404875 -7.784507 1.972154 0
M  V30 92 H 3.087501 -5.656655 3.573561 0
M  V30 93 H 4.128993 -7.095985 3.119761 0
M  V30 94 H 5.804890 -5.589397 2.237447 0
M  V30 95 H 5.593192 -5.353219 3.975543 0
M  V30 96 H 5.320073 -3.683938 4.740918 0
M  V30 97 H 3.640059 -3.895688 4.298172 0
M  V30 98 H 3.938935 -1.755370 5.272236 0
M  V30 99 H 5.197255 -1.306958 4.021426 0
M  V30 100 H 3.161311 0.046607 5.022045 0
M  V30 101 H 4.060248 0.586599 3.581086 0
M  V30 102 H 1.974833 0.608414 2.270382 0
M  V30 103 H 1.000176 0.152020 3.680070 0
M  V30 104 H 0.443017 1.893713 2.153801 0
M  V30 105 H -0.226164 1.547443 3.786555 0
M  V30 106 H -1.665938 1.935419 1.608415 0
M  V30 107 H -2.149628 1.716875 3.280885 0
M  V30 108 H -4.086989 2.937655 3.213807 0
M  V30 109 H -4.144537 1.872465 1.767119 0
M  V30 110 H -4.848654 2.707552 -0.007281 0
M  V30 111 H -5.623573 4.977011 -0.252042 0
M  V30 112 H -4.066981 5.523036 -0.942040 0
M  V30 113 H -6.192913 3.618863 -1.949244 0
M  V30 114 H -5.285398 4.890165 -2.842204 0
M  V30 115 H -4.515005 2.052189 -1.897982 0
M  V30 116 H -3.585909 2.984630 -4.361035 0
M  V30 117 H -7.835304 0.364227 -2.196958 0
M  V30 118 H -7.720234 -0.938432 -7.004144 0
M  V30 119 H -5.836977 0.188642 -8.448795 0
M  V30 120 H -4.167837 3.033956 -6.533535 0
M  V30 121 H -2.919091 0.854925 -5.706490 0
M  V30 122 H -2.346594 0.823409 -7.455959 0
M  V30 123 H -2.064582 2.273095 -6.371518 0
M  V30 124 H -3.308308 2.796697 -8.927686 0
M  V30 125 H -4.118076 1.182267 -8.972656 0
M  V30 126 H -5.081082 2.707095 -8.813384 0
M  V30 127 H -2.060181 2.844365 -2.652350 0
M  V30 128 H -2.770231 4.454377 -2.322362 0
M  V30 129 H -1.878300 3.460624 -0.184705 0
M  V30 130 H -2.733269 1.949052 -0.538610 0
M  V30 131 H -3.564143 5.902798 1.642231 0
M  V30 132 H -2.196763 5.101739 0.889517 0
M  V30 133 H -1.675990 5.679371 3.182511 0
M  V30 134 H -3.140703 4.691810 3.719466 0
M  V30 135 H -2.507442 -3.368131 4.651674 0
M  V30 136 H -1.270946 -2.085286 5.019181 0
M  V30 137 H -1.573835 -3.437911 6.141299 0
M  V30 138 H -0.860111 -5.322814 6.165170 0
M  V30 139 H -1.215838 -6.096304 4.528381 0
M  V30 140 H 0.483974 -5.849128 5.090872 0
M  V30 141 H 1.542119 -4.280302 5.332786 0
M  V30 142 H 1.401834 -3.171121 3.950009 0
M  V30 143 H 0.836532 -2.686027 5.622668 0
M  V30 144 H 3.243165 -0.136048 -3.983008 0
M  V30 145 H 5.581556 -0.590214 -3.746173 0
M  V30 END ATOM
M  V30 BEGIN BOND
M  V30 1 1 1 2
M  V30 2 1 2 3
M  V30 3 2 3 4
M  V30 4 1 4 5
M  V30 5 1 5 6
M  V30 6 1 6 7
M  V30 7 2 7 8
M  V30 8 1 8 9
M  V30 9 2 9 10
M  V30 10 1 10 11
M  V30 11 1 11 12
M  V30 12 1 12 13
M  V30 13 2 13 14
M  V30 14 1 13 15
M  V30 15 1 15 16
M  V30 16 1 16 17
M  V30 17 1 17 18
M  V30 18 1 17 19
M  V30 19 1 19 20
M  V30 20 1 20 21
M  V30 21 2 21 22
M  V30 22 1 21 23
M  V30 23 1 23 24
M  V30 24 1 24 25
M  V30 25 2 25 26
M  V30 26 1 25 27
M  V30 27 1 27 28
M  V30 28 1 28 29
M  V30 29 1 29 30
M  V30 30 1 30 31
M  V30 31 1 31 32
M  V30 32 1 32 33
M  V30 33 1 33 34
M  V30 34 1 34 35
M  V30 35 1 35 36
M  V30 36 1 36 37
M  V30 37 1 37 38
M  V30 38 1 38 39
M  V30 39 2 39 40
M  V30 40 1 39 41
M  V30 41 1 41 42
M  V30 42 1 42 43
M  V30 43 1 43 44
M  V30 44 1 44 45
M  V30 45 1 45 46
M  V30 46 1 46 47
M  V30 47 1 47 48
M  V30 48 1 48 49
M  V30 49 1 49 50
M  V30 50 2 50 51
M  V30 51 1 51 52
M  V30 52 2 52 53
M  V30 53 1 53 54
M  V30 54 1 54 55
M  V30 55 2 55 56
M  V30 56 1 56 57
M  V30 57 1 57 58
M  V30 58 1 58 59
M  V30 59 1 58 60
M  V30 60 2 57 61
M  V30 61 1 48 62
M  V30 62 1 62 63
M  V30 63 1 44 64
M  V30 64 1 64 65
M  V30 65 1 23 66
M  V30 66 1 66 67
M  V30 67 1 66 68
M  V30 68 1 66 69
M  V30 69 1 10 70
M  V30 70 2 70 71
M  V30 71 2 6 2
M  V30 72 1 71 7
M  V30 73 1 20 15
M  V30 74 1 65 41
M  V30 75 1 63 45
M  V30 76 1 61 50
M  V30 77 1 61 54
M  V30 78 1 1 72
M  V30 79 1 1 73
M  V30 80 1 1 74
M  V30 81 1 4 75
M  V30 82 1 8 76
M  V30 83 1 9 77
M  V30 84 1 11 78
M  V30 85 1 11 79
M  V30 86 1 12 80
M  V30 87 1 15 81 CFG=3
M  V30 88 1 16 82
M  V30 89 1 16 83
M  V30 90 1 17 84 CFG=1
M  V30 91 1 18 85
M  V30 92 1 19 86
M  V30 93 1 19 87
M  V30 94 1 23 88 CFG=1
M  V30 95 1 24 89
M  V30 96 1 27 90
M  V30 97 1 27 91
M  V30 98 1 29 92
M  V30 99 1 29 93
M  V30 100 1 30 94
M  V30 101 1 30 95
M  V30 102 1 32 96
M  V30 103 1 32 97
M  V30 104 1 33 98
M  V30 105 1 33 99
M  V30 106 1 35 100
M  V30 107 1 35 101
M  V30 108 1 36 102
M  V30 109 1 36 103
M  V30 110 1 38 104
M  V30 111 1 38 105
M  V30 112 1 42 106
M  V30 113 1 42 107
M  V30 114 1 43 108
M  V30 115 1 43 109
M  V30 116 1 45 110 CFG=1
M  V30 117 1 46 111
M  V30 118 1 46 112
M  V30 119 1 47 113
M  V30 120 1 47 114
M  V30 121 1 48 115 CFG=1
M  V30 122 1 49 116
M  V30 123 1 52 117
M  V30 124 1 55 118
M  V30 125 1 56 119
M  V30 126 1 58 120
M  V30 127 1 59 121
M  V30 128 1 59 122
M  V30 129 1 59 123
M  V30 130 1 60 124
M  V30 131 1 60 125
M  V30 132 1 60 126
M  V30 133 1 62 127
M  V30 134 1 62 128
M  V30 135 1 63 129
M  V30 136 1 63 130
M  V30 137 1 64 131
M  V30 138 1 64 132
M  V30 139 1 65 133
M  V30 140 1 65 134
M  V30 141 1 67 135
M  V30 142 1 67 136
M  V30 143 1 67 137
M  V30 144 1 68 138
M  V30 145 1 68 139
M  V30 146 1 68 140
M  V30 147 1 69 141
M  V30 148 1 69 142
M  V30 149 1 69 143
M  V30 150 1 70 144
M  V30 151 1 71 145
M  V30 END BOND
M  V30 END CTAB
M  END
>  <Dataset>  (660) 
ChEMBL_Kinases

>  <Ligand_Instance>  (660) 
nan

>  <PDB_ID>  (660) 
nan

>  <Standardized_SMILES>  (660) 
Cc1ncsc1-c1ccc(CNC(=O)[C@@H]2C[C@@H](O)CN2C(=O)[C@@H](NC(=O)COCCOCCOCCOCC(=O)N2CCN([C@H]3CC[C@@H](Nc4ncnn5ccc(C(C)C)c45)CC3)CC2)C(C)(C)C)cc1

>  <Name>  (660) 
nan

>  <Pocket>  (660) 
nan

>  <ATP_Site>  (660) 
nan

>  <Peripheral>  (660) 
nan

>  <Num_H_Atoms_ProtBoundConf>  (660) 
nan

>  <Num_Resolved_Atoms>  (660) 
nan

>  <Num_Not_Resolved_Atoms>  (660) 
nan

$$$$
CHEMBL4278287
     RDKit          3D

  0  0  0  0  0  0  0  0  0  0999 V3000
M  V30 BEGIN CTAB
M  V30 COUNTS 76 81 0 0 0
M  V30 BEGIN ATOM
M  V30 1 C 1.092397 3.816665 3.765302 0
M  V30 2 O 2.478149 4.069813 3.914359 0
M  V30 3 C 3.318545 3.928460 2.850800 0
M  V30 4 C 4.638885 4.197787 3.141997 0
M  V30 5 C 5.619624 4.087140 2.181411 0
M  V30 6 C 5.421285 3.703598 0.839364 0
M  V30 7 N 6.348173 3.590949 -0.103503 0
M  V30 8 C 6.093057 3.240651 -1.341324 0
M  V30 9 C 4.779763 2.980203 -1.678712 0
M  V30 10 C 3.767658 3.083824 -0.709077 0
M  V30 11 N 2.430974 2.812113 -1.087987 0
M  V30 12 C 1.143167 3.201903 -1.535289 0
M  V30 13 C 0.050609 2.147063 -1.352905 0
M  V30 14 C -0.121847 1.812883 0.081907 0
M  V30 15 N -1.129141 0.876968 0.466219 0
M  V30 16 C -1.014600 -0.410837 0.050411 0
M  V30 17 O 0.016121 -0.590395 -0.708392 0
M  V30 18 C -0.978724 -1.864211 -0.353987 0
M  V30 19 S -0.871263 -3.455657 -0.844978 0
M  V30 20 C -2.337029 -4.227658 -0.130873 0
M  V30 21 C -2.692848 -5.689241 -0.248510 0
M  V30 22 C -1.874949 -6.619055 -0.843399 0
M  V30 23 C -2.356449 -7.902891 -0.864696 0
M  V30 24 N -3.513175 -8.366050 -0.384179 0
M  V30 25 C -4.369671 -7.457385 0.224724 0
M  V30 26 N -5.599947 -7.467976 0.886958 0
M  V30 27 C -6.408657 -7.474541 2.023934 0
M  V30 28 O -5.696401 -7.464485 3.090285 0
M  V30 29 C -7.906306 -7.484536 1.787083 0
M  V30 30 C -8.534996 -6.153176 2.361586 0
M  V30 31 C -8.730413 -7.464734 2.988018 0
M  V30 32 C -3.859775 -6.165218 0.234045 0
M  V30 33 N -2.929303 -3.283676 0.497641 0
M  V30 34 C -2.226891 -2.091227 0.374691 0
M  V30 35 O -3.102647 -1.339370 1.134674 0
M  V30 36 C -4.224137 -1.285548 1.855932 0
M  V30 37 C 4.048506 3.453726 0.620428 0
M  V30 38 C 3.088085 3.558500 1.555462 0
M  V30 39 C 4.449934 2.578516 -3.062960 0
M  V30 40 C 5.457459 1.620867 -3.574940 0
M  V30 41 C 6.847567 1.767970 -3.082371 0
M  V30 42 C 7.138230 3.079460 -2.374900 0
M  V30 43 H 0.668002 3.409393 4.702158 0
M  V30 44 H 0.923885 3.007279 3.000218 0
M  V30 45 H 0.494714 4.708225 3.504833 0
M  V30 46 H 5.125260 4.497544 4.061071 0
M  V30 47 H 6.705635 4.266017 2.332117 0
M  V30 48 H 2.492300 1.775535 -0.978361 0
M  V30 49 H 0.866624 4.158758 -1.042982 0
M  V30 50 H 1.126700 3.419637 -2.644204 0
M  V30 51 H 0.281375 1.247121 -1.937013 0
M  V30 52 H -0.852022 2.606808 -1.802774 0
M  V30 53 H 0.879096 1.506192 0.530252 0
M  V30 54 H -0.344139 2.748440 0.619753 0
M  V30 55 H -2.010578 0.597107 0.947681 0
M  V30 56 H -0.923823 -6.357848 -1.254825 0
M  V30 57 H -1.768184 -8.726828 -1.314310 0
M  V30 58 H -6.111180 -7.481210 -0.059183 0
M  V30 59 H -8.283916 -7.708746 0.792421 0
M  V30 60 H -7.820971 -5.381338 2.679462 0
M  V30 61 H -9.373773 -5.735403 1.742571 0
M  V30 62 H -9.766348 -7.878314 2.993256 0
M  V30 63 H -8.273700 -7.550082 4.017237 0
M  V30 64 H -4.438375 -5.351022 0.693103 0
M  V30 65 H -4.337507 -2.190281 2.540663 0
M  V30 66 H -4.221037 -0.427783 2.574957 0
M  V30 67 H -5.188866 -1.227929 1.249211 0
M  V30 68 H 2.061598 3.345266 1.331617 0
M  V30 69 H 3.435055 2.134281 -3.140693 0
M  V30 70 H 4.508949 3.495424 -3.708672 0
M  V30 71 H 5.126514 0.562634 -3.344066 0
M  V30 72 H 5.392771 1.646320 -4.706027 0
M  V30 73 H 7.551176 1.718016 -3.948052 0
M  V30 74 H 7.180420 0.948843 -2.405954 0
M  V30 75 H 8.159888 2.944175 -1.926805 0
M  V30 76 H 7.218039 3.942755 -3.055455 0
M  V30 END ATOM
M  V30 BEGIN BOND
M  V30 1 1 1 2
M  V30 2 1 2 3
M  V30 3 2 3 4
M  V30 4 1 4 5
M  V30 5 2 5 6
M  V30 6 1 6 7
M  V30 7 2 7 8
M  V30 8 1 8 9
M  V30 9 2 9 10
M  V30 10 1 10 11
M  V30 11 1 11 12
M  V30 12 1 12 13
M  V30 13 1 13 14
M  V30 14 1 14 15
M  V30 15 1 15 16
M  V30 16 2 16 17
M  V30 17 1 16 18
M  V30 18 1 18 19
M  V30 19 1 19 20
M  V30 20 1 20 21
M  V30 21 2 21 22
M  V30 22 1 22 23
M  V30 23 2 23 24
M  V30 24 1 24 25
M  V30 25 1 25 26
M  V30 26 1 26 27
M  V30 27 2 27 28
M  V30 28 1 27 29
M  V30 29 1 29 30
M  V30 30 1 30 31
M  V30 31 2 25 32
M  V30 32 2 20 33
M  V30 33 1 33 34
M  V30 34 1 34 35
M  V30 35 1 35 36
M  V30 36 1 10 37
M  V30 37 2 37 38
M  V30 38 1 9 39
M  V30 39 1 39 40
M  V30 40 1 40 41
M  V30 41 1 41 42
M  V30 42 1 38 3
M  V30 43 1 37 6
M  V30 44 1 42 8
M  V30 45 2 34 18
M  V30 46 1 32 21
M  V30 47 1 31 29
M  V30 48 1 1 43
M  V30 49 1 1 44
M  V30 50 1 1 45
M  V30 51 1 4 46
M  V30 52 1 5 47
M  V30 53 1 11 48
M  V30 54 1 12 49
M  V30 55 1 12 50
M  V30 56 1 13 51
M  V30 57 1 13 52
M  V30 58 1 14 53
M  V30 59 1 14 54
M  V30 60 1 15 55
M  V30 61 1 22 56
M  V30 62 1 23 57
M  V30 63 1 26 58
M  V30 64 1 29 59
M  V30 65 1 30 60
M  V30 66 1 30 61
M  V30 67 1 31 62
M  V30 68 1 31 63
M  V30 69 1 32 64
M  V30 70 1 36 65
M  V30 71 1 36 66
M  V30 72 1 36 67
M  V30 73 1 38 68
M  V30 74 1 39 69
M  V30 75 1 39 70
M  V30 76 1 40 71
M  V30 77 1 40 72
M  V30 78 1 41 73
M  V30 79 1 41 74
M  V30 80 1 42 75
M  V30 81 1 42 76
M  V30 END BOND
M  V30 END CTAB
M  END
>  <Dataset>  (661) 
ChEMBL_Kinases

>  <Ligand_Instance>  (661) 
nan

>  <PDB_ID>  (661) 
nan

>  <Standardized_SMILES>  (661) 
COc1ccc2nc3c(c(NCCCNC(=O)c4sc(-c5ccnc(NC(=O)C6CC6)c5)nc4OC)c2c1)CCCC3

>  <Name>  (661) 
nan

>  <Pocket>  (661) 
nan

>  <ATP_Site>  (661) 
nan

>  <Peripheral>  (661) 
nan

>  <Num_H_Atoms_ProtBoundConf>  (661) 
nan

>  <Num_Resolved_Atoms>  (661) 
nan

>  <Num_Not_Resolved_Atoms>  (661) 
nan

$$$$
CHEMBL4278211
     RDKit          3D

  0  0  0  0  0  0  0  0  0  0999 V3000
M  V30 BEGIN CTAB
M  V30 COUNTS 49 51 0 0 0
M  V30 BEGIN ATOM
M  V30 1 C -1.131516 3.141146 1.246140 0
M  V30 2 O -0.173469 2.138939 1.018858 0
M  V30 3 C 1.081961 2.459561 0.594874 0
M  V30 4 C 1.392902 3.785131 0.393654 0
M  V30 5 C 2.654277 4.123682 -0.033598 0
M  V30 6 C 3.588556 3.138926 -0.254667 0
M  V30 7 S 5.179408 3.592236 -0.795550 0
M  V30 8 N 6.249415 3.876833 0.524921 0
M  V30 9 O 5.134581 4.793234 -1.715136 0
M  V30 10 O 5.757699 2.454557 -1.588594 0
M  V30 11 C 3.224056 1.839217 -0.038412 0
M  V30 12 C 1.960835 1.417980 0.395811 0
M  V30 13 C 1.745407 -0.006451 0.574305 0
M  V30 14 O 2.714892 -0.767792 0.324787 0
M  V30 15 N 0.586050 -0.679570 0.994965 0
M  V30 16 C 0.322800 -2.043497 1.183999 0
M  V30 17 C 1.192786 -3.091993 0.988260 0
M  V30 18 C 0.928843 -4.427398 1.175322 0
M  V30 19 C -0.335799 -4.757597 1.603045 0
M  V30 20 C -1.235400 -3.737299 1.810382 0
M  V30 21 C -2.590414 -4.031123 2.264036 0
M  V30 22 N -2.746382 -4.430195 3.556347 0
M  V30 23 N -4.022819 -4.653342 3.801572 0
M  V30 24 C -4.691032 -4.396742 2.662130 0
M  V30 25 N -3.796085 -4.009657 1.707168 0
M  V30 26 C -3.968358 -3.621914 0.321563 0
M  V30 27 C -3.697099 -2.175018 0.068271 0
M  V30 28 C -3.119390 -4.475228 -0.624007 0
M  V30 29 N -0.884764 -2.462622 1.600432 0
M  V30 30 H -1.347300 3.617357 0.247455 0
M  V30 31 H -0.751938 3.921918 1.964771 0
M  V30 32 H -2.094988 2.713159 1.603227 0
M  V30 33 H 0.637042 4.533627 0.576226 0
M  V30 34 H 2.848477 5.177629 -0.176728 0
M  V30 35 H 7.021705 4.521424 0.270749 0
M  V30 36 H 6.569566 2.949078 0.882313 0
M  V30 37 H 4.020889 1.127585 -0.236858 0
M  V30 38 H -0.224791 -0.058722 1.204874 0
M  V30 39 H 2.198066 -2.911854 0.654613 0
M  V30 40 H 1.646155 -5.210256 1.007629 0
M  V30 41 H -0.626331 -5.782885 1.774620 0
M  V30 42 H -5.731975 -4.437545 2.382807 0
M  V30 43 H -5.014931 -3.869161 0.045499 0
M  V30 44 H -2.724173 -2.005610 -0.460571 0
M  V30 45 H -3.756180 -1.595465 1.002682 0
M  V30 46 H -4.474647 -1.783145 -0.617469 0
M  V30 47 H -3.591339 -4.333082 -1.640186 0
M  V30 48 H -3.263127 -5.524292 -0.359267 0
M  V30 49 H -2.069220 -4.151212 -0.641665 0
M  V30 END ATOM
M  V30 BEGIN BOND
M  V30 1 1 1 2
M  V30 2 1 2 3
M  V30 3 2 3 4
M  V30 4 1 4 5
M  V30 5 2 5 6
M  V30 6 1 6 7
M  V30 7 1 7 8
M  V30 8 2 7 9
M  V30 9 2 7 10
M  V30 10 1 6 11
M  V30 11 2 11 12
M  V30 12 1 12 13
M  V30 13 2 13 14
M  V30 14 1 13 15
M  V30 15 1 15 16
M  V30 16 2 16 17
M  V30 17 1 17 18
M  V30 18 2 18 19
M  V30 19 1 19 20
M  V30 20 1 20 21
M  V30 21 2 21 22
M  V30 22 1 22 23
M  V30 23 2 23 24
M  V30 24 1 24 25
M  V30 25 1 25 26
M  V30 26 1 26 27
M  V30 27 1 26 28
M  V30 28 2 20 29
M  V30 29 1 12 3
M  V30 30 1 29 16
M  V30 31 1 25 21
M  V30 32 1 1 30
M  V30 33 1 1 31
M  V30 34 1 1 32
M  V30 35 1 4 33
M  V30 36 1 5 34
M  V30 37 1 8 35
M  V30 38 1 8 36
M  V30 39 1 11 37
M  V30 40 1 15 38
M  V30 41 1 17 39
M  V30 42 1 18 40
M  V30 43 1 19 41
M  V30 44 1 24 42
M  V30 45 1 26 43
M  V30 46 1 27 44
M  V30 47 1 27 45
M  V30 48 1 27 46
M  V30 49 1 28 47
M  V30 50 1 28 48
M  V30 51 1 28 49
M  V30 END BOND
M  V30 END CTAB
M  END
>  <Dataset>  (662) 
ChEMBL_Kinases

>  <Ligand_Instance>  (662) 
nan

>  <PDB_ID>  (662) 
nan

>  <Standardized_SMILES>  (662) 
COc1ccc(S(N)(=O)=O)cc1C(=O)Nc1cccc(-c2nncn2C(C)C)n1

>  <Name>  (662) 
nan

>  <Pocket>  (662) 
nan

>  <ATP_Site>  (662) 
nan

>  <Peripheral>  (662) 
nan

>  <Num_H_Atoms_ProtBoundConf>  (662) 
nan

>  <Num_Resolved_Atoms>  (662) 
nan

>  <Num_Not_Resolved_Atoms>  (662) 
nan

$$$$
CHEMBL4278164
     RDKit          3D

  0  0  0  0  0  0  0  0  0  0999 V3000
M  V30 BEGIN CTAB
M  V30 COUNTS 68 73 0 0 0
M  V30 BEGIN ATOM
M  V30 1 C 3.709827 -3.302684 5.673728 0
M  V30 2 O 2.842858 -2.346683 5.105889 0
M  V30 3 C 1.976913 -2.574836 4.069278 0
M  V30 4 O 1.773614 -3.657016 3.418531 0
M  V30 5 C 1.226693 -1.371342 3.725403 0
M  V30 6 S 1.227587 0.392636 4.426067 0
M  V30 7 C -0.001716 0.927317 3.288930 0
M  V30 8 C -0.537129 2.372332 3.268350 0
M  V30 9 C 0.001145 3.215148 4.190333 0
M  V30 10 C -0.527282 4.499281 4.105221 0
M  V30 11 N -1.476544 4.857130 3.195970 0
M  V30 12 C -1.954889 3.945777 2.313776 0
M  V30 13 N -2.959480 4.306180 1.340122 0
M  V30 14 C -4.281527 4.141058 1.774177 0
M  V30 15 O -4.481461 3.710241 2.928081 0
M  V30 16 C -5.370461 4.490076 0.832166 0
M  V30 17 C -5.226839 5.566674 -0.148457 0
M  V30 18 C -5.317351 4.101892 -0.608180 0
M  V30 19 C -1.478034 2.636884 2.331936 0
M  V30 20 N -0.299934 -0.024906 2.584339 0
M  V30 21 C 0.272830 -1.225362 2.736614 0
M  V30 22 O -0.077005 -2.322435 1.917086 0
M  V30 23 C -1.041406 -2.236574 0.894284 0
M  V30 24 C -1.195812 -3.526058 0.207514 0
M  V30 25 N -0.108372 -4.119482 -0.460664 0
M  V30 26 C 0.708846 -3.771521 -1.533716 0
M  V30 27 C 1.911780 -3.116877 -1.601265 0
M  V30 28 C 2.625196 -2.780078 -2.725499 0
M  V30 29 N 2.116150 -3.117299 -3.920251 0
M  V30 30 C 0.935425 -3.766787 -3.958729 0
M  V30 31 C 0.504678 -4.067923 -5.232391 0
M  V30 32 C -0.683363 -4.731037 -5.392113 0
M  V30 33 C -1.430940 -5.087714 -4.288780 0
M  V30 34 C -0.943104 -4.756055 -3.043108 0
M  V30 35 C 0.233090 -4.095649 -2.810424 0
M  V30 36 C 3.901963 -2.054772 -2.498354 0
M  V30 37 C 3.621836 -0.892071 -1.586742 0
M  V30 38 C 2.742507 -1.231148 -0.407217 0
M  V30 39 C 2.571585 -2.743479 -0.324149 0
M  V30 40 H 3.292838 -4.319985 5.409752 0
M  V30 41 H 3.723346 -3.256957 6.771805 0
M  V30 42 H 4.703533 -3.269503 5.199966 0
M  V30 43 H 0.750413 2.970349 4.923289 0
M  V30 44 H -0.194560 5.302785 4.783272 0
M  V30 45 H -2.653489 4.660517 0.389967 0
M  V30 46 H -6.381359 4.324415 1.281896 0
M  V30 47 H -6.083434 6.235706 -0.348475 0
M  V30 48 H -4.209800 6.020047 -0.239921 0
M  V30 49 H -6.249304 3.817247 -1.148040 0
M  V30 50 H -4.419918 3.595258 -0.972740 0
M  V30 51 H -1.825409 1.866295 1.648990 0
M  V30 52 H -2.002509 -1.972163 1.430410 0
M  V30 53 H -0.870315 -1.368661 0.224349 0
M  V30 54 H -1.615455 -4.319872 0.902028 0
M  V30 55 H -2.035185 -3.431019 -0.553940 0
M  V30 56 H 0.325712 -5.046777 -0.230078 0
M  V30 57 H 1.056560 -3.808179 -6.123614 0
M  V30 58 H -1.048988 -4.983244 -6.388390 0
M  V30 59 H -2.376145 -5.613885 -4.407322 0
M  V30 60 H -1.558206 -5.057445 -2.220173 0
M  V30 61 H 4.611472 -2.727217 -1.977045 0
M  V30 62 H 4.322575 -1.661889 -3.447447 0
M  V30 63 H 3.221030 -0.063227 -2.213241 0
M  V30 64 H 4.605974 -0.532359 -1.197491 0
M  V30 65 H 3.134615 -0.801871 0.537127 0
M  V30 66 H 1.759060 -0.744870 -0.587875 0
M  V30 67 H 3.609774 -3.160513 -0.273808 0
M  V30 68 H 2.078076 -3.076688 0.573762 0
M  V30 END ATOM
M  V30 BEGIN BOND
M  V30 1 1 1 2
M  V30 2 1 2 3
M  V30 3 2 3 4
M  V30 4 1 3 5
M  V30 5 1 5 6
M  V30 6 1 6 7
M  V30 7 1 7 8
M  V30 8 2 8 9
M  V30 9 1 9 10
M  V30 10 2 10 11
M  V30 11 1 11 12
M  V30 12 1 12 13
M  V30 13 1 13 14
M  V30 14 2 14 15
M  V30 15 1 14 16
M  V30 16 1 16 17
M  V30 17 1 17 18
M  V30 18 2 12 19
M  V30 19 2 7 20
M  V30 20 1 20 21
M  V30 21 1 21 22
M  V30 22 1 22 23
M  V30 23 1 23 24
M  V30 24 1 24 25
M  V30 25 1 25 26
M  V30 26 2 26 27
M  V30 27 1 27 28
M  V30 28 2 28 29
M  V30 29 1 29 30
M  V30 30 2 30 31
M  V30 31 1 31 32
M  V30 32 2 32 33
M  V30 33 1 33 34
M  V30 34 2 34 35
M  V30 35 1 28 36
M  V30 36 1 36 37
M  V30 37 1 37 38
M  V30 38 1 38 39
M  V30 39 2 21 5
M  V30 40 1 35 26
M  V30 41 1 19 8
M  V30 42 1 39 27
M  V30 43 1 18 16
M  V30 44 1 35 30
M  V30 45 1 1 40
M  V30 46 1 1 41
M  V30 47 1 1 42
M  V30 48 1 9 43
M  V30 49 1 10 44
M  V30 50 1 13 45
M  V30 51 1 16 46
M  V30 52 1 17 47
M  V30 53 1 17 48
M  V30 54 1 18 49
M  V30 55 1 18 50
M  V30 56 1 19 51
M  V30 57 1 23 52
M  V30 58 1 23 53
M  V30 59 1 24 54
M  V30 60 1 24 55
M  V30 61 1 25 56
M  V30 62 1 31 57
M  V30 63 1 32 58
M  V30 64 1 33 59
M  V30 65 1 34 60
M  V30 66 1 36 61
M  V30 67 1 36 62
M  V30 68 1 37 63
M  V30 69 1 37 64
M  V30 70 1 38 65
M  V30 71 1 38 66
M  V30 72 1 39 67
M  V30 73 1 39 68
M  V30 END BOND
M  V30 END CTAB
M  END
>  <Dataset>  (663) 
ChEMBL_Kinases

>  <Ligand_Instance>  (663) 
nan

>  <PDB_ID>  (663) 
nan

>  <Standardized_SMILES>  (663) 
COC(=O)c1sc(-c2ccnc(NC(=O)C3CC3)c2)nc1OCCNc1c2c(nc3ccccc13)CCCC2

>  <Name>  (663) 
nan

>  <Pocket>  (663) 
nan

>  <ATP_Site>  (663) 
nan

>  <Peripheral>  (663) 
nan

>  <Num_H_Atoms_ProtBoundConf>  (663) 
nan

>  <Num_Resolved_Atoms>  (663) 
nan

>  <Num_Not_Resolved_Atoms>  (663) 
nan

$$$$
CHEMBL4762666
     RDKit          3D

  0  0  0  0  0  0  0  0  0  0999 V3000
M  V30 BEGIN CTAB
M  V30 COUNTS 59 66 0 0 0
M  V30 BEGIN ATOM
M  V30 1 C -1.995957 -3.111342 2.818218 0
M  V30 2 O -1.186631 -2.310173 2.021148 0
M  V30 3 C -1.870865 -1.573360 1.112901 0 CFG=2
M  V30 4 C -1.639670 -2.271390 -0.229335 0 CFG=1
M  V30 5 O -1.789203 -3.642784 -0.104187 0
M  V30 6 C -2.672454 -1.722573 -1.153667 0 CFG=1
M  V30 7 O -3.911310 -2.314953 -0.882581 0
M  V30 8 C -2.827608 -0.220922 -1.047944 0 CFG=1
M  V30 9 O -2.617641 0.359268 0.130257 0
M  V30 10 C -1.688914 -0.117996 1.040667 0 CFG=1
M  V30 11 C -2.160087 0.508061 2.364986 0
M  V30 12 N -0.346773 0.335057 0.707286 0
M  V30 13 C 0.727033 0.544242 1.483903 0
M  V30 14 C 0.876133 0.349609 2.832054 0
M  V30 15 C 2.075551 0.620887 3.455021 0
M  V30 16 C 3.159605 1.092616 2.755036 0
M  V30 17 C 2.987383 1.278561 1.411018 0
M  V30 18 C 1.812035 1.016809 0.778768 0
M  V30 19 C 1.422077 1.116471 -0.516555 0
M  V30 20 C 2.037525 1.518412 -1.685902 0
M  V30 21 C 1.366751 1.506816 -2.879141 0
M  V30 22 C 0.074856 1.088460 -2.885657 0
M  V30 23 C -0.834962 0.952626 -3.889689 0
M  V30 24 C -0.932716 1.146243 -5.233508 0
M  V30 25 C -2.041663 0.905420 -6.011330 0
M  V30 26 C -3.190066 0.416870 -5.397096 0
M  V30 27 C -3.137400 0.202618 -4.020356 0
M  V30 28 C -1.980287 0.468958 -3.298160 0
M  V30 29 N -1.818713 0.299482 -1.968221 0
M  V30 30 C -0.552811 0.686208 -1.733336 0
M  V30 31 C 0.110095 0.694521 -0.525817 0
M  V30 32 C 2.255545 1.961973 -3.912197 0
M  V30 33 O 2.171102 2.141243 -5.133005 0
M  V30 34 N 3.504860 2.260226 -3.340014 0
M  V30 35 C 3.427212 2.021730 -1.908979 0 CFG=1
M  V30 36 O 3.615895 3.289012 -1.322831 0
M  V30 37 H -2.547764 -3.825955 2.132681 0
M  V30 38 H -1.434989 -3.658565 3.583696 0
M  V30 39 H -2.803033 -2.487409 3.243505 0
M  V30 40 H -2.967679 -1.764463 1.277914 0
M  V30 41 H -0.626118 -2.040421 -0.585542 0
M  V30 42 H -2.051868 -4.061427 -0.959649 0
M  V30 43 H -2.389122 -2.003030 -2.188623 0
M  V30 44 H -4.526389 -2.290202 -1.677730 0
M  V30 45 H -3.842601 0.043759 -1.458141 0
M  V30 46 H -2.238321 -0.217829 3.182009 0
M  V30 47 H -1.609791 1.441995 2.597757 0
M  V30 48 H -3.228356 0.889671 2.282522 0
M  V30 49 H 0.069137 -0.017298 3.394711 0
M  V30 50 H 2.140257 0.450991 4.517451 0
M  V30 51 H 4.082141 1.293282 3.279274 0
M  V30 52 H 3.829542 1.646625 0.844382 0
M  V30 53 H -0.100256 1.517595 -5.777419 0
M  V30 54 H -2.092772 1.065656 -7.064253 0
M  V30 55 H -4.092407 0.202891 -5.922994 0
M  V30 56 H -4.027177 -0.174441 -3.553148 0
M  V30 57 H 4.412608 2.592469 -3.694888 0
M  V30 58 H 4.155014 1.276068 -1.572343 0
M  V30 59 H 2.747949 3.757237 -1.265165 0
M  V30 END ATOM
M  V30 BEGIN BOND
M  V30 1 1 1 2
M  V30 2 1 2 3
M  V30 3 1 3 4
M  V30 4 1 4 5
M  V30 5 1 4 6
M  V30 6 1 6 7
M  V30 7 1 6 8
M  V30 8 1 8 9
M  V30 9 1 9 10
M  V30 10 1 10 11 CFG=1
M  V30 11 1 10 12
M  V30 12 1 12 13
M  V30 13 2 13 14
M  V30 14 1 14 15
M  V30 15 2 15 16
M  V30 16 1 16 17
M  V30 17 2 17 18
M  V30 18 1 18 19
M  V30 19 2 19 20
M  V30 20 1 20 21
M  V30 21 2 21 22
M  V30 22 1 22 23
M  V30 23 2 23 24
M  V30 24 1 24 25
M  V30 25 2 25 26
M  V30 26 1 26 27
M  V30 27 2 27 28
M  V30 28 1 28 29
M  V30 29 1 29 30
M  V30 30 2 30 31
M  V30 31 1 21 32
M  V30 32 2 32 33
M  V30 33 1 32 34
M  V30 34 1 34 35
M  V30 35 1 35 36
M  V30 36 1 10 3
M  V30 37 1 31 12
M  V30 38 1 29 8
M  V30 39 1 18 13
M  V30 40 1 31 19
M  V30 41 1 35 20
M  V30 42 1 30 22
M  V30 43 1 28 23
M  V30 44 1 1 37
M  V30 45 1 1 38
M  V30 46 1 1 39
M  V30 47 1 3 40 CFG=1
M  V30 48 1 4 41 CFG=3
M  V30 49 1 5 42
M  V30 50 1 6 43 CFG=3
M  V30 51 1 7 44
M  V30 52 1 8 45 CFG=3
M  V30 53 1 11 46
M  V30 54 1 11 47
M  V30 55 1 11 48
M  V30 56 1 14 49
M  V30 57 1 15 50
M  V30 58 1 16 51
M  V30 59 1 17 52
M  V30 60 1 24 53
M  V30 61 1 25 54
M  V30 62 1 26 55
M  V30 63 1 27 56
M  V30 64 1 34 57
M  V30 65 1 35 58 CFG=1
M  V30 66 1 36 59
M  V30 END BOND
M  V30 END CTAB
M  END
>  <Dataset>  (664) 
ChEMBL_Kinases

>  <Ligand_Instance>  (664) 
nan

>  <PDB_ID>  (664) 
nan

>  <Standardized_SMILES>  (664) 
CO[C@@H]1[C@@H](O)[C@@H](O)[C@H]2O[C@]1(C)n1c3ccccc3c3c4c(c5c6ccccc6n2c5c31)C(=O)N[C@H]4O

>  <Name>  (664) 
nan

>  <Pocket>  (664) 
nan

>  <ATP_Site>  (664) 
nan

>  <Peripheral>  (664) 
nan

>  <Num_H_Atoms_ProtBoundConf>  (664) 
nan

>  <Num_Resolved_Atoms>  (664) 
nan

>  <Num_Not_Resolved_Atoms>  (664) 
nan

$$$$
CHEMBL4277929
     RDKit          3D

  0  0  0  0  0  0  0  0  0  0999 V3000
M  V30 BEGIN CTAB
M  V30 COUNTS 50 55 0 0 0
M  V30 BEGIN ATOM
M  V30 1 C 1.630169 -4.626397 1.340687 0
M  V30 2 N 2.919345 -4.039209 1.035278 0
M  V30 3 C 3.317126 -2.929996 1.852685 0
M  V30 4 C 3.429465 -1.984891 0.678539 0
M  V30 5 C 4.801593 -1.496879 0.368381 0
M  V30 6 N 5.142491 -0.390827 1.208349 0
M  V30 7 C 4.216857 0.687953 1.256399 0
M  V30 8 O 4.576251 1.875661 1.514580 0
M  V30 9 C 2.780099 0.451596 1.001748 0
M  V30 10 C 2.459436 -0.854463 0.729003 0
M  V30 11 N 1.120448 -0.909570 0.520401 0
M  V30 12 C 0.621328 0.326063 0.659101 0
M  V30 13 C 1.615213 1.227787 0.962260 0
M  V30 14 C 1.604724 2.685274 1.211495 0
M  V30 15 C 0.236108 3.248525 1.106735 0
M  V30 16 C -0.795504 2.238042 0.778430 0
M  V30 17 C -2.067022 2.814507 0.688603 0
M  V30 18 N -3.164497 2.068105 0.396466 0
M  V30 19 C -3.060375 0.737852 0.182477 0
M  V30 20 C -4.192152 -0.132551 -0.136115 0
M  V30 21 C -5.341947 0.028234 0.610976 0
M  V30 22 C -6.480931 -0.742930 0.397757 0
M  V30 23 C -6.456413 -1.712887 -0.608437 0
M  V30 24 C -5.300581 -1.876414 -1.361397 0
M  V30 25 F -5.161906 -2.776357 -2.353680 0
M  V30 26 C -4.176818 -1.103838 -1.139023 0
M  V30 27 C -1.827632 0.121829 0.259701 0
M  V30 28 F -1.644115 -1.203147 0.058449 0
M  V30 29 C -0.721826 0.883017 0.555620 0
M  V30 30 C 2.954535 -3.161262 -0.119918 0
M  V30 31 H 1.727119 -5.722604 1.571847 0
M  V30 32 H 1.022994 -4.577990 0.425060 0
M  V30 33 H 1.123049 -4.175246 2.203641 0
M  V30 34 H 2.467026 -2.638692 2.507836 0
M  V30 35 H 4.241208 -3.058396 2.450554 0
M  V30 36 H 4.928576 -1.306314 -0.723607 0
M  V30 37 H 5.510779 -2.334978 0.603259 0
M  V30 38 H 5.989414 -0.224092 1.822623 0
M  V30 39 H 0.561183 -1.751027 0.292239 0
M  V30 40 H 2.249604 3.233757 0.489706 0
M  V30 41 H 2.012715 2.895833 2.225457 0
M  V30 42 H -0.051747 3.694280 2.094617 0
M  V30 43 H 0.169066 4.060806 0.348950 0
M  V30 44 H -2.344517 3.851279 0.826163 0
M  V30 45 H -5.479330 0.741021 1.410853 0
M  V30 46 H -7.398660 -0.640059 0.967971 0
M  V30 47 H -7.289201 -2.366925 -0.856736 0
M  V30 48 H -3.246260 -1.173805 -1.682017 0
M  V30 49 H 3.706240 -3.547732 -0.845869 0
M  V30 50 H 1.968796 -3.053380 -0.618832 0
M  V30 END ATOM
M  V30 BEGIN BOND
M  V30 1 1 1 2
M  V30 2 1 2 3
M  V30 3 1 3 4
M  V30 4 1 4 5
M  V30 5 1 5 6
M  V30 6 1 6 7
M  V30 7 2 7 8
M  V30 8 1 7 9
M  V30 9 2 9 10
M  V30 10 1 10 11
M  V30 11 1 11 12
M  V30 12 2 12 13
M  V30 13 1 13 14
M  V30 14 1 14 15
M  V30 15 1 15 16
M  V30 16 2 16 17
M  V30 17 1 17 18
M  V30 18 2 18 19
M  V30 19 1 19 20
M  V30 20 2 20 21
M  V30 21 1 21 22
M  V30 22 2 22 23
M  V30 23 1 23 24
M  V30 24 1 24 25
M  V30 25 2 24 26
M  V30 26 1 19 27
M  V30 27 1 27 28
M  V30 28 2 27 29
M  V30 29 1 4 30
M  V30 30 1 30 2
M  V30 31 1 10 4
M  V30 32 1 29 12
M  V30 33 1 13 9
M  V30 34 1 29 16
M  V30 35 1 26 20
M  V30 36 1 1 31
M  V30 37 1 1 32
M  V30 38 1 1 33
M  V30 39 1 3 34
M  V30 40 1 3 35
M  V30 41 1 5 36
M  V30 42 1 5 37
M  V30 43 1 6 38
M  V30 44 1 11 39
M  V30 45 1 14 40
M  V30 46 1 14 41
M  V30 47 1 15 42
M  V30 48 1 15 43
M  V30 49 1 17 44
M  V30 50 1 21 45
M  V30 51 1 22 46
M  V30 52 1 23 47
M  V30 53 1 26 48
M  V30 54 1 30 49
M  V30 55 1 30 50
M  V30 END BOND
M  V30 END CTAB
M  END
>  <Dataset>  (665) 
ChEMBL_Kinases

>  <Ligand_Instance>  (665) 
nan

>  <PDB_ID>  (665) 
nan

>  <Standardized_SMILES>  (665) 
CN1CC2(CNC(=O)c3c2[nH]c2c3CCc3cnc(-c4cccc(F)c4)c(F)c3-2)C1

>  <Name>  (665) 
nan

>  <Pocket>  (665) 
nan

>  <ATP_Site>  (665) 
nan

>  <Peripheral>  (665) 
nan

>  <Num_H_Atoms_ProtBoundConf>  (665) 
nan

>  <Num_Resolved_Atoms>  (665) 
nan

>  <Num_Not_Resolved_Atoms>  (665) 
nan

$$$$
CHEMBL4762677
     RDKit          3D

  0  0  0  0  0  0  0  0  0  0999 V3000
M  V30 BEGIN CTAB
M  V30 COUNTS 59 63 0 0 0
M  V30 BEGIN ATOM
M  V30 1 C 5.347780 -3.598969 0.869903 0
M  V30 2 C 3.989711 -4.027801 1.419911 0
M  V30 3 C 3.676813 -3.481675 2.770015 0
M  V30 4 N 2.944763 -4.023165 0.449857 0
M  V30 5 C 1.888247 -3.043383 0.378458 0
M  V30 6 C 2.189010 -1.791947 0.890386 0
M  V30 7 C 1.189510 -0.850735 0.812508 0
M  V30 8 N 1.416549 0.462771 1.341296 0
M  V30 9 C 0.499418 1.496107 1.020216 0
M  V30 10 N 1.132853 2.324276 0.161509 0
M  V30 11 C 0.544910 3.420944 -0.363537 0
M  V30 12 C -0.742777 3.632921 0.037302 0
M  V30 13 C -1.455020 2.850922 0.893326 0
M  V30 14 C -2.773173 2.940748 1.457399 0
M  V30 15 C -3.018922 2.495441 2.758346 0
M  V30 16 C -4.255792 2.525699 3.360322 0
M  V30 17 N -5.308395 2.999033 2.697223 0
M  V30 18 C -5.172455 3.440858 1.457323 0
M  V30 19 C -6.306894 3.879110 0.830988 0
M  V30 20 C -6.248714 4.323170 -0.486543 0
M  V30 21 C -5.000108 4.290628 -1.103036 0
M  V30 22 C -3.896185 3.840868 -0.424177 0
M  V30 23 C -3.931596 3.401779 0.876424 0
M  V30 24 N -0.767298 1.770709 1.367451 0
M  V30 25 C -0.040141 -1.159775 0.249489 0
M  V30 26 C -0.321929 -2.410514 -0.254749 0
M  V30 27 C 0.677459 -3.366241 -0.180937 0
M  V30 28 N 0.476618 -4.691643 -0.693294 0
M  V30 29 C -0.822971 -5.049035 -1.281198 0
M  V30 30 C 1.526033 -5.664217 -0.625220 0
M  V30 31 O 1.235686 -6.886864 -0.593448 0
M  V30 32 C 2.916603 -5.071235 -0.598171 0 CFG=1
M  V30 33 C 3.125316 -4.366328 -1.917903 0
M  V30 34 H 5.327271 -2.592813 0.421072 0
M  V30 35 H 6.100534 -3.701325 1.690348 0
M  V30 36 H 5.704313 -4.285330 0.055395 0
M  V30 37 H 4.170854 -5.149638 1.604168 0
M  V30 38 H 2.592958 -3.229693 2.924732 0
M  V30 39 H 3.880123 -4.230803 3.602256 0
M  V30 40 H 4.348750 -2.626691 3.085736 0
M  V30 41 H 3.155020 -1.587964 1.314549 0
M  V30 42 H 2.244996 0.635030 1.942160 0
M  V30 43 H 1.030931 4.117959 -1.065080 0
M  V30 44 H -1.182738 4.518237 -0.332442 0
M  V30 45 H -2.194125 2.094538 3.359502 0
M  V30 46 H -4.368387 2.157416 4.381571 0
M  V30 47 H -7.278360 3.899981 1.317595 0
M  V30 48 H -7.158116 4.666133 -0.952091 0
M  V30 49 H -5.029192 4.648161 -2.125359 0
M  V30 50 H -3.025955 3.831254 -1.016859 0
M  V30 51 H -0.792087 -0.392769 0.207070 0
M  V30 52 H -1.286364 -2.618736 -0.684403 0
M  V30 53 H -1.490474 -5.324941 -0.431939 0
M  V30 54 H -0.715682 -5.939686 -1.906928 0
M  V30 55 H -1.252966 -4.238616 -1.883935 0
M  V30 56 H 3.682143 -5.830558 -0.380622 0
M  V30 57 H 2.694320 -3.331320 -1.818548 0
M  V30 58 H 2.586384 -4.886120 -2.740510 0
M  V30 59 H 4.209808 -4.229097 -2.135326 0
M  V30 END ATOM
M  V30 BEGIN BOND
M  V30 1 1 1 2
M  V30 2 1 2 3
M  V30 3 1 2 4
M  V30 4 1 4 5
M  V30 5 2 5 6
M  V30 6 1 6 7
M  V30 7 1 7 8
M  V30 8 1 8 9
M  V30 9 2 9 10
M  V30 10 1 10 11
M  V30 11 2 11 12
M  V30 12 1 12 13
M  V30 13 1 13 14
M  V30 14 2 14 15
M  V30 15 1 15 16
M  V30 16 2 16 17
M  V30 17 1 17 18
M  V30 18 2 18 19
M  V30 19 1 19 20
M  V30 20 2 20 21
M  V30 21 1 21 22
M  V30 22 2 22 23
M  V30 23 2 13 24
M  V30 24 2 7 25
M  V30 25 1 25 26
M  V30 26 2 26 27
M  V30 27 1 27 28
M  V30 28 1 28 29
M  V30 29 1 28 30
M  V30 30 2 30 31
M  V30 31 1 30 32
M  V30 32 1 32 33
M  V30 33 1 32 4
M  V30 34 1 27 5
M  V30 35 1 24 9
M  V30 36 1 23 14
M  V30 37 1 23 18
M  V30 38 1 1 34
M  V30 39 1 1 35
M  V30 40 1 1 36
M  V30 41 1 2 37
M  V30 42 1 3 38
M  V30 43 1 3 39
M  V30 44 1 3 40
M  V30 45 1 6 41
M  V30 46 1 8 42
M  V30 47 1 11 43
M  V30 48 1 12 44
M  V30 49 1 15 45
M  V30 50 1 16 46
M  V30 51 1 19 47
M  V30 52 1 20 48
M  V30 53 1 21 49
M  V30 54 1 22 50
M  V30 55 1 25 51
M  V30 56 1 26 52
M  V30 57 1 29 53
M  V30 58 1 29 54
M  V30 59 1 29 55
M  V30 60 1 32 56 CFG=1
M  V30 61 1 33 57
M  V30 62 1 33 58
M  V30 63 1 33 59
M  V30 END BOND
M  V30 END CTAB
M  END
>  <Dataset>  (666) 
ChEMBL_Kinases

>  <Ligand_Instance>  (666) 
nan

>  <PDB_ID>  (666) 
nan

>  <Standardized_SMILES>  (666) 
CC(C)N1c2cc(Nc3nccc(-c4ccnc5ccccc45)n3)ccc2N(C)C(=O)[C@H]1C

>  <Name>  (666) 
nan

>  <Pocket>  (666) 
nan

>  <ATP_Site>  (666) 
nan

>  <Peripheral>  (666) 
nan

>  <Num_H_Atoms_ProtBoundConf>  (666) 
nan

>  <Num_Resolved_Atoms>  (666) 
nan

>  <Num_Not_Resolved_Atoms>  (666) 
nan

$$$$
CHEMBL4762683
     RDKit          3D

  0  0  0  0  0  0  0  0  0  0999 V3000
M  V30 BEGIN CTAB
M  V30 COUNTS 42 45 0 0 0
M  V30 BEGIN ATOM
M  V30 1 O 0.028156 -3.513118 1.488561 0
M  V30 2 C 0.943661 -2.654916 1.429692 0
M  V30 3 C 2.155186 -3.116538 0.960773 0
M  V30 4 C 2.336722 -4.420088 0.587460 0
M  V30 5 C 3.581626 -4.772813 0.134563 0
M  V30 6 F 3.756387 -6.068795 -0.234976 0
M  V30 7 C 4.650760 -3.895033 0.035776 0
M  V30 8 C 4.437613 -2.584977 0.420164 0
M  V30 9 C 3.196537 -2.219804 0.874775 0
M  V30 10 N 2.971046 -0.959762 1.249826 0
M  V30 11 C 3.751404 0.100812 1.289075 0
M  V30 12 S 5.287706 0.370502 0.908820 0
M  V30 13 N 3.055687 1.152585 1.756889 0
M  V30 14 N 1.807370 0.727505 2.014111 0
M  V30 15 C 1.764764 -0.583988 1.696043 0
M  V30 16 N 0.675587 -1.368578 1.823424 0
M  V30 17 C -0.647979 -1.078335 2.261949 0
M  V30 18 C -1.704782 -0.775131 1.302710 0
M  V30 19 N -1.776059 0.224353 0.399261 0
M  V30 20 C -3.026760 0.332721 -0.361152 0
M  V30 21 C -3.235650 1.830441 -0.531792 0
M  V30 22 C -2.517386 2.569007 0.576634 0
M  V30 23 C -0.995838 2.441072 0.407219 0
M  V30 24 C -0.790576 1.020634 -0.150819 0
M  V30 25 H 1.526408 -5.124692 0.652905 0
M  V30 26 H 5.594423 -4.272709 -0.335134 0
M  V30 27 H 5.304968 -1.964992 0.318168 0
M  V30 28 H 3.269751 2.168276 1.949836 0
M  V30 29 H -0.618949 -0.327096 3.129060 0
M  V30 30 H -0.968159 -2.015169 2.832771 0
M  V30 31 H -2.674686 -0.726369 1.930211 0
M  V30 32 H -1.911950 -1.769985 0.750880 0
M  V30 33 H -3.859130 -0.181483 0.113519 0
M  V30 34 H -2.785193 -0.067184 -1.369494 0
M  V30 35 H -4.319979 2.060333 -0.483635 0
M  V30 36 H -2.826442 2.204298 -1.497526 0
M  V30 37 H -2.818410 2.143417 1.558961 0
M  V30 38 H -2.745544 3.637543 0.567082 0
M  V30 39 H -0.516205 2.592080 1.372665 0
M  V30 40 H -0.627909 3.194650 -0.309890 0
M  V30 41 H 0.233055 0.715512 -0.238742 0
M  V30 42 H -1.096340 1.183269 -1.248907 0
M  V30 END ATOM
M  V30 BEGIN BOND
M  V30 1 2 1 2
M  V30 2 1 2 3
M  V30 3 2 3 4
M  V30 4 1 4 5
M  V30 5 1 5 6
M  V30 6 2 5 7
M  V30 7 1 7 8
M  V30 8 2 8 9
M  V30 9 1 9 10
M  V30 10 1 10 11
M  V30 11 2 11 12
M  V30 12 1 11 13
M  V30 13 1 13 14
M  V30 14 2 14 15
M  V30 15 1 15 16
M  V30 16 1 16 17
M  V30 17 1 17 18
M  V30 18 1 18 19
M  V30 19 1 19 20
M  V30 20 1 20 21
M  V30 21 1 21 22
M  V30 22 1 22 23
M  V30 23 1 23 24
M  V30 24 1 16 2
M  V30 25 1 24 19
M  V30 26 1 9 3
M  V30 27 1 15 10
M  V30 28 1 4 25
M  V30 29 1 7 26
M  V30 30 1 8 27
M  V30 31 1 13 28
M  V30 32 1 17 29
M  V30 33 1 17 30
M  V30 34 1 18 31
M  V30 35 1 18 32
M  V30 36 1 20 33
M  V30 37 1 20 34
M  V30 38 1 21 35
M  V30 39 1 21 36
M  V30 40 1 22 37
M  V30 41 1 22 38
M  V30 42 1 23 39
M  V30 43 1 23 40
M  V30 44 1 24 41
M  V30 45 1 24 42
M  V30 END BOND
M  V30 END CTAB
M  END
>  <Dataset>  (667) 
ChEMBL_Kinases

>  <Ligand_Instance>  (667) 
nan

>  <PDB_ID>  (667) 
nan

>  <Standardized_SMILES>  (667) 
O=c1c2cc(F)ccc2n2c(=S)[nH]nc2n1CCN1CCCCC1

>  <Name>  (667) 
nan

>  <Pocket>  (667) 
nan

>  <ATP_Site>  (667) 
nan

>  <Peripheral>  (667) 
nan

>  <Num_H_Atoms_ProtBoundConf>  (667) 
nan

>  <Num_Resolved_Atoms>  (667) 
nan

>  <Num_Not_Resolved_Atoms>  (667) 
nan

$$$$
CHEMBL4762686
     RDKit          3D

  0  0  0  0  0  0  0  0  0  0999 V3000
M  V30 BEGIN CTAB
M  V30 COUNTS 42 45 0 0 0
M  V30 BEGIN ATOM
M  V30 1 O 4.663870 -0.658643 4.213664 0
M  V30 2 C 4.011731 -0.383476 3.148656 0
M  V30 3 N 4.477183 -0.472711 1.840610 0
M  V30 4 C 3.663652 -0.154200 0.920472 0
M  V30 5 N 3.902313 -0.157612 -0.487752 0
M  V30 6 C 4.774974 -1.123226 -1.077115 0
M  V30 7 C 4.889543 -0.846201 -2.558278 0
M  V30 8 C 3.662512 -0.874911 -3.388339 0
M  V30 9 C 4.506003 0.408737 -3.197458 0
M  V30 10 S 2.057499 0.303479 1.638829 0
M  V30 11 C 2.645700 0.067915 3.341039 0
M  V30 12 C 1.839495 0.339433 4.340650 0
M  V30 13 C 0.441897 0.796608 4.141118 0
M  V30 14 C -0.240406 1.856161 4.815876 0
M  V30 15 S -1.941199 1.760592 4.002669 0
M  V30 16 C -1.398146 0.353897 2.953430 0
M  V30 17 C -2.390268 -0.222334 2.006843 0
M  V30 18 C -3.631278 0.309790 1.872637 0
M  V30 19 C -4.514155 -0.305758 0.980660 0
M  V30 20 C -4.072765 -1.434095 0.276712 0
M  V30 21 O -4.983590 -2.028489 -0.610145 0
M  V30 22 C -5.841105 -3.058331 -0.109346 0
M  V30 23 F -6.673310 -3.549458 -1.085237 0
M  V30 24 F -6.581767 -2.584790 0.952787 0
M  V30 25 F -5.015597 -4.066440 0.355262 0
M  V30 26 C -2.794714 -1.929588 0.457454 0
M  V30 27 C -1.913886 -1.331183 1.333944 0
M  V30 28 N -0.247415 0.118456 3.229976 0
M  V30 29 H 3.383532 0.590066 -0.988800 0
M  V30 30 H 4.380153 -2.161968 -1.003756 0
M  V30 31 H 5.783526 -1.185196 -0.594418 0
M  V30 32 H 5.781373 -1.364818 -3.040809 0
M  V30 33 H 3.652432 -1.232935 -4.438715 0
M  V30 34 H 2.663401 -0.878542 -2.873658 0
M  V30 35 H 3.960950 1.242422 -2.756548 0
M  V30 36 H 5.092516 0.754633 -4.103623 0
M  V30 37 H 2.330210 0.184502 5.313398 0
M  V30 38 H 0.463938 2.404914 5.614157 0
M  V30 39 H -3.951700 1.169270 2.413292 0
M  V30 40 H -5.490150 0.113949 0.873536 0
M  V30 41 H -2.554073 -2.818675 -0.142974 0
M  V30 42 H -0.927990 -1.743792 1.451013 0
M  V30 END ATOM
M  V30 BEGIN BOND
M  V30 1 2 1 2
M  V30 2 1 2 3
M  V30 3 2 3 4
M  V30 4 1 4 5
M  V30 5 1 5 6
M  V30 6 1 6 7
M  V30 7 1 7 8
M  V30 8 1 8 9
M  V30 9 1 4 10
M  V30 10 1 10 11
M  V30 11 2 11 12
M  V30 12 1 12 13
M  V30 13 2 13 14
M  V30 14 1 14 15
M  V30 15 1 15 16
M  V30 16 1 16 17
M  V30 17 2 17 18
M  V30 18 1 18 19
M  V30 19 2 19 20
M  V30 20 1 20 21
M  V30 21 1 21 22
M  V30 22 1 22 23
M  V30 23 1 22 24
M  V30 24 1 22 25
M  V30 25 1 20 26
M  V30 26 2 26 27
M  V30 27 2 16 28
M  V30 28 1 11 2
M  V30 29 1 28 13
M  V30 30 1 9 7
M  V30 31 1 27 17
M  V30 32 1 5 29
M  V30 33 1 6 30
M  V30 34 1 6 31
M  V30 35 1 7 32
M  V30 36 1 8 33
M  V30 37 1 8 34
M  V30 38 1 9 35
M  V30 39 1 9 36
M  V30 40 1 12 37
M  V30 41 1 14 38
M  V30 42 1 18 39
M  V30 43 1 19 40
M  V30 44 1 26 41
M  V30 45 1 27 42
M  V30 END BOND
M  V30 END CTAB
M  END
>  <Dataset>  (668) 
ChEMBL_Kinases

>  <Ligand_Instance>  (668) 
nan

>  <PDB_ID>  (668) 
nan

>  <Standardized_SMILES>  (668) 
O=C1N=C(NCC2CC2)S/C1=C\c1csc(-c2ccc(OC(F)(F)F)cc2)n1

>  <Name>  (668) 
nan

>  <Pocket>  (668) 
nan

>  <ATP_Site>  (668) 
nan

>  <Peripheral>  (668) 
nan

>  <Num_H_Atoms_ProtBoundConf>  (668) 
nan

>  <Num_Resolved_Atoms>  (668) 
nan

>  <Num_Not_Resolved_Atoms>  (668) 
nan

$$$$
CHEMBL4278763
     RDKit          3D

  0  0  0  0  0  0  0  0  0  0999 V3000
M  V30 BEGIN CTAB
M  V30 COUNTS 57 62 0 0 0
M  V30 BEGIN ATOM
M  V30 1 N 0.856120 -8.258587 0.435170 0
M  V30 2 C -0.401243 -7.587372 0.169632 0
M  V30 3 C -0.250584 -6.110754 0.136896 0
M  V30 4 C 0.857762 -5.721233 -0.607642 0
M  V30 5 C 1.164176 -4.377023 -0.754665 0
M  V30 6 C 0.378626 -3.406297 -0.167686 0
M  V30 7 C 0.585606 -1.963207 -0.242223 0
M  V30 8 C 0.211915 -1.115719 0.801577 0
M  V30 9 N 0.409637 0.213652 0.716200 0
M  V30 10 C 0.979045 0.779232 -0.386567 0
M  V30 11 C 1.296750 2.083496 -0.742581 0
M  V30 12 C 1.003875 3.192883 0.192460 0
M  V30 13 C 1.888673 3.649258 1.152090 0
M  V30 14 C 1.535445 4.691134 1.985201 0
M  V30 15 C 0.284223 5.309904 1.884160 0
M  V30 16 S -0.165451 6.634607 2.943019 0
M  V30 17 N 1.115479 7.005002 4.043329 0
M  V30 18 O -1.391825 6.324918 3.753280 0
M  V30 19 O -0.372406 7.831252 2.071870 0
M  V30 20 C -0.589745 4.844262 0.921559 0
M  V30 21 C -1.815791 5.478840 0.850708 0
M  V30 22 C -2.748924 5.076467 -0.082845 0
M  V30 23 C -2.406702 4.037333 -0.919516 0
M  V30 24 C -1.172498 3.392454 -0.854225 0
M  V30 25 C -0.244734 3.799609 0.081010 0
M  V30 26 C 1.860829 1.994479 -2.005793 0
M  V30 27 N 1.864519 0.694618 -2.355045 0
M  V30 28 N 1.337476 -0.045866 -1.390934 0
M  V30 29 C 1.171534 -1.395231 -1.380642 0
M  V30 30 C -0.717521 -3.808681 0.567861 0
M  V30 31 C -1.034148 -5.139781 0.722539 0
M  V30 32 C -1.555746 -8.136173 0.936722 0
M  V30 33 C -2.330703 -8.329498 -0.370274 0
M  V30 34 C -1.013343 -8.161195 -1.105971 0
M  V30 35 H 1.320190 -7.900012 1.291531 0
M  V30 36 H 1.462016 -8.229709 -0.412812 0
M  V30 37 H 1.588339 -6.328036 -1.139540 0
M  V30 38 H 2.001441 -3.969455 -1.311719 0
M  V30 39 H -0.238733 -1.529036 1.683326 0
M  V30 40 H 2.837273 3.173914 1.222461 0
M  V30 41 H 2.247099 5.032050 2.730973 0
M  V30 42 H 1.531375 6.082037 4.365680 0
M  V30 43 H 0.747986 7.446571 4.922387 0
M  V30 44 H -2.076253 6.301169 1.518754 0
M  V30 45 H -3.717069 5.509221 -0.206712 0
M  V30 46 H -3.035174 3.611811 -1.701807 0
M  V30 47 H -0.868190 2.577774 -1.489598 0
M  V30 48 H 2.184950 2.911994 -2.477392 0
M  V30 49 H 1.483571 -1.990986 -2.222887 0
M  V30 50 H -1.411128 -3.126366 1.077825 0
M  V30 51 H -1.855731 -5.526333 1.269729 0
M  V30 52 H -1.371287 -9.140766 1.412242 0
M  V30 53 H -2.056310 -7.511000 1.673487 0
M  V30 54 H -2.732912 -9.348394 -0.518911 0
M  V30 55 H -3.007436 -7.491937 -0.634672 0
M  V30 56 H -0.563069 -9.126496 -1.440880 0
M  V30 57 H -0.999261 -7.418550 -1.919048 0
M  V30 END ATOM
M  V30 BEGIN BOND
M  V30 1 1 1 2
M  V30 2 1 2 3
M  V30 3 2 3 4
M  V30 4 1 4 5
M  V30 5 2 5 6
M  V30 6 1 6 7
M  V30 7 1 7 8
M  V30 8 2 8 9
M  V30 9 1 9 10
M  V30 10 2 10 11
M  V30 11 1 11 12
M  V30 12 2 12 13
M  V30 13 1 13 14
M  V30 14 2 14 15
M  V30 15 1 15 16
M  V30 16 1 16 17
M  V30 17 2 16 18
M  V30 18 2 16 19
M  V30 19 1 15 20
M  V30 20 2 20 21
M  V30 21 1 21 22
M  V30 22 2 22 23
M  V30 23 1 23 24
M  V30 24 2 24 25
M  V30 25 1 11 26
M  V30 26 2 26 27
M  V30 27 1 27 28
M  V30 28 1 28 29
M  V30 29 1 6 30
M  V30 30 2 30 31
M  V30 31 1 2 32
M  V30 32 1 32 33
M  V30 33 1 33 34
M  V30 34 1 34 2
M  V30 35 1 31 3
M  V30 36 2 29 7
M  V30 37 1 28 10
M  V30 38 1 25 12
M  V30 39 1 25 20
M  V30 40 1 1 35
M  V30 41 1 1 36
M  V30 42 1 4 37
M  V30 43 1 5 38
M  V30 44 1 8 39
M  V30 45 1 13 40
M  V30 46 1 14 41
M  V30 47 1 17 42
M  V30 48 1 17 43
M  V30 49 1 21 44
M  V30 50 1 22 45
M  V30 51 1 23 46
M  V30 52 1 24 47
M  V30 53 1 26 48
M  V30 54 1 29 49
M  V30 55 1 30 50
M  V30 56 1 31 51
M  V30 57 1 32 52
M  V30 58 1 32 53
M  V30 59 1 33 54
M  V30 60 1 33 55
M  V30 61 1 34 56
M  V30 62 1 34 57
M  V30 END BOND
M  V30 END CTAB
M  END
>  <Dataset>  (669) 
ChEMBL_Kinases

>  <Ligand_Instance>  (669) 
nan

>  <PDB_ID>  (669) 
nan

>  <Standardized_SMILES>  (669) 
NC1(c2ccc(-c3cnc4c(-c5ccc(S(N)(=O)=O)c6ccccc56)cnn4c3)cc2)CCC1

>  <Name>  (669) 
nan

>  <Pocket>  (669) 
nan

>  <ATP_Site>  (669) 
nan

>  <Peripheral>  (669) 
nan

>  <Num_H_Atoms_ProtBoundConf>  (669) 
nan

>  <Num_Resolved_Atoms>  (669) 
nan

>  <Num_Not_Resolved_Atoms>  (669) 
nan

$$$$
CHEMBL4760095
     RDKit          3D

  0  0  0  0  0  0  0  0  0  0999 V3000
M  V30 BEGIN CTAB
M  V30 COUNTS 77 81 0 0 0
M  V30 BEGIN ATOM
M  V30 1 C 3.503249 -2.259158 5.314636 0
M  V30 2 N 4.481053 -2.734009 4.373493 0
M  V30 3 C 4.352731 -4.186723 4.164483 0
M  V30 4 C 4.970393 -4.460617 2.813459 0
M  V30 5 N 6.224379 -3.736376 2.755591 0
M  V30 6 C 7.185019 -4.349705 1.900450 0
M  V30 7 C 6.923937 -4.356738 0.447757 0
M  V30 8 C 6.820474 -3.034639 -0.235295 0
M  V30 9 C 5.713553 -2.144353 0.273654 0
M  V30 10 C 5.702474 -0.848723 -0.515457 0
M  V30 11 O 4.774066 0.086032 -0.184897 0
M  V30 12 C 3.420124 0.101035 -0.180908 0
M  V30 13 C 2.423040 -0.769877 -0.488912 0
M  V30 14 C 1.132048 -0.377126 -0.354620 0
M  V30 15 C 0.714479 0.871883 0.082452 0
M  V30 16 N -0.681862 1.116160 0.186278 0
M  V30 17 C -0.973477 1.556848 -1.157109 0
M  V30 18 O -1.474591 2.075259 -2.149546 0
M  V30 19 S -2.510801 2.530775 -0.891283 0
M  V30 20 C -3.009936 1.473299 0.502753 0
M  V30 21 C -4.165259 1.085795 0.939112 0
M  V30 22 C -5.422063 1.494801 0.289002 0
M  V30 23 C -5.631671 2.763602 -0.219494 0
M  V30 24 C -6.814333 3.111277 -0.837930 0
M  V30 25 C -7.833848 2.175641 -0.962204 0
M  V30 26 O -9.094784 2.372122 -1.565090 0
M  V30 27 C -9.241611 2.115762 -2.946283 0
M  V30 28 C -8.128899 1.677824 -3.627811 0
M  V30 29 C -8.270618 1.427770 -4.978521 0
M  V30 30 C -9.492834 1.604745 -5.656357 0
M  V30 31 N -9.625369 1.343780 -7.047596 0
M  V30 32 C -10.570422 2.045206 -4.914347 0
M  V30 33 C -10.453094 2.301513 -3.566806 0
M  V30 34 C -7.649146 0.885757 -0.456858 0
M  V30 35 C -6.452120 0.577981 0.154617 0
M  V30 36 C -1.757247 1.060907 1.105931 0
M  V30 37 O -1.466212 0.672976 2.274777 0
M  V30 38 C 1.740684 1.775242 0.401535 0
M  V30 39 C 3.073912 1.387744 0.269057 0
M  V30 40 C 6.764157 -3.427759 4.067465 0
M  V30 41 C 5.846749 -2.468774 4.776257 0
M  V30 42 H 3.721426 -2.528563 6.368215 0
M  V30 43 H 3.365617 -1.161447 5.204830 0
M  V30 44 H 2.503867 -2.706760 5.036978 0
M  V30 45 H 3.274103 -4.408332 4.172818 0
M  V30 46 H 4.912320 -4.699029 4.959623 0
M  V30 47 H 4.213403 -4.069689 2.078358 0
M  V30 48 H 5.189986 -5.532066 2.643607 0
M  V30 49 H 7.410235 -5.371734 2.289932 0
M  V30 50 H 8.154314 -3.790769 2.054077 0
M  V30 51 H 6.009554 -4.925587 0.155194 0
M  V30 52 H 7.772644 -4.926716 -0.045563 0
M  V30 53 H 7.823741 -2.525206 -0.127151 0
M  V30 54 H 6.681773 -3.233912 -1.339700 0
M  V30 55 H 5.829921 -1.936204 1.357192 0
M  V30 56 H 4.745624 -2.656309 0.134554 0
M  V30 57 H 6.724435 -0.407544 -0.345496 0
M  V30 58 H 5.703210 -1.156057 -1.591439 0
M  V30 59 H 2.822706 -1.711882 -0.823923 0
M  V30 60 H 0.380045 -1.112629 -0.612479 0
M  V30 61 H -4.253695 0.441076 1.807480 0
M  V30 62 H -4.856114 3.494470 -0.129434 0
M  V30 63 H -7.036540 4.069171 -1.249097 0
M  V30 64 H -7.147956 1.509344 -3.207129 0
M  V30 65 H -7.474737 1.080634 -5.640127 0
M  V30 66 H -8.963359 0.842829 -7.640078 0
M  V30 67 H -8.859322 0.814651 -7.521710 0
M  V30 68 H -11.546094 2.212611 -5.327426 0
M  V30 69 H -11.286989 2.651701 -2.945362 0
M  V30 70 H -8.420368 0.103488 -0.524388 0
M  V30 71 H -6.303581 -0.416678 0.545806 0
M  V30 72 H 1.342016 2.724308 0.733606 0
M  V30 73 H 3.679320 2.252319 0.575147 0
M  V30 74 H 7.717947 -2.884282 3.877746 0
M  V30 75 H 6.883004 -4.373985 4.600102 0
M  V30 76 H 6.120396 -1.421079 4.550395 0
M  V30 77 H 5.982563 -2.690290 5.875083 0
M  V30 END ATOM
M  V30 BEGIN BOND
M  V30 1 1 1 2
M  V30 2 1 2 3
M  V30 3 1 3 4
M  V30 4 1 4 5
M  V30 5 1 5 6
M  V30 6 1 6 7
M  V30 7 1 7 8
M  V30 8 1 8 9
M  V30 9 1 9 10
M  V30 10 1 10 11
M  V30 11 1 11 12
M  V30 12 2 12 13
M  V30 13 1 13 14
M  V30 14 2 14 15
M  V30 15 1 15 16
M  V30 16 1 16 17
M  V30 17 2 17 18
M  V30 18 1 17 19
M  V30 19 1 19 20
M  V30 20 2 20 21
M  V30 21 1 21 22
M  V30 22 2 22 23
M  V30 23 1 23 24
M  V30 24 2 24 25
M  V30 25 1 25 26
M  V30 26 1 26 27
M  V30 27 2 27 28
M  V30 28 1 28 29
M  V30 29 2 29 30
M  V30 30 1 30 31
M  V30 31 1 30 32
M  V30 32 2 32 33
M  V30 33 1 25 34
M  V30 34 2 34 35
M  V30 35 1 20 36
M  V30 36 2 36 37
M  V30 37 1 15 38
M  V30 38 2 38 39
M  V30 39 1 5 40
M  V30 40 1 40 41
M  V30 41 1 41 2
M  V30 42 1 39 12
M  V30 43 1 36 16
M  V30 44 1 35 22
M  V30 45 1 33 27
M  V30 46 1 1 42
M  V30 47 1 1 43
M  V30 48 1 1 44
M  V30 49 1 3 45
M  V30 50 1 3 46
M  V30 51 1 4 47
M  V30 52 1 4 48
M  V30 53 1 6 49
M  V30 54 1 6 50
M  V30 55 1 7 51
M  V30 56 1 7 52
M  V30 57 1 8 53
M  V30 58 1 8 54
M  V30 59 1 9 55
M  V30 60 1 9 56
M  V30 61 1 10 57
M  V30 62 1 10 58
M  V30 63 1 13 59
M  V30 64 1 14 60
M  V30 65 1 21 61
M  V30 66 1 23 62
M  V30 67 1 24 63
M  V30 68 1 28 64
M  V30 69 1 29 65
M  V30 70 1 31 66
M  V30 71 1 31 67
M  V30 72 1 32 68
M  V30 73 1 33 69
M  V30 74 1 34 70
M  V30 75 1 35 71
M  V30 76 1 38 72
M  V30 77 1 39 73
M  V30 78 1 40 74
M  V30 79 1 40 75
M  V30 80 1 41 76
M  V30 81 1 41 77
M  V30 END BOND
M  V30 END CTAB
M  END
>  <Dataset>  (670) 
ChEMBL_Kinases

>  <Ligand_Instance>  (670) 
nan

>  <PDB_ID>  (670) 
nan

>  <Standardized_SMILES>  (670) 
CN1CCN(CCCCCOc2ccc(N3C(=O)S/C(=C\c4ccc(Oc5ccc(N)cc5)cc4)C3=O)cc2)CC1

>  <Name>  (670) 
nan

>  <Pocket>  (670) 
nan

>  <ATP_Site>  (670) 
nan

>  <Peripheral>  (670) 
nan

>  <Num_H_Atoms_ProtBoundConf>  (670) 
nan

>  <Num_Resolved_Atoms>  (670) 
nan

>  <Num_Not_Resolved_Atoms>  (670) 
nan

$$$$
CHEMBL4760106
     RDKit          3D

  0  0  0  0  0  0  0  0  0  0999 V3000
M  V30 BEGIN CTAB
M  V30 COUNTS 63 66 0 0 0
M  V30 BEGIN ATOM
M  V30 1 C -3.523302 -0.737218 7.427849 0
M  V30 2 O -3.327066 -1.719133 6.594807 0
M  V30 3 C -2.983360 -2.561691 5.682216 0
M  V30 4 C -1.992067 -2.215584 4.778886 0
M  V30 5 C -1.590383 -3.093287 3.777275 0
M  V30 6 C -0.530939 -2.680105 2.859708 0
M  V30 7 C -0.460771 -1.317790 2.578146 0
M  V30 8 N 0.501293 -0.894437 1.733945 0
M  V30 9 C 1.386651 -1.724427 1.158255 0
M  V30 10 C 2.395471 -1.386668 0.284173 0
M  V30 11 N 2.763949 -0.060006 -0.200401 0
M  V30 12 C 3.928612 0.478536 0.506750 0
M  V30 13 C 4.678058 1.404421 -0.467305 0
M  V30 14 C 3.595020 2.315679 -1.020905 0
M  V30 15 C 2.747594 1.545590 -2.048459 0
M  V30 16 C 2.004009 2.500860 -2.896752 0
M  V30 17 N 1.162700 2.000625 -3.938799 0
M  V30 18 C 0.022372 1.215964 -3.986053 0
M  V30 19 O -0.553327 0.752388 -2.989563 0
M  V30 20 C -0.746063 0.762583 -5.136685 0
M  V30 21 C -1.978036 -0.021470 -4.749171 0
M  V30 22 C -1.651417 -1.261373 -3.953883 0
M  V30 23 C -2.987133 0.865960 -4.028989 0
M  V30 24 C 1.942408 0.536639 -1.279888 0
M  V30 25 S 3.234027 -2.732478 -0.177773 0
M  V30 26 N 2.220660 -3.937424 0.843212 0
M  V30 27 C 1.359023 -3.073889 1.401945 0
M  V30 28 C 0.377696 -3.536036 2.268707 0
M  V30 29 C -2.227652 -4.332013 3.723877 0
M  V30 30 C -3.219832 -4.712541 4.606858 0
M  V30 31 C -3.588518 -3.798583 5.593917 0
M  V30 32 N -4.594125 -4.162595 6.522678 0
M  V30 33 H -3.368391 0.305936 7.032056 0
M  V30 34 H -2.776042 -0.777437 8.289052 0
M  V30 35 H -4.513268 -0.745397 7.990996 0
M  V30 36 H -1.511108 -1.231249 4.849498 0
M  V30 37 H -1.121467 -0.535745 2.978658 0
M  V30 38 H 4.570790 -0.317220 0.871963 0
M  V30 39 H 3.544823 1.176002 1.280324 0
M  V30 40 H 5.196122 0.843813 -1.246729 0
M  V30 41 H 5.343324 2.025230 0.156704 0
M  V30 42 H 3.962575 3.237883 -1.465308 0
M  V30 43 H 2.915441 2.566731 -0.172976 0
M  V30 44 H 3.449198 0.955974 -2.684896 0
M  V30 45 H 2.704803 3.237571 -3.345733 0
M  V30 46 H 1.327539 3.141362 -2.259949 0
M  V30 47 H 1.401005 2.246154 -4.936332 0
M  V30 48 H -1.105974 1.668761 -5.694429 0
M  V30 49 H -0.131053 0.145978 -5.795174 0
M  V30 50 H -2.444613 -0.334647 -5.706315 0
M  V30 51 H -0.577273 -1.538218 -4.069316 0
M  V30 52 H -2.207251 -2.166476 -4.301355 0
M  V30 53 H -1.931935 -1.116167 -2.869706 0
M  V30 54 H -4.037506 0.580650 -4.257817 0
M  V30 55 H -2.887590 0.751500 -2.917214 0
M  V30 56 H -2.844176 1.903599 -4.360197 0
M  V30 57 H 1.019412 0.949960 -0.853236 0
M  V30 58 H 1.694126 -0.289429 -1.969643 0
M  V30 59 H 0.210175 -4.552031 2.571987 0
M  V30 60 H -1.884526 -4.972842 2.940563 0
M  V30 61 H -3.690194 -5.691688 4.526218 0
M  V30 62 H -5.137167 -3.393128 6.957945 0
M  V30 63 H -5.190814 -3.428492 7.012074 0
M  V30 END ATOM
M  V30 BEGIN BOND
M  V30 1 1 1 2
M  V30 2 1 2 3
M  V30 3 2 3 4
M  V30 4 1 4 5
M  V30 5 1 5 6
M  V30 6 1 6 7
M  V30 7 2 7 8
M  V30 8 1 8 9
M  V30 9 2 9 10
M  V30 10 1 10 11
M  V30 11 1 11 12
M  V30 12 1 12 13
M  V30 13 1 13 14
M  V30 14 1 14 15
M  V30 15 1 15 16
M  V30 16 1 16 17
M  V30 17 1 17 18
M  V30 18 2 18 19
M  V30 19 1 18 20
M  V30 20 1 20 21
M  V30 21 1 21 22
M  V30 22 1 21 23
M  V30 23 1 15 24
M  V30 24 1 10 25
M  V30 25 1 25 26
M  V30 26 2 26 27
M  V30 27 1 27 28
M  V30 28 2 5 29
M  V30 29 1 29 30
M  V30 30 2 30 31
M  V30 31 1 31 32
M  V30 32 1 31 3
M  V30 33 2 28 6
M  V30 34 1 27 9
M  V30 35 1 24 11
M  V30 36 1 1 33
M  V30 37 1 1 34
M  V30 38 1 1 35
M  V30 39 1 4 36
M  V30 40 1 7 37
M  V30 41 1 12 38
M  V30 42 1 12 39
M  V30 43 1 13 40
M  V30 44 1 13 41
M  V30 45 1 14 42
M  V30 46 1 14 43
M  V30 47 1 15 44
M  V30 48 1 16 45
M  V30 49 1 16 46
M  V30 50 1 17 47
M  V30 51 1 20 48
M  V30 52 1 20 49
M  V30 53 1 21 50
M  V30 54 1 22 51
M  V30 55 1 22 52
M  V30 56 1 22 53
M  V30 57 1 23 54
M  V30 58 1 23 55
M  V30 59 1 23 56
M  V30 60 1 24 57
M  V30 61 1 24 58
M  V30 62 1 28 59
M  V30 63 1 29 60
M  V30 64 1 30 61
M  V30 65 1 32 62
M  V30 66 1 32 63
M  V30 END BOND
M  V30 END CTAB
M  END
>  <Dataset>  (671) 
ChEMBL_Kinases

>  <Ligand_Instance>  (671) 
nan

>  <PDB_ID>  (671) 
nan

>  <Standardized_SMILES>  (671) 
COc1cc(-c2cnc3c(N4CCCC(CNC(=O)CC(C)C)C4)snc3c2)ccc1N

>  <Name>  (671) 
nan

>  <Pocket>  (671) 
nan

>  <ATP_Site>  (671) 
nan

>  <Peripheral>  (671) 
nan

>  <Num_H_Atoms_ProtBoundConf>  (671) 
nan

>  <Num_Resolved_Atoms>  (671) 
nan

>  <Num_Not_Resolved_Atoms>  (671) 
nan

$$$$
CHEMBL4760111
     RDKit          3D

  0  0  0  0  0  0  0  0  0  0999 V3000
M  V30 BEGIN CTAB
M  V30 COUNTS 88 93 0 0 0
M  V30 BEGIN ATOM
M  V30 1 C 3.043984 -7.972198 3.750578 0
M  V30 2 N 2.414610 -6.867199 3.051897 0
M  V30 3 C 2.438024 -5.607644 3.684174 0
M  V30 4 O 2.982466 -5.440659 4.809898 0
M  V30 5 C 1.859752 -4.433854 3.121909 0
M  V30 6 S 1.878892 -2.847271 3.903072 0
M  V30 7 C 0.936792 -2.016058 2.495206 0
M  V30 8 C 0.583336 -0.594299 2.471031 0
M  V30 9 C -0.068314 -0.109146 1.365604 0
M  V30 10 C -0.389577 1.227088 1.349065 0
M  V30 11 N -0.042527 1.985351 2.430103 0
M  V30 12 C 0.591550 1.465680 3.484272 0
M  V30 13 N 0.787500 2.545992 4.420931 0
M  V30 14 C -0.419376 2.514378 5.212671 0
M  V30 15 O -1.257357 1.604008 4.890404 0
M  V30 16 C -0.821399 3.398649 6.353722 0
M  V30 17 C -1.607592 2.811685 7.443963 0
M  V30 18 C -2.282919 3.692723 6.415841 0
M  V30 19 C 0.941462 0.154634 3.569588 0
M  V30 20 N 0.772880 -2.909967 1.763187 0
M  V30 21 C 1.161772 -4.162186 1.915938 0
M  V30 22 O 0.933757 -5.193694 0.981420 0
M  V30 23 C 0.223464 -4.980127 -0.226110 0
M  V30 24 C 0.814905 -3.899292 -1.070722 0
M  V30 25 C 2.228691 -4.132181 -1.484079 0
M  V30 26 C 2.797799 -3.000454 -2.271967 0
M  V30 27 C 2.059229 -2.730368 -3.589370 0
M  V30 28 C 2.679222 -1.532231 -4.221407 0
M  V30 29 C 2.143206 -1.088616 -5.526452 0
M  V30 30 C 0.691747 -0.765972 -5.592577 0
M  V30 31 O 0.163263 0.146813 -4.739600 0
M  V30 32 C 0.400543 1.458604 -4.461180 0
M  V30 33 C 1.319042 2.376008 -4.922474 0
M  V30 34 C 1.386802 3.659196 -4.485927 0
M  V30 35 C 0.486447 4.059014 -3.534192 0
M  V30 36 C -0.483598 3.218242 -3.002330 0
M  V30 37 C -0.507689 1.904037 -3.487793 0
M  V30 38 C -1.645105 1.330623 -2.760999 0
M  V30 39 O -2.051465 0.149435 -2.877113 0
M  V30 40 N -2.271738 2.244099 -1.886961 0
M  V30 41 C -3.438545 2.132527 -1.068025 0
M  V30 42 C -3.631797 0.898113 -0.296606 0
M  V30 43 C -4.786619 0.044536 -0.848141 0
M  V30 44 C -6.023058 0.844044 -0.670745 0
M  V30 45 O -7.107748 0.858658 0.007463 0
M  V30 46 N -5.977877 1.982736 -1.567783 0
M  V30 47 C -4.635889 2.253294 -2.042990 0
M  V30 48 O -4.440866 2.590202 -3.259663 0
M  V30 49 C -1.537138 3.465956 -2.025220 0
M  V30 50 O -1.738955 4.540997 -1.437640 0
M  V30 51 H 2.723385 -8.915579 3.232156 0
M  V30 52 H 4.131503 -7.880012 3.838708 0
M  V30 53 H 2.658238 -8.098051 4.798441 0
M  V30 54 H 1.951812 -6.953486 2.120469 0
M  V30 55 H -0.292358 -0.791033 0.577639 0
M  V30 56 H -0.898022 1.590995 0.470561 0
M  V30 57 H 1.431272 3.291307 4.723383 0
M  V30 58 H -0.091126 4.168222 6.601765 0
M  V30 59 H -1.553185 3.155505 8.479224 0
M  V30 60 H -1.755243 1.696728 7.376365 0
M  V30 61 H -2.694242 4.643972 6.754742 0
M  V30 62 H -2.965330 3.123996 5.731075 0
M  V30 63 H 1.440240 -0.125690 4.457977 0
M  V30 64 H -0.836048 -4.805560 0.027008 0
M  V30 65 H 0.214604 -5.923852 -0.837885 0
M  V30 66 H 0.647130 -2.909323 -0.609463 0
M  V30 67 H 0.195239 -3.872850 -2.016678 0
M  V30 68 H 2.842723 -4.247330 -0.569793 0
M  V30 69 H 2.338132 -5.074221 -2.052795 0
M  V30 70 H 3.841631 -3.219050 -2.571133 0
M  V30 71 H 2.780811 -2.069260 -1.663990 0
M  V30 72 H 1.001654 -2.557149 -3.320632 0
M  V30 73 H 2.063374 -3.644996 -4.225921 0
M  V30 74 H 2.689220 -0.735780 -3.441928 0
M  V30 75 H 3.778622 -1.737578 -4.385672 0
M  V30 76 H 2.376649 -1.944783 -6.250738 0
M  V30 77 H 2.721569 -0.249291 -5.971800 0
M  V30 78 H 0.530154 -0.359855 -6.649650 0
M  V30 79 H 0.146428 -1.739995 -5.635096 0
M  V30 80 H 1.964099 1.954343 -5.660193 0
M  V30 81 H 2.131455 4.303365 -4.896187 0
M  V30 82 H 0.575575 5.094487 -3.208963 0
M  V30 83 H -3.612108 3.036093 -0.435286 0
M  V30 84 H -2.738135 0.258574 -0.135254 0
M  V30 85 H -3.961424 1.159053 0.750008 0
M  V30 86 H -4.666218 -0.168003 -1.927485 0
M  V30 87 H -4.797856 -0.892053 -0.243801 0
M  V30 88 H -6.743683 2.622378 -1.918400 0
M  V30 END ATOM
M  V30 BEGIN BOND
M  V30 1 1 1 2
M  V30 2 1 2 3
M  V30 3 2 3 4
M  V30 4 1 3 5
M  V30 5 1 5 6
M  V30 6 1 6 7
M  V30 7 1 7 8
M  V30 8 2 8 9
M  V30 9 1 9 10
M  V30 10 2 10 11
M  V30 11 1 11 12
M  V30 12 1 12 13
M  V30 13 1 13 14
M  V30 14 2 14 15
M  V30 15 1 14 16
M  V30 16 1 16 17
M  V30 17 1 17 18
M  V30 18 2 12 19
M  V30 19 2 7 20
M  V30 20 1 20 21
M  V30 21 1 21 22
M  V30 22 1 22 23
M  V30 23 1 23 24
M  V30 24 1 24 25
M  V30 25 1 25 26
M  V30 26 1 26 27
M  V30 27 1 27 28
M  V30 28 1 28 29
M  V30 29 1 29 30
M  V30 30 1 30 31
M  V30 31 1 31 32
M  V30 32 2 32 33
M  V30 33 1 33 34
M  V30 34 2 34 35
M  V30 35 1 35 36
M  V30 36 2 36 37
M  V30 37 1 37 38
M  V30 38 2 38 39
M  V30 39 1 38 40
M  V30 40 1 40 41
M  V30 41 1 41 42
M  V30 42 1 42 43
M  V30 43 1 43 44
M  V30 44 2 44 45
M  V30 45 1 44 46
M  V30 46 1 46 47
M  V30 47 2 47 48
M  V30 48 1 40 49
M  V30 49 2 49 50
M  V30 50 2 21 5
M  V30 51 1 37 32
M  V30 52 1 47 41
M  V30 53 1 19 8
M  V30 54 1 49 36
M  V30 55 1 18 16
M  V30 56 1 1 51
M  V30 57 1 1 52
M  V30 58 1 1 53
M  V30 59 1 2 54
M  V30 60 1 9 55
M  V30 61 1 10 56
M  V30 62 1 13 57
M  V30 63 1 16 58
M  V30 64 1 17 59
M  V30 65 1 17 60
M  V30 66 1 18 61
M  V30 67 1 18 62
M  V30 68 1 19 63
M  V30 69 1 23 64
M  V30 70 1 23 65
M  V30 71 1 24 66
M  V30 72 1 24 67
M  V30 73 1 25 68
M  V30 74 1 25 69
M  V30 75 1 26 70
M  V30 76 1 26 71
M  V30 77 1 27 72
M  V30 78 1 27 73
M  V30 79 1 28 74
M  V30 80 1 28 75
M  V30 81 1 29 76
M  V30 82 1 29 77
M  V30 83 1 30 78
M  V30 84 1 30 79
M  V30 85 1 33 80
M  V30 86 1 34 81
M  V30 87 1 35 82
M  V30 88 1 41 83
M  V30 89 1 42 84
M  V30 90 1 42 85
M  V30 91 1 43 86
M  V30 92 1 43 87
M  V30 93 1 46 88
M  V30 END BOND
M  V30 END CTAB
M  END
>  <Dataset>  (672) 
ChEMBL_Kinases

>  <Ligand_Instance>  (672) 
nan

>  <PDB_ID>  (672) 
nan

>  <Standardized_SMILES>  (672) 
CNC(=O)c1sc(-c2ccnc(NC(=O)C3CC3)c2)nc1OCCCCCCCCOc1cccc2c1C(=O)N(C1CCC(=O)NC1=O)C2=O

>  <Name>  (672) 
nan

>  <Pocket>  (672) 
nan

>  <ATP_Site>  (672) 
nan

>  <Peripheral>  (672) 
nan

>  <Num_H_Atoms_ProtBoundConf>  (672) 
nan

>  <Num_Resolved_Atoms>  (672) 
nan

>  <Num_Not_Resolved_Atoms>  (672) 
nan

$$$$
CHEMBL4760126
     RDKit          3D

  0  0  0  0  0  0  0  0  0  0999 V3000
M  V30 BEGIN CTAB
M  V30 COUNTS 35 37 0 0 0
M  V30 BEGIN ATOM
M  V30 1 C 3.118832 -6.313787 2.484435 0
M  V30 2 C 2.169025 -5.314874 3.053723 0
M  V30 3 O 1.700269 -5.684291 4.151295 0
M  V30 4 C 1.864445 -4.072076 2.359873 0
M  V30 5 C 2.393106 -3.600558 1.143240 0
M  V30 6 C 1.961482 -2.400758 0.649522 0
M  V30 7 C 1.035922 -1.604473 1.254822 0
M  V30 8 C 0.647350 -0.293568 0.648654 0
M  V30 9 C 1.175004 0.321969 -0.427042 0
M  V30 10 C 0.653321 1.527744 -0.753107 0
M  V30 11 N 1.052910 2.309778 -1.793868 0
M  V30 12 C 0.468974 3.498871 -2.023770 0
M  V30 13 N -0.534414 4.041698 -1.293077 0
M  V30 14 C -0.947597 3.276287 -0.249132 0
M  V30 15 S -2.293404 3.787009 0.848841 0
M  V30 16 C -3.856423 3.175668 0.122526 0
M  V30 17 C -4.097063 3.907435 -1.147442 0
M  V30 18 O -3.283808 3.482831 -2.042867 0
M  V30 19 O -4.633801 4.780445 -2.062198 0
M  V30 20 C -0.328790 2.015384 -0.003451 0
M  V30 21 S -0.562426 0.793269 1.200317 0
M  V30 22 C 0.478710 -2.007237 2.445234 0
M  V30 23 C 0.919395 -3.226689 2.946319 0
M  V30 24 H 3.550838 -6.018283 1.518570 0
M  V30 25 H 3.968554 -6.544687 3.144003 0
M  V30 26 H 2.574654 -7.287297 2.285036 0
M  V30 27 H 3.109504 -4.241835 0.698546 0
M  V30 28 H 2.404978 -2.078795 -0.304490 0
M  V30 29 H 1.994658 -0.201233 -0.959807 0
M  V30 30 H 0.840246 4.083185 -2.881920 0
M  V30 31 H -4.649280 3.386125 0.873839 0
M  V30 32 H -3.803451 2.092692 -0.059862 0
M  V30 33 H -5.399860 4.495573 -2.671069 0
M  V30 34 H -0.258135 -1.430057 2.976651 0
M  V30 35 H 0.460435 -3.526920 3.896948 0
M  V30 END ATOM
M  V30 BEGIN BOND
M  V30 1 1 1 2
M  V30 2 2 2 3
M  V30 3 1 2 4
M  V30 4 2 4 5
M  V30 5 1 5 6
M  V30 6 2 6 7
M  V30 7 1 7 8
M  V30 8 2 8 9
M  V30 9 1 9 10
M  V30 10 2 10 11
M  V30 11 1 11 12
M  V30 12 2 12 13
M  V30 13 1 13 14
M  V30 14 1 14 15
M  V30 15 1 15 16
M  V30 16 1 16 17
M  V30 17 2 17 18
M  V30 18 1 17 19
M  V30 19 2 14 20
M  V30 20 1 20 21
M  V30 21 1 7 22
M  V30 22 2 22 23
M  V30 23 1 23 4
M  V30 24 1 21 8
M  V30 25 1 20 10
M  V30 26 1 1 24
M  V30 27 1 1 25
M  V30 28 1 1 26
M  V30 29 1 5 27
M  V30 30 1 6 28
M  V30 31 1 9 29
M  V30 32 1 12 30
M  V30 33 1 16 31
M  V30 34 1 16 32
M  V30 35 1 19 33
M  V30 36 1 22 34
M  V30 37 1 23 35
M  V30 END BOND
M  V30 END CTAB
M  END
>  <Dataset>  (673) 
ChEMBL_Kinases

>  <Ligand_Instance>  (673) 
nan

>  <PDB_ID>  (673) 
nan

>  <Standardized_SMILES>  (673) 
CC(=O)c1ccc(-c2cc3ncnc(SCC(=O)O)c3s2)cc1

>  <Name>  (673) 
nan

>  <Pocket>  (673) 
nan

>  <ATP_Site>  (673) 
nan

>  <Peripheral>  (673) 
nan

>  <Num_H_Atoms_ProtBoundConf>  (673) 
nan

>  <Num_Resolved_Atoms>  (673) 
nan

>  <Num_Not_Resolved_Atoms>  (673) 
nan

$$$$
CHEMBL4760165
     RDKit          3D

  0  0  0  0  0  0  0  0  0  0999 V3000
M  V30 BEGIN CTAB
M  V30 COUNTS 40 43 0 0 0
M  V30 BEGIN ATOM
M  V30 1 N 1.189099 -4.146134 2.700747 0
M  V30 2 C 1.344498 -2.875462 2.101085 0
M  V30 3 N 2.548692 -2.496712 1.649650 0
M  V30 4 C 2.737863 -1.276990 1.064647 0
M  V30 5 N 4.011948 -0.873457 0.587125 0
M  V30 6 C 4.350316 0.362984 -0.044500 0
M  V30 7 C 3.644935 0.646248 -1.305485 0
M  V30 8 C 2.484764 1.318753 -1.529614 0
M  V30 9 C 1.946606 1.495667 -2.783810 0
M  V30 10 C 2.627781 0.960184 -3.851849 0
M  V30 11 C 3.813001 0.261404 -3.724622 0
M  V30 12 C 4.300453 0.120232 -2.425265 0
M  V30 13 N 1.636692 -0.509081 0.983729 0
M  V30 14 C 0.419543 -0.866373 1.428683 0
M  V30 15 N -0.790740 -0.278860 1.453343 0
M  V30 16 C -1.691269 -1.103540 2.030815 0
M  V30 17 C -3.085086 -0.688108 2.174926 0
M  V30 18 C -4.139606 -0.891290 1.305940 0
M  V30 19 C -5.390294 -0.403455 1.652626 0
M  V30 20 C -5.577461 0.266039 2.831763 0
M  V30 21 C -4.539285 0.477675 3.709210 0
M  V30 22 O -4.788980 1.164613 4.892567 0
M  V30 23 C -3.292866 -0.005839 3.368732 0
M  V30 24 N -0.997923 -2.230041 2.366711 0
M  V30 25 N 0.269260 -2.074692 1.999487 0
M  V30 26 H 1.420250 -4.660781 3.597974 0
M  V30 27 H 0.712305 -4.922604 2.217627 0
M  V30 28 H 4.794827 -1.556909 0.709723 0
M  V30 29 H 4.044936 1.193573 0.663921 0
M  V30 30 H 5.428839 0.501020 -0.175040 0
M  V30 31 H 2.016167 1.708518 -0.647949 0
M  V30 32 H 1.023807 2.041933 -2.864294 0
M  V30 33 H 2.217005 1.090619 -4.848438 0
M  V30 34 H 4.320204 -0.143898 -4.576637 0
M  V30 35 H 5.239160 -0.439707 -2.379848 0
M  V30 36 H -3.847628 -1.433737 0.415108 0
M  V30 37 H -6.163451 -0.603295 0.919311 0
M  V30 38 H -6.586169 0.634304 3.063747 0
M  V30 39 H -4.921146 2.180354 4.848439 0
M  V30 40 H -2.527566 0.208399 4.125541 0
M  V30 END ATOM
M  V30 BEGIN BOND
M  V30 1 1 1 2
M  V30 2 2 2 3
M  V30 3 1 3 4
M  V30 4 1 4 5
M  V30 5 1 5 6
M  V30 6 1 6 7
M  V30 7 2 7 8
M  V30 8 1 8 9
M  V30 9 2 9 10
M  V30 10 1 10 11
M  V30 11 2 11 12
M  V30 12 2 4 13
M  V30 13 1 13 14
M  V30 14 2 14 15
M  V30 15 1 15 16
M  V30 16 1 16 17
M  V30 17 2 17 18
M  V30 18 1 18 19
M  V30 19 2 19 20
M  V30 20 1 20 21
M  V30 21 1 21 22
M  V30 22 2 21 23
M  V30 23 2 16 24
M  V30 24 1 24 25
M  V30 25 1 25 2
M  V30 26 1 12 7
M  V30 27 1 25 14
M  V30 28 1 23 17
M  V30 29 1 1 26
M  V30 30 1 1 27
M  V30 31 1 5 28
M  V30 32 1 6 29
M  V30 33 1 6 30
M  V30 34 1 8 31
M  V30 35 1 9 32
M  V30 36 1 10 33
M  V30 37 1 11 34
M  V30 38 1 12 35
M  V30 39 1 18 36
M  V30 40 1 19 37
M  V30 41 1 20 38
M  V30 42 1 22 39
M  V30 43 1 23 40
M  V30 END BOND
M  V30 END CTAB
M  END
>  <Dataset>  (674) 
ChEMBL_Kinases

>  <Ligand_Instance>  (674) 
nan

>  <PDB_ID>  (674) 
nan

>  <Standardized_SMILES>  (674) 
Nc1nc(NCc2ccccc2)nc2nc(-c3cccc(O)c3)nn12

>  <Name>  (674) 
nan

>  <Pocket>  (674) 
nan

>  <ATP_Site>  (674) 
nan

>  <Peripheral>  (674) 
nan

>  <Num_H_Atoms_ProtBoundConf>  (674) 
nan

>  <Num_Resolved_Atoms>  (674) 
nan

>  <Num_Not_Resolved_Atoms>  (674) 
nan

$$$$
CHEMBL4760204
     RDKit          3D

  0  0  0  0  0  0  0  0  0  0999 V3000
M  V30 BEGIN CTAB
M  V30 COUNTS 158 161 0 0 0
M  V30 BEGIN ATOM
M  V30 1 C 0.595784 -0.016789 -4.151714 0
M  V30 2 C 1.748517 -0.883901 -4.491045 0
M  V30 3 C 3.108243 -0.309216 -4.429167 0 CFG=2
M  V30 4 C 4.077277 -1.408562 -4.845924 0
M  V30 5 C 3.520973 0.340962 -3.105480 0 CFG=2
M  V30 6 N 3.433496 -0.603043 -2.052295 0
M  V30 7 C 4.651989 -1.299842 -1.728604 0
M  V30 8 O 5.705296 -1.021151 -2.416370 0
M  V30 9 C 5.005181 -2.321550 -0.739851 0 CFG=2
M  V30 10 C 5.077026 -3.650191 -1.514582 0
M  V30 11 N 4.079155 -2.458516 0.350758 0
M  V30 12 C 4.730446 -2.623185 1.638400 0
M  V30 13 O 6.006867 -2.671186 1.692834 0
M  V30 14 C 4.210584 -2.757907 3.044845 0 CFG=1
M  V30 15 N 2.799903 -2.529361 3.113998 0
M  V30 16 C 2.504232 -1.120550 3.189209 0
M  V30 17 O 3.543942 -0.352623 3.161400 0
M  V30 18 C 1.395093 -0.170708 3.292495 0 CFG=1
M  V30 19 C 1.242699 0.703217 2.088176 0
M  V30 20 C -0.053310 0.290513 1.458913 0
M  V30 21 C -0.476717 -0.916454 2.230041 0
M  V30 22 N 0.106033 -0.744195 3.535568 0
M  V30 23 C -0.246342 -0.922563 4.936576 0
M  V30 24 O 0.620068 -0.737517 5.879503 0
M  V30 25 C -1.491593 -1.309993 5.716931 0 CFG=2
M  V30 26 C -1.170089 -2.530081 6.501475 0
M  V30 27 O -0.088035 -2.228574 7.346411 0
M  V30 28 N -2.567197 -1.423540 4.791286 0
M  V30 29 C -3.170266 -0.156070 4.484425 0
M  V30 30 O -2.679327 0.849520 5.050251 0
M  V30 31 C -4.319359 0.128564 3.568597 0 CFG=2
M  V30 32 C -5.042376 1.386843 3.914358 0
M  V30 33 C -4.196307 2.574692 3.776030 0
M  V30 34 C -4.847806 3.724204 4.227088 0
M  V30 35 N -4.004520 4.792266 4.113604 0
M  V30 36 C -2.835381 4.363380 3.602342 0
M  V30 37 N -2.995428 3.046561 3.417802 0
M  V30 38 N -5.142055 -0.930592 3.198116 0
M  V30 39 C -5.366001 -2.004073 2.375795 0
M  V30 40 O -4.422639 -2.222467 1.537872 0
M  V30 41 C -5.927981 -3.136422 1.726876 0 CFG=2
M  V30 42 C -6.619333 -4.203601 2.478774 0
M  V30 43 C -7.839052 -3.843394 3.234514 0
M  V30 44 C -8.924379 -3.252494 2.337182 0
M  V30 45 C -7.716941 -3.054716 4.475428 0
M  V30 46 N -4.894210 -3.744651 0.864322 0
M  V30 47 C -4.791295 -3.821713 -0.547777 0
M  V30 48 O -5.735505 -3.277920 -1.200654 0
M  V30 49 C -3.520283 -4.565877 -0.863610 0 CFG=2
M  V30 50 C -2.323294 -3.739771 -0.465427 0
M  V30 51 C -1.362422 -3.775673 -1.612852 0
M  V30 52 C -2.334824 -3.819344 -2.800345 0
M  V30 53 N -3.350577 -4.721718 -2.312134 0
M  V30 54 C -4.137698 -5.673058 -3.071329 0
M  V30 55 C -5.120952 -6.549652 -2.423123 0
M  V30 56 O -3.365443 -5.031620 -3.820414 0
M  V30 57 C 4.558811 -4.076470 3.645029 0 CFG=1
M  V30 58 C 4.190242 -4.170946 5.084120 0
M  V30 59 O 3.886343 -5.098228 2.954113 0
M  V30 60 C 2.751298 1.585979 -2.896488 0
M  V30 61 O 1.749931 1.855142 -2.121829 0
M  V30 62 N 2.961746 2.818853 -3.535274 0
M  V30 63 C 2.819405 4.151381 -3.930660 0 CFG=1
M  V30 64 C 3.030766 5.219065 -2.857421 0
M  V30 65 C 2.051406 5.145063 -1.762142 0
M  V30 66 C 0.896067 5.864969 -2.146174 0
M  V30 67 C -0.255954 6.035131 -1.388093 0
M  V30 68 C -0.286636 5.451916 -0.146271 0
M  V30 69 O -1.321526 5.490245 0.760068 0
M  V30 70 C 0.833516 4.725191 0.287575 0
M  V30 71 C 1.939343 4.597126 -0.509062 0
M  V30 72 C 3.350069 4.572275 -5.226584 0
M  V30 73 O 3.032490 5.806215 -5.393766 0
M  V30 74 N 4.076551 3.995100 -6.259295 0
M  V30 75 C 4.540802 4.543279 -7.491697 0 CFG=1
M  V30 76 C 6.049852 4.738951 -7.497685 0
M  V30 77 C 4.143767 3.758567 -8.675257 0
M  V30 78 N 3.377947 2.541835 -8.789063 0
M  V30 79 O 4.558763 4.255471 -9.775308 0
M  V30 80 H 0.204716 -0.109450 -3.122068 0
M  V30 81 H 0.793074 1.003115 -4.480649 0
M  V30 82 H -0.280849 -0.368342 -4.784247 0
M  V30 83 H 1.606357 -1.183084 -5.579650 0
M  V30 84 H 1.681553 -1.895805 -3.983436 0
M  V30 85 H 3.181186 0.443092 -5.250844 0
M  V30 86 H 4.082476 -2.259737 -4.167236 0
M  V30 87 H 5.059338 -0.927417 -4.998787 0
M  V30 88 H 3.729656 -1.706246 -5.877466 0
M  V30 89 H 4.579588 0.639058 -3.306481 0
M  V30 90 H 2.689271 -0.939021 -1.421891 0
M  V30 91 H 6.011598 -2.161132 -0.357965 0
M  V30 92 H 4.061610 -4.100410 -1.436042 0
M  V30 93 H 5.350860 -3.450197 -2.563076 0
M  V30 94 H 5.837682 -4.318251 -1.077090 0
M  V30 95 H 3.055597 -2.477405 0.523458 0
M  V30 96 H 4.803214 -1.966718 3.596355 0
M  V30 97 H 1.873640 -2.960274 3.131174 0
M  V30 98 H 1.667780 0.562124 4.133065 0
M  V30 99 H 2.039999 0.539108 1.331979 0
M  V30 100 H 1.238156 1.806039 2.323607 0
M  V30 101 H 0.068321 0.086220 0.360856 0
M  V30 102 H -0.806657 1.101343 1.632964 0
M  V30 103 H -1.590979 -1.027260 2.245844 0
M  V30 104 H -0.100017 -1.869404 1.741898 0
M  V30 105 H -1.638148 -0.402039 6.378880 0
M  V30 106 H -0.798713 -3.299279 5.783625 0
M  V30 107 H -2.000164 -2.888652 7.128229 0
M  V30 108 H -0.272091 -2.431500 8.296692 0
M  V30 109 H -3.006667 -2.222985 4.296733 0
M  V30 110 H -3.782324 0.416270 2.546382 0
M  V30 111 H -5.880987 1.482859 3.161240 0
M  V30 112 H -5.494736 1.314971 4.943405 0
M  V30 113 H -5.794467 4.072153 4.642392 0
M  V30 114 H -1.890860 4.823267 3.337070 0
M  V30 115 H -2.307204 2.372064 3.010786 0
M  V30 116 H -5.999015 -0.969130 3.776331 0
M  V30 117 H -6.709126 -2.803646 0.926054 0
M  V30 118 H -6.911863 -5.023635 1.765471 0
M  V30 119 H -5.935268 -4.719197 3.201112 0
M  V30 120 H -8.318610 -4.843842 3.554439 0
M  V30 121 H -9.167344 -3.928208 1.506047 0
M  V30 122 H -9.825975 -3.126723 2.960373 0
M  V30 123 H -8.636883 -2.241110 1.974462 0
M  V30 124 H -8.346741 -3.445844 5.311864 0
M  V30 125 H -8.050624 -2.000271 4.288038 0
M  V30 126 H -6.683211 -3.055230 4.867397 0
M  V30 127 H -4.246890 -4.118393 1.621148 0
M  V30 128 H -3.512454 -5.526377 -0.354558 0
M  V30 129 H -1.882867 -4.043918 0.496288 0
M  V30 130 H -2.631238 -2.665730 -0.363102 0
M  V30 131 H -0.748413 -2.837056 -1.680350 0
M  V30 132 H -0.721497 -4.658662 -1.560191 0
M  V30 133 H -1.724568 -4.216564 -3.641787 0
M  V30 134 H -2.681876 -2.791958 -2.974805 0
M  V30 135 H -5.789400 -7.010815 -3.192809 0
M  V30 136 H -4.606992 -7.370820 -1.873659 0
M  V30 137 H -5.715539 -5.966765 -1.683578 0
M  V30 138 H 5.646294 -4.314091 3.524391 0
M  V30 139 H 3.082720 -4.355923 5.196331 0
M  V30 140 H 4.699900 -5.051169 5.582281 0
M  V30 141 H 4.404803 -3.255447 5.669642 0
M  V30 142 H 3.034831 -4.749736 2.616397 0
M  V30 143 H 3.854941 2.626151 -4.111663 0
M  V30 144 H 1.655289 4.275608 -4.039417 0
M  V30 145 H 3.017068 6.204369 -3.332835 0
M  V30 146 H 4.035903 5.130337 -2.376899 0
M  V30 147 H 0.738885 6.399107 -3.101180 0
M  V30 148 H -1.135762 6.573930 -1.668616 0
M  V30 149 H -2.128744 4.875673 0.623043 0
M  V30 150 H 0.925903 4.220963 1.247938 0
M  V30 151 H 2.881200 4.074720 -0.312417 0
M  V30 152 H 4.284659 2.979377 -6.029137 0
M  V30 153 H 4.109220 5.567409 -7.599316 0
M  V30 154 H 6.373559 4.673161 -8.568143 0
M  V30 155 H 6.597927 3.927799 -6.982857 0
M  V30 156 H 6.278614 5.737481 -7.137303 0
M  V30 157 H 3.944563 1.680615 -8.689624 0
M  V30 158 H 2.342801 2.484968 -8.952985 0
M  V30 END ATOM
M  V30 BEGIN BOND
M  V30 1 1 1 2
M  V30 2 1 2 3
M  V30 3 1 3 4
M  V30 4 1 3 5
M  V30 5 1 5 6
M  V30 6 1 6 7
M  V30 7 2 7 8
M  V30 8 1 7 9
M  V30 9 1 9 10
M  V30 10 1 9 11
M  V30 11 1 11 12
M  V30 12 2 12 13
M  V30 13 1 12 14
M  V30 14 1 14 15
M  V30 15 1 15 16
M  V30 16 2 16 17
M  V30 17 1 16 18
M  V30 18 1 18 19
M  V30 19 1 19 20
M  V30 20 1 20 21
M  V30 21 1 21 22
M  V30 22 1 22 23
M  V30 23 2 23 24
M  V30 24 1 23 25
M  V30 25 1 25 26
M  V30 26 1 26 27
M  V30 27 1 25 28
M  V30 28 1 28 29
M  V30 29 2 29 30
M  V30 30 1 29 31
M  V30 31 1 31 32
M  V30 32 1 32 33
M  V30 33 2 33 34
M  V30 34 1 34 35
M  V30 35 2 35 36
M  V30 36 1 36 37
M  V30 37 1 31 38
M  V30 38 1 38 39
M  V30 39 2 39 40
M  V30 40 1 39 41
M  V30 41 1 41 42
M  V30 42 1 42 43
M  V30 43 1 43 44
M  V30 44 1 43 45
M  V30 45 1 41 46
M  V30 46 1 46 47
M  V30 47 2 47 48
M  V30 48 1 47 49
M  V30 49 1 49 50
M  V30 50 1 50 51
M  V30 51 1 51 52
M  V30 52 1 52 53
M  V30 53 1 53 54
M  V30 54 1 54 55
M  V30 55 2 54 56
M  V30 56 1 14 57
M  V30 57 1 57 58
M  V30 58 1 57 59
M  V30 59 1 5 60
M  V30 60 2 60 61
M  V30 61 1 60 62
M  V30 62 1 62 63
M  V30 63 1 63 64
M  V30 64 1 64 65
M  V30 65 2 65 66
M  V30 66 1 66 67
M  V30 67 2 67 68
M  V30 68 1 68 69
M  V30 69 1 68 70
M  V30 70 2 70 71
M  V30 71 1 63 72
M  V30 72 2 72 73
M  V30 73 1 72 74
M  V30 74 1 74 75
M  V30 75 1 75 76
M  V30 76 1 75 77
M  V30 77 1 77 78
M  V30 78 2 77 79
M  V30 79 1 22 18
M  V30 80 1 37 33
M  V30 81 1 53 49
M  V30 82 1 71 65
M  V30 83 1 1 80
M  V30 84 1 1 81
M  V30 85 1 1 82
M  V30 86 1 2 83
M  V30 87 1 2 84
M  V30 88 1 3 85 CFG=3
M  V30 89 1 4 86
M  V30 90 1 4 87
M  V30 91 1 4 88
M  V30 92 1 5 89 CFG=3
M  V30 93 1 6 90
M  V30 94 1 9 91 CFG=1
M  V30 95 1 10 92
M  V30 96 1 10 93
M  V30 97 1 10 94
M  V30 98 1 11 95
M  V30 99 1 14 96 CFG=1
M  V30 100 1 15 97
M  V30 101 1 18 98 CFG=1
M  V30 102 1 19 99
M  V30 103 1 19 100
M  V30 104 1 20 101
M  V30 105 1 20 102
M  V30 106 1 21 103
M  V30 107 1 21 104
M  V30 108 1 25 105 CFG=1
M  V30 109 1 26 106
M  V30 110 1 26 107
M  V30 111 1 27 108
M  V30 112 1 28 109
M  V30 113 1 31 110 CFG=3
M  V30 114 1 32 111
M  V30 115 1 32 112
M  V30 116 1 34 113
M  V30 117 1 36 114
M  V30 118 1 37 115
M  V30 119 1 38 116
M  V30 120 1 41 117 CFG=3
M  V30 121 1 42 118
M  V30 122 1 42 119
M  V30 123 1 43 120
M  V30 124 1 44 121
M  V30 125 1 44 122
M  V30 126 1 44 123
M  V30 127 1 45 124
M  V30 128 1 45 125
M  V30 129 1 45 126
M  V30 130 1 46 127
M  V30 131 1 49 128 CFG=1
M  V30 132 1 50 129
M  V30 133 1 50 130
M  V30 134 1 51 131
M  V30 135 1 51 132
M  V30 136 1 52 133
M  V30 137 1 52 134
M  V30 138 1 55 135
M  V30 139 1 55 136
M  V30 140 1 55 137
M  V30 141 1 57 138 CFG=1
M  V30 142 1 58 139
M  V30 143 1 58 140
M  V30 144 1 58 141
M  V30 145 1 59 142
M  V30 146 1 62 143
M  V30 147 1 63 144 CFG=3
M  V30 148 1 64 145
M  V30 149 1 64 146
M  V30 150 1 66 147
M  V30 151 1 67 148
M  V30 152 1 69 149
M  V30 153 1 70 150
M  V30 154 1 71 151
M  V30 155 1 74 152
M  V30 156 1 75 153 CFG=3
M  V30 157 1 76 154
M  V30 158 1 76 155
M  V30 159 1 76 156
M  V30 160 1 78 157
M  V30 161 1 78 158
M  V30 END BOND
M  V30 END CTAB
M  END
>  <Dataset>  (675) 
ChEMBL_Kinases

>  <Ligand_Instance>  (675) 
nan

>  <PDB_ID>  (675) 
nan

>  <Standardized_SMILES>  (675) 
CC[C@H](C)[C@H](NC(=O)[C@H](C)NC(=O)[C@@H](NC(=O)[C@H]1CCCN1C(=O)[C@H](CO)NC(=O)[C@H](Cc1cnc[nH]1)NC(=O)[C@H](CC(C)C)NC(=O)[C@@H]1CCCN1C(C)=O)[C@@H](C)O)C(=O)N[C@@H](Cc1ccc(O)cc1)C(=O)N[C@@H](C)C(N)=O

>  <Name>  (675) 
nan

>  <Pocket>  (675) 
nan

>  <ATP_Site>  (675) 
nan

>  <Peripheral>  (675) 
nan

>  <Num_H_Atoms_ProtBoundConf>  (675) 
nan

>  <Num_Resolved_Atoms>  (675) 
nan

>  <Num_Not_Resolved_Atoms>  (675) 
nan

$$$$
CHEMBL476025
     RDKit          3D

  0  0  0  0  0  0  0  0  0  0999 V3000
M  V30 BEGIN CTAB
M  V30 COUNTS 52 55 0 0 0
M  V30 BEGIN ATOM
M  V30 1 C 1.077905 -2.446666 5.120128 0
M  V30 2 O 1.435644 -3.184236 3.963635 0
M  V30 3 C 1.583863 -2.632710 2.712464 0
M  V30 4 C 1.410961 -1.319823 2.410245 0
M  V30 5 C 1.567275 -0.779247 1.126759 0
M  V30 6 C 1.371845 0.674671 0.923747 0
M  V30 7 C 2.645506 1.321531 0.478106 0
M  V30 8 C 3.835879 1.221145 1.322128 0
M  V30 9 C 5.129529 1.856700 0.882688 0
M  V30 10 O 3.866213 0.611634 2.449206 0
M  V30 11 C 2.608343 1.963019 -0.703447 0
M  V30 12 O 3.635237 2.645422 -1.359412 0
M  V30 13 C 1.229570 1.776753 -1.135886 0
M  V30 14 O 0.869793 2.279599 -2.254382 0
M  V30 15 N 0.481220 1.012609 -0.162506 0
M  V30 16 C -0.899410 0.795169 -0.457551 0
M  V30 17 C -1.133256 -0.460922 -1.254801 0
M  V30 18 C -2.579672 -0.652788 -1.562268 0
M  V30 19 C -3.327867 -0.467946 -2.713281 0
M  V30 20 N -4.603635 -0.787314 -2.465192 0
M  V30 21 C -4.750465 -1.184678 -1.179820 0
M  V30 22 C -5.831330 -1.615757 -0.411622 0
M  V30 23 C -5.705773 -1.971523 0.911880 0
M  V30 24 C -4.445448 -1.892568 1.490723 0
M  V30 25 C -3.398529 -1.464215 0.708882 0
M  V30 26 C -3.491059 -1.100276 -0.620498 0
M  V30 27 C 1.915639 -1.697315 0.179539 0
M  V30 28 C 2.107609 -3.041207 0.413079 0
M  V30 29 C 1.939036 -3.520568 1.703658 0
M  V30 30 O 2.153996 -4.894505 1.847841 0
M  V30 31 H 0.224817 -1.762565 4.913836 0
M  V30 32 H 1.946668 -1.789179 5.360762 0
M  V30 33 H 0.855219 -3.177544 5.923112 0
M  V30 34 H 1.133297 -0.675527 3.241057 0
M  V30 35 H 1.072077 1.138689 1.867671 0
M  V30 36 H 5.115674 2.955774 0.987170 0
M  V30 37 H 5.960230 1.387958 1.449277 0
M  V30 38 H 5.327581 1.572653 -0.193980 0
M  V30 39 H 3.694503 3.658487 -1.351104 0
M  V30 40 H -1.391515 1.671866 -0.971640 0
M  V30 41 H -1.423738 0.622138 0.524671 0
M  V30 42 H -0.770584 -1.303669 -0.628062 0
M  V30 43 H -0.567628 -0.386436 -2.194995 0
M  V30 44 H -2.871310 -0.114575 -3.635066 0
M  V30 45 H -5.379688 -0.735744 -3.172772 0
M  V30 46 H -6.819403 -1.680513 -0.854726 0
M  V30 47 H -6.519013 -2.308444 1.534163 0
M  V30 48 H -4.327966 -2.168575 2.529954 0
M  V30 49 H -2.443161 -1.429055 1.233548 0
M  V30 50 H 2.048132 -1.324952 -0.829281 0
M  V30 51 H 2.384195 -3.666355 -0.431355 0
M  V30 52 H 1.417338 -5.424960 2.317408 0
M  V30 END ATOM
M  V30 BEGIN BOND
M  V30 1 1 1 2
M  V30 2 1 2 3
M  V30 3 2 3 4
M  V30 4 1 4 5
M  V30 5 1 5 6
M  V30 6 1 6 7
M  V30 7 1 7 8
M  V30 8 1 8 9
M  V30 9 2 8 10
M  V30 10 2 7 11
M  V30 11 1 11 12
M  V30 12 1 11 13
M  V30 13 2 13 14
M  V30 14 1 13 15
M  V30 15 1 15 16
M  V30 16 1 16 17
M  V30 17 1 17 18
M  V30 18 2 18 19
M  V30 19 1 19 20
M  V30 20 1 20 21
M  V30 21 2 21 22
M  V30 22 1 22 23
M  V30 23 2 23 24
M  V30 24 1 24 25
M  V30 25 2 25 26
M  V30 26 2 5 27
M  V30 27 1 27 28
M  V30 28 2 28 29
M  V30 29 1 29 30
M  V30 30 1 29 3
M  V30 31 1 15 6
M  V30 32 1 26 18
M  V30 33 1 26 21
M  V30 34 1 1 31
M  V30 35 1 1 32
M  V30 36 1 1 33
M  V30 37 1 4 34
M  V30 38 1 6 35
M  V30 39 1 9 36
M  V30 40 1 9 37
M  V30 41 1 9 38
M  V30 42 1 12 39
M  V30 43 1 16 40
M  V30 44 1 16 41
M  V30 45 1 17 42
M  V30 46 1 17 43
M  V30 47 1 19 44
M  V30 48 1 20 45
M  V30 49 1 22 46
M  V30 50 1 23 47
M  V30 51 1 24 48
M  V30 52 1 25 49
M  V30 53 1 27 50
M  V30 54 1 28 51
M  V30 55 1 30 52
M  V30 END BOND
M  V30 END CTAB
M  END
>  <Dataset>  (676) 
ChEMBL_Kinases

>  <Ligand_Instance>  (676) 
nan

>  <PDB_ID>  (676) 
nan

>  <Standardized_SMILES>  (676) 
COc1cc(C2C(C(C)=O)=C(O)C(=O)N2CCc2c[nH]c3ccccc23)ccc1O

>  <Name>  (676) 
nan

>  <Pocket>  (676) 
nan

>  <ATP_Site>  (676) 
nan

>  <Peripheral>  (676) 
nan

>  <Num_H_Atoms_ProtBoundConf>  (676) 
nan

>  <Num_Resolved_Atoms>  (676) 
nan

>  <Num_Not_Resolved_Atoms>  (676) 
nan

$$$$
CHEMBL4760288
     RDKit          3D

  0  0  0  0  0  0  0  0  0  0999 V3000
M  V30 BEGIN CTAB
M  V30 COUNTS 84 90 0 0 0
M  V30 BEGIN ATOM
M  V30 1 C 0.970738 -8.563417 -2.085928 0
M  V30 2 N 0.048271 -7.442668 -2.100295 0
M  V30 3 C -0.245945 -6.676964 -0.930529 0
M  V30 4 O 0.299347 -6.966422 0.149488 0
M  V30 5 C -1.197248 -5.572347 -1.096841 0
M  V30 6 S -2.085904 -5.006876 -2.573832 0
M  V30 7 C -2.922434 -3.635882 -1.619237 0
M  V30 8 C -3.872754 -2.722273 -2.323877 0
M  V30 9 C -4.262207 -2.855302 -3.611187 0
M  V30 10 C -5.122505 -1.872578 -4.049044 0
M  V30 11 N -5.543142 -0.866997 -3.269825 0
M  V30 12 C -5.153380 -0.735809 -1.993633 0
M  V30 13 N -5.656624 0.380153 -1.296900 0
M  V30 14 C -5.388572 0.802427 0.028247 0
M  V30 15 O -4.600694 0.119822 0.732798 0
M  V30 16 C -5.907766 1.983588 0.767187 0
M  V30 17 C -4.964475 2.739929 1.645401 0
M  V30 18 C -6.070922 1.899784 2.240036 0
M  V30 19 C -4.308958 -1.686232 -1.535988 0
M  V30 20 N -2.502239 -3.771215 -0.541254 0
M  V30 21 C -1.641657 -4.675877 -0.108104 0
M  V30 22 O -1.212545 -4.720903 1.239851 0
M  V30 23 C -1.705112 -3.792241 2.213691 0
M  V30 24 C -1.144426 -3.964103 3.571353 0
M  V30 25 C 0.314565 -3.797539 3.739047 0
M  V30 26 C 0.866162 -2.478946 3.421836 0
M  V30 27 C 0.528719 -1.211989 3.006970 0
M  V30 28 N 1.590825 -0.360136 2.896176 0
M  V30 29 C 1.298669 1.006448 2.446408 0
M  V30 30 C 1.365604 1.067747 0.962468 0
M  V30 31 N 2.603510 0.805033 0.333719 0
M  V30 32 C 3.531377 1.837175 0.147071 0
M  V30 33 C 3.310405 2.443261 -1.090482 0
M  V30 34 C 4.045813 3.505099 -1.573945 0
M  V30 35 N 5.055023 3.997574 -0.794969 0
M  V30 36 C 5.294099 3.438353 0.397298 0
M  V30 37 C 6.291135 3.841333 1.287750 0
M  V30 38 C 6.507991 3.236239 2.504407 0
M  V30 39 C 5.731461 2.169438 2.925524 0
M  V30 40 C 4.741899 1.747828 2.082578 0
M  V30 41 C 4.556458 2.367968 0.889101 0
M  V30 42 C 3.911735 4.213882 -2.865053 0
M  V30 43 C 2.483268 4.262132 -3.268740 0
M  V30 44 C 1.570009 3.292978 -2.611172 0
M  V30 45 C 2.276107 2.058197 -2.096066 0
M  V30 46 N 2.575434 -1.151229 3.257986 0
M  V30 47 N 2.185836 -2.358459 3.560345 0
M  V30 48 H 0.883025 -9.137075 -1.159216 0
M  V30 49 H 0.724605 -9.197133 -2.961799 0
M  V30 50 H 1.986920 -8.136434 -2.236471 0
M  V30 51 H -0.420739 -7.182262 -3.000273 0
M  V30 52 H -3.885995 -3.687046 -4.183248 0
M  V30 53 H -5.472305 -1.925038 -5.068623 0
M  V30 54 H -6.331490 1.059880 -1.736456 0
M  V30 55 H -6.637815 2.624551 0.193323 0
M  V30 56 H -3.934190 2.348436 1.808452 0
M  V30 57 H -5.043979 3.842932 1.654394 0
M  V30 58 H -6.848671 2.477105 2.791368 0
M  V30 59 H -5.786700 0.956896 2.776999 0
M  V30 60 H -3.977923 -1.626411 -0.508305 0
M  V30 61 H -2.835942 -3.847200 2.208305 0
M  V30 62 H -1.489687 -2.802966 1.777758 0
M  V30 63 H -1.659010 -3.236523 4.266437 0
M  V30 64 H -1.428308 -4.962772 3.965877 0
M  V30 65 H 0.529447 -3.991715 4.833884 0
M  V30 66 H 0.834327 -4.619809 3.198354 0
M  V30 67 H -0.526719 -1.017718 2.820620 0
M  V30 68 H 0.281951 1.271770 2.774433 0
M  V30 69 H 1.975405 1.728790 2.955127 0
M  V30 70 H 0.635309 0.294675 0.576615 0
M  V30 71 H 0.914582 2.022963 0.552975 0
M  V30 72 H 2.901359 -0.133969 -0.020485 0
M  V30 73 H 6.922818 4.686430 0.969679 0
M  V30 74 H 7.304188 3.639744 3.097336 0
M  V30 75 H 5.972837 1.768481 3.878259 0
M  V30 76 H 4.140476 0.920578 2.396809 0
M  V30 77 H 4.321416 5.239573 -2.831582 0
M  V30 78 H 4.466590 3.580089 -3.618543 0
M  V30 79 H 2.443118 4.155067 -4.395519 0
M  V30 80 H 2.115896 5.323331 -3.126778 0
M  V30 81 H 0.735768 2.966698 -3.270258 0
M  V30 82 H 1.096727 3.780500 -1.732727 0
M  V30 83 H 2.790491 1.593553 -2.939853 0
M  V30 84 H 1.523538 1.378879 -1.666368 0
M  V30 END ATOM
M  V30 BEGIN BOND
M  V30 1 1 1 2
M  V30 2 1 2 3
M  V30 3 2 3 4
M  V30 4 1 3 5
M  V30 5 1 5 6
M  V30 6 1 6 7
M  V30 7 1 7 8
M  V30 8 2 8 9
M  V30 9 1 9 10
M  V30 10 2 10 11
M  V30 11 1 11 12
M  V30 12 1 12 13
M  V30 13 1 13 14
M  V30 14 2 14 15
M  V30 15 1 14 16
M  V30 16 1 16 17
M  V30 17 1 17 18
M  V30 18 2 12 19
M  V30 19 2 7 20
M  V30 20 1 20 21
M  V30 21 1 21 22
M  V30 22 1 22 23
M  V30 23 1 23 24
M  V30 24 1 24 25
M  V30 25 1 25 26
M  V30 26 2 26 27
M  V30 27 1 27 28
M  V30 28 1 28 29
M  V30 29 1 29 30
M  V30 30 1 30 31
M  V30 31 1 31 32
M  V30 32 2 32 33
M  V30 33 1 33 34
M  V30 34 2 34 35
M  V30 35 1 35 36
M  V30 36 2 36 37
M  V30 37 1 37 38
M  V30 38 2 38 39
M  V30 39 1 39 40
M  V30 40 2 40 41
M  V30 41 1 34 42
M  V30 42 1 42 43
M  V30 43 1 43 44
M  V30 44 1 44 45
M  V30 45 1 28 46
M  V30 46 2 46 47
M  V30 47 2 21 5
M  V30 48 1 47 26
M  V30 49 1 19 8
M  V30 50 1 41 32
M  V30 51 1 18 16
M  V30 52 1 45 33
M  V30 53 1 41 36
M  V30 54 1 1 48
M  V30 55 1 1 49
M  V30 56 1 1 50
M  V30 57 1 2 51
M  V30 58 1 9 52
M  V30 59 1 10 53
M  V30 60 1 13 54
M  V30 61 1 16 55
M  V30 62 1 17 56
M  V30 63 1 17 57
M  V30 64 1 18 58
M  V30 65 1 18 59
M  V30 66 1 19 60
M  V30 67 1 23 61
M  V30 68 1 23 62
M  V30 69 1 24 63
M  V30 70 1 24 64
M  V30 71 1 25 65
M  V30 72 1 25 66
M  V30 73 1 27 67
M  V30 74 1 29 68
M  V30 75 1 29 69
M  V30 76 1 30 70
M  V30 77 1 30 71
M  V30 78 1 31 72
M  V30 79 1 37 73
M  V30 80 1 38 74
M  V30 81 1 39 75
M  V30 82 1 40 76
M  V30 83 1 42 77
M  V30 84 1 42 78
M  V30 85 1 43 79
M  V30 86 1 43 80
M  V30 87 1 44 81
M  V30 88 1 44 82
M  V30 89 1 45 83
M  V30 90 1 45 84
M  V30 END BOND
M  V30 END CTAB
M  END
>  <Dataset>  (677) 
ChEMBL_Kinases

>  <Ligand_Instance>  (677) 
nan

>  <PDB_ID>  (677) 
nan

>  <Standardized_SMILES>  (677) 
CNC(=O)c1sc(-c2ccnc(NC(=O)C3CC3)c2)nc1OCCCc1cn(CCNc2c3c(nc4ccccc24)CCCC3)nn1

>  <Name>  (677) 
nan

>  <Pocket>  (677) 
nan

>  <ATP_Site>  (677) 
nan

>  <Peripheral>  (677) 
nan

>  <Num_H_Atoms_ProtBoundConf>  (677) 
nan

>  <Num_Resolved_Atoms>  (677) 
nan

>  <Num_Not_Resolved_Atoms>  (677) 
nan

$$$$
CHEMBL4283169
     RDKit          3D

  0  0  0  0  0  0  0  0  0  0999 V3000
M  V30 BEGIN CTAB
M  V30 COUNTS 39 42 0 0 0
M  V30 BEGIN ATOM
M  V30 1 O 2.462327 -6.495405 5.572040 0
M  V30 2 C 2.241487 -5.713133 4.605684 0
M  V30 3 N 1.956389 -6.116004 3.349392 0
M  V30 4 C 1.802517 -4.977121 2.679188 0
M  V30 5 C 1.495228 -4.781373 1.337189 0
M  V30 6 C 1.378762 -3.502002 0.839532 0
M  V30 7 C 1.554643 -2.351340 1.618638 0
M  V30 8 C 1.426956 -0.994246 1.085881 0
M  V30 9 N 1.136971 -0.996941 -0.173560 0
M  V30 10 N 0.949828 0.140333 -0.963554 0
M  V30 11 C 1.065957 1.318468 -0.433989 0
M  V30 12 N 0.849138 2.355454 -1.352543 0
M  V30 13 C -0.172726 2.480553 -2.366557 0
M  V30 14 C -1.498303 2.646156 -1.735198 0
M  V30 15 C -1.941067 3.974681 -1.637826 0
M  V30 16 C -3.150611 4.333580 -1.052428 0
M  V30 17 C -3.993509 3.379646 -0.526441 0
M  V30 18 C -3.558698 2.078026 -0.622436 0
M  V30 19 C -2.365173 1.726386 -1.200961 0
M  V30 20 F -2.012940 0.435963 -1.278641 0
M  V30 21 S 1.468737 1.698731 1.286880 0
M  V30 22 C 1.660848 0.091598 2.107793 0
M  V30 23 C 1.856176 -2.624479 2.934849 0
M  V30 24 C 1.984342 -3.877631 3.485145 0
M  V30 25 N 2.263386 -4.370885 4.709976 0
M  V30 26 H 1.890569 -7.105582 3.055117 0
M  V30 27 H 1.349911 -5.650619 0.694006 0
M  V30 28 H 1.138999 -3.383918 -0.205753 0
M  V30 29 H 1.525523 3.190930 -1.305709 0
M  V30 30 H -0.220602 1.558960 -3.002973 0
M  V30 31 H 0.016699 3.350064 -3.033059 0
M  V30 32 H -1.370842 4.819416 -2.011470 0
M  V30 33 H -3.472300 5.363169 -0.987446 0
M  V30 34 H -4.948465 3.542054 -0.052683 0
M  V30 35 H -4.174464 1.279641 -0.229640 0
M  V30 36 H 0.854127 0.041545 2.881203 0
M  V30 37 H 2.677465 0.039293 2.527446 0
M  V30 38 H 2.009889 -1.775682 3.615604 0
M  V30 39 H 2.449788 -3.769093 5.533418 0
M  V30 END ATOM
M  V30 BEGIN BOND
M  V30 1 2 1 2
M  V30 2 1 2 3
M  V30 3 1 3 4
M  V30 4 2 4 5
M  V30 5 1 5 6
M  V30 6 2 6 7
M  V30 7 1 7 8
M  V30 8 2 8 9
M  V30 9 1 9 10
M  V30 10 2 10 11
M  V30 11 1 11 12
M  V30 12 1 12 13
M  V30 13 1 13 14
M  V30 14 2 14 15
M  V30 15 1 15 16
M  V30 16 2 16 17
M  V30 17 1 17 18
M  V30 18 2 18 19
M  V30 19 1 19 20
M  V30 20 1 11 21
M  V30 21 1 21 22
M  V30 22 1 7 23
M  V30 23 2 23 24
M  V30 24 1 24 25
M  V30 25 1 25 2
M  V30 26 1 24 4
M  V30 27 1 22 8
M  V30 28 1 19 14
M  V30 29 1 3 26
M  V30 30 1 5 27
M  V30 31 1 6 28
M  V30 32 1 12 29
M  V30 33 1 13 30
M  V30 34 1 13 31
M  V30 35 1 15 32
M  V30 36 1 16 33
M  V30 37 1 17 34
M  V30 38 1 18 35
M  V30 39 1 22 36
M  V30 40 1 22 37
M  V30 41 1 23 38
M  V30 42 1 25 39
M  V30 END BOND
M  V30 END CTAB
M  END
>  <Dataset>  (678) 
ChEMBL_Kinases

>  <Ligand_Instance>  (678) 
nan

>  <PDB_ID>  (678) 
nan

>  <Standardized_SMILES>  (678) 
O=c1[nH]c2ccc(C3=NN=C(NCc4ccccc4F)SC3)cc2[nH]1

>  <Name>  (678) 
nan

>  <Pocket>  (678) 
nan

>  <ATP_Site>  (678) 
nan

>  <Peripheral>  (678) 
nan

>  <Num_H_Atoms_ProtBoundConf>  (678) 
nan

>  <Num_Resolved_Atoms>  (678) 
nan

>  <Num_Not_Resolved_Atoms>  (678) 
nan

$$$$
CHEMBL4760299
     RDKit          3D

  0  0  0  0  0  0  0  0  0  0999 V3000
M  V30 BEGIN CTAB
M  V30 COUNTS 45 47 0 0 0
M  V30 BEGIN ATOM
M  V30 1 C -1.566705 -4.375999 -1.865699 0
M  V30 2 C -0.542336 -3.575905 -2.676850 0
M  V30 3 C -1.189979 -3.146369 -3.963192 0
M  V30 4 C 0.603650 -4.512817 -2.892752 0
M  V30 5 O 0.600994 -5.730463 -2.502551 0
M  V30 6 O 1.828807 -4.330677 -3.501686 0
M  V30 7 C -0.057269 -2.430445 -1.863677 0
M  V30 8 C -0.806304 -1.964932 -0.796672 0
M  V30 9 C -0.450043 -0.903906 0.028777 0
M  V30 10 C 0.765704 -0.276989 -0.266137 0
M  V30 11 C 1.101410 0.831029 0.623760 0
M  V30 12 C 1.823987 1.913095 0.213456 0
M  V30 13 N 2.143489 2.951538 1.030185 0
M  V30 14 C 1.735896 2.940378 2.329657 0
M  V30 15 N 2.061223 4.020806 3.201931 0
M  V30 16 C 0.994980 1.875955 2.830728 0
M  V30 17 C 0.551916 1.852077 4.221611 0
M  V30 18 C -0.780378 1.459072 4.323456 0
M  V30 19 C -1.408022 1.367059 5.554659 0
M  V30 20 C -0.671644 1.676778 6.673486 0
M  V30 21 Cl -1.418254 1.578050 8.274174 0
M  V30 22 C 0.663007 2.072339 6.595235 0
M  V30 23 C 1.274893 2.158925 5.355418 0
M  V30 24 C 0.700599 0.844466 1.945092 0
M  V30 25 C 1.556625 -0.697117 -1.318577 0
M  V30 26 C 1.125296 -1.758762 -2.086226 0
M  V30 27 H -1.653879 -5.386420 -2.328236 0
M  V30 28 H -1.177531 -4.526165 -0.829515 0
M  V30 29 H -2.549091 -3.858176 -1.833128 0
M  V30 30 H -1.859382 -2.304570 -3.722071 0
M  V30 31 H -0.466412 -2.939464 -4.752592 0
M  V30 32 H -1.821385 -3.996346 -4.298905 0
M  V30 33 H 2.050162 -4.897075 -4.310007 0
M  V30 34 H -1.752051 -2.454863 -0.569787 0
M  V30 35 H -1.100093 -0.609950 0.840412 0
M  V30 36 H 2.173489 1.969251 -0.817825 0
M  V30 37 H 2.999203 4.351136 3.570689 0
M  V30 38 H 1.299391 4.643612 3.589199 0
M  V30 39 H -1.436966 1.195909 3.490233 0
M  V30 40 H -2.440129 1.066121 5.677434 0
M  V30 41 H 1.275223 2.324055 7.451778 0
M  V30 42 H 2.296425 2.450253 5.151405 0
M  V30 43 H 0.123108 0.021318 2.347332 0
M  V30 44 H 2.475458 -0.181853 -1.498238 0
M  V30 45 H 1.751752 -2.076964 -2.905638 0
M  V30 END ATOM
M  V30 BEGIN BOND
M  V30 1 1 1 2
M  V30 2 1 2 3
M  V30 3 1 2 4
M  V30 4 2 4 5
M  V30 5 1 4 6
M  V30 6 1 2 7
M  V30 7 2 7 8
M  V30 8 1 8 9
M  V30 9 2 9 10
M  V30 10 1 10 11
M  V30 11 2 11 12
M  V30 12 1 12 13
M  V30 13 2 13 14
M  V30 14 1 14 15
M  V30 15 1 14 16
M  V30 16 1 16 17
M  V30 17 2 17 18
M  V30 18 1 18 19
M  V30 19 2 19 20
M  V30 20 1 20 21
M  V30 21 1 20 22
M  V30 22 2 22 23
M  V30 23 2 16 24
M  V30 24 1 10 25
M  V30 25 2 25 26
M  V30 26 1 26 7
M  V30 27 1 24 11
M  V30 28 1 23 17
M  V30 29 1 1 27
M  V30 30 1 1 28
M  V30 31 1 1 29
M  V30 32 1 3 30
M  V30 33 1 3 31
M  V30 34 1 3 32
M  V30 35 1 6 33
M  V30 36 1 8 34
M  V30 37 1 9 35
M  V30 38 1 12 36
M  V30 39 1 15 37
M  V30 40 1 15 38
M  V30 41 1 18 39
M  V30 42 1 19 40
M  V30 43 1 22 41
M  V30 44 1 23 42
M  V30 45 1 24 43
M  V30 46 1 25 44
M  V30 47 1 26 45
M  V30 END BOND
M  V30 END CTAB
M  END
>  <Dataset>  (679) 
ChEMBL_Kinases

>  <Ligand_Instance>  (679) 
nan

>  <PDB_ID>  (679) 
nan

>  <Standardized_SMILES>  (679) 
CC(C)(C(=O)O)c1ccc(-c2cnc(N)c(-c3ccc(Cl)cc3)c2)cc1

>  <Name>  (679) 
nan

>  <Pocket>  (679) 
nan

>  <ATP_Site>  (679) 
nan

>  <Peripheral>  (679) 
nan

>  <Num_H_Atoms_ProtBoundConf>  (679) 
nan

>  <Num_Resolved_Atoms>  (679) 
nan

>  <Num_Not_Resolved_Atoms>  (679) 
nan

$$$$
CHEMBL4282948
     RDKit          3D

  0  0  0  0  0  0  0  0  0  0999 V3000
M  V30 BEGIN CTAB
M  V30 COUNTS 38 41 0 0 0
M  V30 BEGIN ATOM
M  V30 1 O 0.553103 -3.359613 1.352734 0
M  V30 2 C -0.094291 -2.357453 1.712755 0
M  V30 3 C 0.445864 -1.081647 1.673946 0
M  V30 4 N 1.769081 -0.877502 1.217079 0
M  V30 5 C 1.973769 -0.634970 -0.171353 0
M  V30 6 C 3.224592 -0.421237 -0.732812 0
M  V30 7 C 3.382461 -0.189194 -2.084634 0
M  V30 8 C 2.300544 -0.160261 -2.934534 0
M  V30 9 N 2.434668 0.077186 -4.334804 0 CHG=1 VAL=4
M  V30 10 O 3.555949 0.269541 -4.842818 0
M  V30 11 O 1.291388 0.085351 -5.092959 0 CHG=-1 VAL=1
M  V30 12 C 1.039620 -0.367209 -2.421708 0
M  V30 13 C 0.920214 -0.595987 -1.066491 0
M  V30 14 C -0.271693 0.028857 2.072949 0
M  V30 15 C 0.342038 1.359001 2.014060 0
M  V30 16 C -0.286489 2.528583 2.387904 0
M  V30 17 C 0.677723 3.489371 2.155579 0
M  V30 18 C 1.821990 2.891814 1.664665 0
M  V30 19 O 1.545454 1.598189 1.605218 0
M  V30 20 O -1.501403 -0.153231 2.498479 0
M  V30 21 C -2.056010 -1.344086 2.553076 0
M  V30 22 C -3.360966 -1.385554 3.023443 0
M  V30 23 Cl -4.197583 0.076128 3.509325 0
M  V30 24 C -3.976847 -2.640329 3.092452 0
M  V30 25 C -3.316037 -3.799580 2.708090 0
M  V30 26 Cl -4.171058 -5.330992 2.829982 0
M  V30 27 C -2.016140 -3.720478 2.244228 0
M  V30 28 C -1.391593 -2.491292 2.168890 0
M  V30 29 H 2.622283 -0.889383 1.818944 0
M  V30 30 H 4.082973 -0.438375 -0.094845 0
M  V30 31 H 4.348276 -0.020660 -2.540051 0
M  V30 32 H 0.151331 -0.356640 -3.037150 0
M  V30 33 H -0.089538 -0.759664 -0.668627 0
M  V30 34 H -1.263213 2.716917 2.767097 0
M  V30 35 H 0.668847 4.555676 2.290865 0
M  V30 36 H 2.809399 3.198276 1.342853 0
M  V30 37 H -5.002118 -2.698986 3.458781 0
M  V30 38 H -1.491868 -4.621698 1.941574 0
M  V30 END ATOM
M  V30 BEGIN BOND
M  V30 1 2 1 2
M  V30 2 1 2 3
M  V30 3 1 3 4
M  V30 4 1 4 5
M  V30 5 2 5 6
M  V30 6 1 6 7
M  V30 7 2 7 8
M  V30 8 1 8 9
M  V30 9 2 9 10
M  V30 10 1 9 11
M  V30 11 1 8 12
M  V30 12 2 12 13
M  V30 13 2 3 14
M  V30 14 1 14 15
M  V30 15 2 15 16
M  V30 16 1 16 17
M  V30 17 2 17 18
M  V30 18 1 18 19
M  V30 19 1 14 20
M  V30 20 1 20 21
M  V30 21 2 21 22
M  V30 22 1 22 23
M  V30 23 1 22 24
M  V30 24 2 24 25
M  V30 25 1 25 26
M  V30 26 1 25 27
M  V30 27 2 27 28
M  V30 28 1 28 2
M  V30 29 1 13 5
M  V30 30 1 19 15
M  V30 31 1 28 21
M  V30 32 1 4 29
M  V30 33 1 6 30
M  V30 34 1 7 31
M  V30 35 1 12 32
M  V30 36 1 13 33
M  V30 37 1 16 34
M  V30 38 1 17 35
M  V30 39 1 18 36
M  V30 40 1 24 37
M  V30 41 1 27 38
M  V30 END BOND
M  V30 END CTAB
M  END
>  <Dataset>  (680) 
ChEMBL_Kinases

>  <Ligand_Instance>  (680) 
nan

>  <PDB_ID>  (680) 
nan

>  <Standardized_SMILES>  (680) 
O=c1c(Nc2ccc([N+](=O)[O-])cc2)c(-c2ccco2)oc2c(Cl)cc(Cl)cc12

>  <Name>  (680) 
nan

>  <Pocket>  (680) 
nan

>  <ATP_Site>  (680) 
nan

>  <Peripheral>  (680) 
nan

>  <Num_H_Atoms_ProtBoundConf>  (680) 
nan

>  <Num_Resolved_Atoms>  (680) 
nan

>  <Num_Not_Resolved_Atoms>  (680) 
nan

$$$$
CHEMBL428041
     RDKit          3D

  0  0  0  0  0  0  0  0  0  0999 V3000
M  V30 BEGIN CTAB
M  V30 COUNTS 56 60 0 0 0
M  V30 BEGIN ATOM
M  V30 1 C 1.263990 -2.927648 3.180508 0
M  V30 2 N 2.446099 -2.298721 2.635080 0
M  V30 3 C 3.723719 -3.014232 2.664412 0
M  V30 4 C 2.484294 -1.025129 2.057972 0
M  V30 5 O 1.412362 -1.475797 2.496036 0
M  V30 6 C 3.597523 -0.310358 1.490479 0
M  V30 7 O 4.665965 -0.957661 1.620233 0
M  V30 8 C 3.533049 0.986699 0.845386 0
M  V30 9 C 4.650287 1.611462 0.345194 0
M  V30 10 N 4.288070 2.787634 -0.188733 0
M  V30 11 C 2.975516 2.995903 -0.077113 0
M  V30 12 C 2.085888 3.984483 -0.436651 0
M  V30 13 C 0.736118 3.863050 -0.159711 0
M  V30 14 Cl -0.436700 5.081597 -0.594167 0
M  V30 15 C 0.266722 2.741543 0.484659 0
M  V30 16 C -1.144852 2.479304 0.832879 0
M  V30 17 O -1.886902 2.721257 1.790548 0
M  V30 18 N -1.788731 1.762170 -0.218510 0
M  V30 19 C -3.162272 1.327717 -0.221859 0
M  V30 20 C -3.145942 -0.141268 0.217656 0
M  V30 21 N -2.306934 -0.836994 -0.718374 0
M  V30 22 C -1.449329 -0.168105 -1.510747 0
M  V30 23 C -0.796261 -1.050977 -2.324643 0
M  V30 24 N -1.308021 -2.234333 -1.969055 0
M  V30 25 C -2.228497 -2.139467 -0.994077 0
M  V30 26 C -2.844463 -3.368769 -0.558808 0
M  V30 27 C -2.684372 -4.533774 -1.315532 0
M  V30 28 C -3.213844 -5.753091 -0.967291 0
M  V30 29 C -3.948386 -5.891327 0.176079 0
M  V30 30 F -4.457789 -7.095955 0.496786 0
M  V30 31 C -4.139386 -4.781502 0.961449 0
M  V30 32 C -3.586419 -3.592993 0.562216 0
M  V30 33 F -3.828472 -2.607289 1.441130 0
M  V30 34 C -1.234212 1.300760 -1.497838 0
M  V30 35 C 1.165779 1.758412 0.840060 0
M  V30 36 C 2.511086 1.871169 0.567769 0
M  V30 37 H 0.463712 -3.092764 2.418810 0
M  V30 38 H 0.811069 -2.393390 4.033204 0
M  V30 39 H 1.576298 -3.963007 3.519695 0
M  V30 40 H 4.418691 -2.504556 3.342327 0
M  V30 41 H 3.556700 -4.037341 3.107960 0
M  V30 42 H 4.099335 -3.200743 1.655009 0
M  V30 43 H 5.642138 1.200904 0.389219 0
M  V30 44 H 4.934998 3.486470 -0.648337 0
M  V30 45 H 2.444076 4.861402 -0.938678 0
M  V30 46 H -3.716259 1.484289 -1.145899 0
M  V30 47 H -3.652171 1.844228 0.660580 0
M  V30 48 H -4.203725 -0.497635 0.065193 0
M  V30 49 H -2.884360 -0.229397 1.267635 0
M  V30 50 H -0.043585 -0.894210 -3.085090 0
M  V30 51 H -2.116797 -4.569311 -2.260925 0
M  V30 52 H -3.067745 -6.622545 -1.575489 0
M  V30 53 H -4.720738 -4.910618 1.859718 0
M  V30 54 H -0.142356 1.517084 -1.532928 0
M  V30 55 H -1.791247 1.769802 -2.308496 0
M  V30 56 H 0.800788 0.877701 1.345914 0
M  V30 END ATOM
M  V30 BEGIN BOND
M  V30 1 1 1 2
M  V30 2 1 2 3
M  V30 3 1 2 4
M  V30 4 2 4 5
M  V30 5 1 4 6
M  V30 6 2 6 7
M  V30 7 1 6 8
M  V30 8 2 8 9
M  V30 9 1 9 10
M  V30 10 1 10 11
M  V30 11 2 11 12
M  V30 12 1 12 13
M  V30 13 1 13 14
M  V30 14 2 13 15
M  V30 15 1 15 16
M  V30 16 2 16 17
M  V30 17 1 16 18
M  V30 18 1 18 19
M  V30 19 1 19 20
M  V30 20 1 20 21
M  V30 21 1 21 22
M  V30 22 2 22 23
M  V30 23 1 23 24
M  V30 24 2 24 25
M  V30 25 1 25 26
M  V30 26 2 26 27
M  V30 27 1 27 28
M  V30 28 2 28 29
M  V30 29 1 29 30
M  V30 30 1 29 31
M  V30 31 2 31 32
M  V30 32 1 32 33
M  V30 33 1 22 34
M  V30 34 1 15 35
M  V30 35 2 35 36
M  V30 36 1 36 8
M  V30 37 1 36 11
M  V30 38 1 34 18
M  V30 39 1 25 21
M  V30 40 1 32 26
M  V30 41 1 1 37
M  V30 42 1 1 38
M  V30 43 1 1 39
M  V30 44 1 3 40
M  V30 45 1 3 41
M  V30 46 1 3 42
M  V30 47 1 9 43
M  V30 48 1 10 44
M  V30 49 1 12 45
M  V30 50 1 19 46
M  V30 51 1 19 47
M  V30 52 1 20 48
M  V30 53 1 20 49
M  V30 54 1 23 50
M  V30 55 1 27 51
M  V30 56 1 28 52
M  V30 57 1 31 53
M  V30 58 1 34 54
M  V30 59 1 34 55
M  V30 60 1 35 56
M  V30 END BOND
M  V30 END CTAB
M  END
>  <Dataset>  (681) 
ChEMBL_Kinases

>  <Ligand_Instance>  (681) 
nan

>  <PDB_ID>  (681) 
nan

>  <Standardized_SMILES>  (681) 
CN(C)C(=O)C(=O)c1c[nH]c2cc(Cl)c(C(=O)N3CCn4c(cnc4-c4ccc(F)cc4F)C3)cc12

>  <Name>  (681) 
nan

>  <Pocket>  (681) 
nan

>  <ATP_Site>  (681) 
nan

>  <Peripheral>  (681) 
nan

>  <Num_H_Atoms_ProtBoundConf>  (681) 
nan

>  <Num_Resolved_Atoms>  (681) 
nan

>  <Num_Not_Resolved_Atoms>  (681) 
nan

$$$$
CHEMBL4282837
     RDKit          3D

  0  0  0  0  0  0  0  0  0  0999 V3000
M  V30 BEGIN CTAB
M  V30 COUNTS 63 70 0 0 0
M  V30 BEGIN ATOM
M  V30 1 C 0.045891 2.014874 4.268238 0
M  V30 2 N -0.023955 0.654773 3.765717 0
M  V30 3 C -0.771235 0.658866 2.553653 0 CFG=2
M  V30 4 C -0.927159 -0.730797 1.921739 0
M  V30 5 C -1.972072 -0.528808 0.840324 0 CFG=1
M  V30 6 O -2.161342 0.756930 0.480096 0
M  V30 7 C -1.041542 1.576547 0.346516 0 CFG=1
M  V30 8 C -1.629687 2.997822 0.378443 0
M  V30 9 C -0.044698 1.443828 1.453211 0 CFG=2
M  V30 10 O 1.039019 0.629931 1.095845 0
M  V30 11 C 2.242618 1.297478 1.370327 0
M  V30 12 N -0.392786 1.381130 -0.930976 0
M  V30 13 C 0.324219 2.184327 -1.706424 0
M  V30 14 C 0.722971 3.483452 -1.506034 0
M  V30 15 C 1.476432 4.158621 -2.424334 0
M  V30 16 C 1.890330 3.590559 -3.611474 0
M  V30 17 O 2.649375 4.256448 -4.547595 0
M  V30 18 C 1.490150 2.285398 -3.811279 0
M  V30 19 C 0.735070 1.612931 -2.888193 0
M  V30 20 C 0.243297 0.328471 -2.872241 0
M  V30 21 C 0.311724 -0.732990 -3.743538 0
M  V30 22 C -0.294663 -1.923583 -3.428141 0
M  V30 23 C -0.961494 -2.044957 -2.248791 0
M  V30 24 C -1.614241 -3.116144 -1.722499 0
M  V30 25 C -1.927943 -4.406804 -2.011382 0
M  V30 26 C -2.643599 -5.273589 -1.218555 0
M  V30 27 O -2.932406 -6.567627 -1.558428 0
M  V30 28 C -3.107885 -4.807392 0.014518 0
M  V30 29 C -2.810450 -3.486914 0.356000 0
M  V30 30 C -2.085191 -2.687380 -0.502582 0
M  V30 31 N -1.728701 -1.415292 -0.310627 0
M  V30 32 C -1.020710 -0.983404 -1.396157 0
M  V30 33 C -0.426568 0.231586 -1.677194 0
M  V30 34 C -0.031638 -2.797703 -4.539372 0
M  V30 35 O -0.320669 -3.969030 -4.812350 0
M  V30 36 N 0.735172 -2.143035 -5.534314 0
M  V30 37 C 1.003497 -0.770940 -5.079192 0
M  V30 38 H -0.441733 2.075071 5.283025 0
M  V30 39 H 1.056433 2.438823 4.282226 0
M  V30 40 H -0.586692 2.717363 3.649862 0
M  V30 41 H -0.469809 0.053009 4.462047 0
M  V30 42 H -1.779580 1.078748 2.632985 0
M  V30 43 H -1.241146 -1.415979 2.712886 0
M  V30 44 H 0.033182 -1.075443 1.502560 0
M  V30 45 H -2.918838 -0.891512 1.293073 0
M  V30 46 H -1.798456 3.403259 -0.636602 0
M  V30 47 H -2.690889 2.970559 0.805898 0
M  V30 48 H -1.104741 3.658081 1.080570 0
M  V30 49 H 0.319597 2.386729 1.853847 0
M  V30 50 H 2.292738 1.523800 2.442757 0
M  V30 51 H 3.113742 0.672037 1.130929 0
M  V30 52 H 2.241505 2.205439 0.719230 0
M  V30 53 H 0.447409 3.979235 -0.594133 0
M  V30 54 H 1.792303 5.197242 -2.259908 0
M  V30 55 H 2.286824 4.981830 -5.131838 0
M  V30 56 H 1.797210 1.801205 -4.736872 0
M  V30 57 H -1.613620 -4.838531 -2.927680 0
M  V30 58 H -2.180160 -7.251758 -1.695464 0
M  V30 59 H -3.670792 -5.390869 0.706827 0
M  V30 60 H -3.167085 -3.122038 1.307895 0
M  V30 61 H 1.126468 -2.408473 -6.463304 0
M  V30 62 H 0.538294 -0.082127 -5.804615 0
M  V30 63 H 2.080915 -0.607743 -5.002127 0
M  V30 END ATOM
M  V30 BEGIN BOND
M  V30 1 1 1 2
M  V30 2 1 2 3
M  V30 3 1 3 4
M  V30 4 1 4 5
M  V30 5 1 5 6
M  V30 6 1 6 7
M  V30 7 1 7 8 CFG=3
M  V30 8 1 7 9
M  V30 9 1 9 10
M  V30 10 1 10 11
M  V30 11 1 7 12
M  V30 12 1 12 13
M  V30 13 2 13 14
M  V30 14 1 14 15
M  V30 15 2 15 16
M  V30 16 1 16 17
M  V30 17 1 16 18
M  V30 18 2 18 19
M  V30 19 1 19 20
M  V30 20 2 20 21
M  V30 21 1 21 22
M  V30 22 2 22 23
M  V30 23 1 23 24
M  V30 24 2 24 25
M  V30 25 1 25 26
M  V30 26 1 26 27
M  V30 27 2 26 28
M  V30 28 1 28 29
M  V30 29 2 29 30
M  V30 30 1 30 31
M  V30 31 1 31 32
M  V30 32 2 32 33
M  V30 33 1 22 34
M  V30 34 2 34 35
M  V30 35 1 34 36
M  V30 36 1 36 37
M  V30 37 1 9 3
M  V30 38 1 33 12
M  V30 39 1 31 5
M  V30 40 1 19 13
M  V30 41 1 33 20
M  V30 42 1 37 21
M  V30 43 1 32 23
M  V30 44 1 30 24
M  V30 45 1 1 38
M  V30 46 1 1 39
M  V30 47 1 1 40
M  V30 48 1 2 41
M  V30 49 1 3 42 CFG=1
M  V30 50 1 4 43
M  V30 51 1 4 44
M  V30 52 1 5 45 CFG=1
M  V30 53 1 8 46
M  V30 54 1 8 47
M  V30 55 1 8 48
M  V30 56 1 9 49 CFG=1
M  V30 57 1 11 50
M  V30 58 1 11 51
M  V30 59 1 11 52
M  V30 60 1 14 53
M  V30 61 1 15 54
M  V30 62 1 17 55
M  V30 63 1 18 56
M  V30 64 1 25 57
M  V30 65 1 27 58
M  V30 66 1 28 59
M  V30 67 1 29 60
M  V30 68 1 36 61
M  V30 69 1 37 62
M  V30 70 1 37 63
M  V30 END BOND
M  V30 END CTAB
M  END
>  <Dataset>  (682) 
ChEMBL_Kinases

>  <Ligand_Instance>  (682) 
nan

>  <PDB_ID>  (682) 
nan

>  <Standardized_SMILES>  (682) 
CN[C@@H]1C[C@H]2O[C@@](C)([C@@H]1OC)n1c3ccc(O)cc3c3c4c(c5c6cc(O)ccc6n2c5c31)C(=O)NC4

>  <Name>  (682) 
nan

>  <Pocket>  (682) 
nan

>  <ATP_Site>  (682) 
nan

>  <Peripheral>  (682) 
nan

>  <Num_H_Atoms_ProtBoundConf>  (682) 
nan

>  <Num_Resolved_Atoms>  (682) 
nan

>  <Num_Not_Resolved_Atoms>  (682) 
nan

$$$$
CHEMBL4282831
     RDKit          3D

  0  0  0  0  0  0  0  0  0  0999 V3000
M  V30 BEGIN CTAB
M  V30 COUNTS 63 67 0 0 0
M  V30 BEGIN ATOM
M  V30 1 N -0.066411 -5.443440 4.721797 0
M  V30 2 C 0.437021 -4.582254 4.107254 0
M  V30 3 C 1.077482 -3.524782 3.348716 0
M  V30 4 C 2.442108 -3.545109 3.332984 0
M  V30 5 N 3.033326 -2.561766 2.627734 0
M  V30 6 C 2.289867 -1.617765 1.979574 0
M  V30 7 N 2.935332 -0.586451 1.239570 0
M  V30 8 C 2.177890 0.414451 0.551717 0
M  V30 9 C 3.110069 1.390604 -0.150633 0
M  V30 10 C 4.025816 2.096054 0.797444 0
M  V30 11 C 3.314950 3.106410 1.667137 0
M  V30 12 C 2.181905 3.778192 0.958795 0
M  V30 13 C 2.499191 3.777314 -0.531741 0
M  V30 14 C 2.329403 2.347312 -1.024512 0
M  V30 15 N 0.950646 -1.649045 2.031076 0
M  V30 16 C 0.273405 -2.579140 2.700733 0
M  V30 17 N -1.134129 -2.652733 2.806914 0
M  V30 18 C -2.128202 -1.824348 2.237347 0
M  V30 19 C -2.370853 -1.893820 0.777661 0 CFG=2
M  V30 20 C -2.805458 -3.322700 0.405447 0
M  V30 21 C -3.268745 -3.379659 -1.020450 0 CFG=2
M  V30 22 C -2.156184 -2.958541 -1.977921 0
M  V30 23 C -1.753825 -1.557601 -1.573349 0 CFG=2
M  V30 24 C -1.237894 -1.563176 -0.123319 0
M  V30 25 C -2.845141 -0.547208 -1.705419 0 CFG=1
M  V30 26 N -3.150237 -0.191168 -3.055083 0
M  V30 27 C -4.028524 -1.058685 -0.912321 0 CFG=1
M  V30 28 C -4.428989 -2.455751 -1.285558 0
M  V30 29 C -3.615323 -1.024718 0.529294 0
M  V30 30 H 3.006357 -4.305073 3.855551 0
M  V30 31 H 3.980902 -0.568541 1.203542 0
M  V30 32 H 1.447017 0.936891 1.190346 0
M  V30 33 H 1.576804 -0.101153 -0.225470 0
M  V30 34 H 3.752008 0.806450 -0.844159 0
M  V30 35 H 4.764837 2.649956 0.170755 0
M  V30 36 H 4.598794 1.365128 1.365299 0
M  V30 37 H 4.058758 3.892498 1.950864 0
M  V30 38 H 2.936528 2.674959 2.604308 0
M  V30 39 H 2.079452 4.828879 1.335585 0
M  V30 40 H 1.200725 3.321972 1.087930 0
M  V30 41 H 1.782410 4.415701 -1.060387 0
M  V30 42 H 3.542274 4.119423 -0.616799 0
M  V30 43 H 1.254010 2.098318 -0.986583 0
M  V30 44 H 2.623463 2.313414 -2.084461 0
M  V30 45 H -1.521010 -3.448132 3.402010 0
M  V30 46 H -1.865025 -0.762241 2.545165 0
M  V30 47 H -3.136183 -1.956085 2.732089 0
M  V30 48 H -3.667590 -3.531495 1.056787 0
M  V30 49 H -1.975541 -4.038043 0.526758 0
M  V30 50 H -3.497382 -4.417931 -1.268918 0
M  V30 51 H -1.265950 -3.591778 -1.872733 0
M  V30 52 H -2.586165 -2.909262 -2.980673 0
M  V30 53 H -0.891190 -1.188489 -2.183894 0
M  V30 54 H -0.544046 -2.440595 -0.101102 0
M  V30 55 H -0.759620 -0.593762 0.010755 0
M  V30 56 H -2.500631 0.371788 -1.166368 0
M  V30 57 H -2.669092 0.701523 -3.304718 0
M  V30 58 H -2.788700 -0.927190 -3.678593 0
M  V30 59 H -4.913817 -0.422258 -1.020562 0
M  V30 60 H -5.340952 -2.706564 -0.728186 0
M  V30 61 H -4.596657 -2.443373 -2.393210 0
M  V30 62 H -4.411146 -1.474949 1.153251 0
M  V30 63 H -3.417599 0.006972 0.885229 0
M  V30 END ATOM
M  V30 BEGIN BOND
M  V30 1 3 1 2
M  V30 2 1 2 3
M  V30 3 2 3 4
M  V30 4 1 4 5
M  V30 5 2 5 6
M  V30 6 1 6 7
M  V30 7 1 7 8
M  V30 8 1 8 9
M  V30 9 1 9 10
M  V30 10 1 10 11
M  V30 11 1 11 12
M  V30 12 1 12 13
M  V30 13 1 13 14
M  V30 14 1 6 15
M  V30 15 2 15 16
M  V30 16 1 16 17
M  V30 17 1 17 18
M  V30 18 1 19 18 CFG=1
M  V30 19 1 19 20
M  V30 20 1 20 21
M  V30 21 1 21 22
M  V30 22 1 22 23
M  V30 23 1 23 24
M  V30 24 1 23 25
M  V30 25 1 25 26
M  V30 26 1 25 27
M  V30 27 1 27 28
M  V30 28 1 27 29
M  V30 29 1 16 3
M  V30 30 1 24 19
M  V30 31 1 14 9
M  V30 32 1 29 19
M  V30 33 1 28 21
M  V30 34 1 4 30
M  V30 35 1 7 31
M  V30 36 1 8 32
M  V30 37 1 8 33
M  V30 38 1 9 34
M  V30 39 1 10 35
M  V30 40 1 10 36
M  V30 41 1 11 37
M  V30 42 1 11 38
M  V30 43 1 12 39
M  V30 44 1 12 40
M  V30 45 1 13 41
M  V30 46 1 13 42
M  V30 47 1 14 43
M  V30 48 1 14 44
M  V30 49 1 17 45
M  V30 50 1 18 46
M  V30 51 1 18 47
M  V30 52 1 20 48
M  V30 53 1 20 49
M  V30 54 1 21 50 CFG=3
M  V30 55 1 22 51
M  V30 56 1 22 52
M  V30 57 1 23 53 CFG=3
M  V30 58 1 24 54
M  V30 59 1 24 55
M  V30 60 1 25 56 CFG=1
M  V30 61 1 26 57
M  V30 62 1 26 58
M  V30 63 1 27 59 CFG=1
M  V30 64 1 28 60
M  V30 65 1 28 61
M  V30 66 1 29 62
M  V30 67 1 29 63
M  V30 END BOND
M  V30 END CTAB
M  END
>  <Dataset>  (683) 
ChEMBL_Kinases

>  <Ligand_Instance>  (683) 
nan

>  <PDB_ID>  (683) 
nan

>  <Standardized_SMILES>  (683) 
N#Cc1cnc(NCC2CCCCC2)nc1NC[C@]12C[C@@H]3C[C@H](C1)[C@@H](N)[C@@H](C3)C2

>  <Name>  (683) 
nan

>  <Pocket>  (683) 
nan

>  <ATP_Site>  (683) 
nan

>  <Peripheral>  (683) 
nan

>  <Num_H_Atoms_ProtBoundConf>  (683) 
nan

>  <Num_Resolved_Atoms>  (683) 
nan

>  <Num_Not_Resolved_Atoms>  (683) 
nan

$$$$
CHEMBL4282790
     RDKit          3D

  0  0  0  0  0  0  0  0  0  0999 V3000
M  V30 BEGIN CTAB
M  V30 COUNTS 43 46 0 0 0
M  V30 BEGIN ATOM
M  V30 1 N -1.717967 -6.860348 1.577073 0
M  V30 2 C -1.667037 -5.446321 1.518824 0
M  V30 3 N -0.502386 -4.910077 1.110930 0
M  V30 4 C -0.318147 -3.583132 1.009398 0
M  V30 5 O 0.791294 -3.005248 0.618616 0
M  V30 6 C 0.913787 -1.692464 0.538273 0
M  V30 7 C 2.116956 -1.117546 0.116049 0
M  V30 8 C 2.168345 0.264294 0.057407 0
M  V30 9 C 1.108677 1.109641 0.389039 0
M  V30 10 C 1.272591 2.602532 0.295044 0
M  V30 11 C 1.660495 3.082146 -1.026931 0
M  V30 12 C 3.071482 3.468184 -1.294878 0
M  V30 13 S 3.896581 4.192683 0.093543 0
M  V30 14 O 5.366773 4.203016 -0.136685 0
M  V30 15 O 3.358143 5.582468 0.276333 0
M  V30 16 C 3.437512 3.166256 1.493058 0
M  V30 17 C 1.951969 3.146307 1.497136 0
M  V30 18 C -0.061726 0.458842 0.802399 0
M  V30 19 C -0.171535 -0.911591 0.880264 0
M  V30 20 C -1.364447 -1.468128 1.298559 0
M  V30 21 O -2.329884 -0.731793 1.601770 0
M  V30 22 C -1.436119 -2.845095 1.363858 0
M  V30 23 C -2.647110 -3.346081 1.786447 0
M  V30 24 C -2.779454 -4.714826 1.871617 0
M  V30 25 C -4.036413 -5.304124 2.314190 0
M  V30 26 O -5.041809 -4.617717 2.633039 0
M  V30 27 O -4.193824 -6.680101 2.408953 0
M  V30 28 H -1.750984 -7.870852 1.621656 0
M  V30 29 H -2.465755 -7.275240 0.953168 0
M  V30 30 H 2.924333 -1.756541 -0.136529 0
M  V30 31 H 3.109400 0.629821 -0.274125 0
M  V30 32 H 0.190991 2.933399 0.452082 0
M  V30 33 H 1.437716 2.249502 -1.758905 0
M  V30 34 H 1.011734 3.910681 -1.378768 0
M  V30 35 H 3.116634 4.219958 -2.111854 0
M  V30 36 H 3.727887 2.644375 -1.658002 0
M  V30 37 H 3.906771 2.189384 1.332378 0
M  V30 38 H 3.767994 3.646377 2.442142 0
M  V30 39 H 1.570053 2.547792 2.372684 0
M  V30 40 H 1.618600 4.217499 1.630484 0
M  V30 41 H -0.900615 1.123737 1.065002 0
M  V30 42 H -3.475668 -2.708563 2.046496 0
M  V30 43 H -4.660874 -7.122487 3.197557 0
M  V30 END ATOM
M  V30 BEGIN BOND
M  V30 1 1 1 2
M  V30 2 2 2 3
M  V30 3 1 3 4
M  V30 4 1 4 5
M  V30 5 1 5 6
M  V30 6 2 6 7
M  V30 7 1 7 8
M  V30 8 2 8 9
M  V30 9 1 9 10
M  V30 10 1 10 11
M  V30 11 1 11 12
M  V30 12 1 12 13
M  V30 13 2 13 14
M  V30 14 2 13 15
M  V30 15 1 13 16
M  V30 16 1 16 17
M  V30 17 1 9 18
M  V30 18 2 18 19
M  V30 19 1 19 20
M  V30 20 2 20 21
M  V30 21 1 20 22
M  V30 22 1 22 23
M  V30 23 2 23 24
M  V30 24 1 24 25
M  V30 25 2 25 26
M  V30 26 1 25 27
M  V30 27 1 24 2
M  V30 28 2 22 4
M  V30 29 1 19 6
M  V30 30 1 17 10
M  V30 31 1 1 28
M  V30 32 1 1 29
M  V30 33 1 7 30
M  V30 34 1 8 31
M  V30 35 1 10 32
M  V30 36 1 11 33
M  V30 37 1 11 34
M  V30 38 1 12 35
M  V30 39 1 12 36
M  V30 40 1 16 37
M  V30 41 1 16 38
M  V30 42 1 17 39
M  V30 43 1 17 40
M  V30 44 1 18 41
M  V30 45 1 23 42
M  V30 46 1 27 43
M  V30 END BOND
M  V30 END CTAB
M  END
>  <Dataset>  (684) 
ChEMBL_Kinases

>  <Ligand_Instance>  (684) 
nan

>  <PDB_ID>  (684) 
nan

>  <Standardized_SMILES>  (684) 
Nc1nc2oc3ccc(C4CCS(=O)(=O)CC4)cc3c(=O)c2cc1C(=O)O

>  <Name>  (684) 
nan

>  <Pocket>  (684) 
nan

>  <ATP_Site>  (684) 
nan

>  <Peripheral>  (684) 
nan

>  <Num_H_Atoms_ProtBoundConf>  (684) 
nan

>  <Num_Resolved_Atoms>  (684) 
nan

>  <Num_Not_Resolved_Atoms>  (684) 
nan

$$$$
CHEMBL4282775
     RDKit          3D

  0  0  0  0  0  0  0  0  0  0999 V3000
M  V30 BEGIN CTAB
M  V30 COUNTS 54 58 0 0 0
M  V30 BEGIN ATOM
M  V30 1 O 0.350246 -3.139194 2.123761 0
M  V30 2 C -0.228836 -2.267915 1.379796 0
M  V30 3 N 0.177447 -0.934297 1.635865 0
M  V30 4 C -0.365546 0.187719 0.895584 0
M  V30 5 C 0.247484 1.520884 1.362318 0
M  V30 6 N 1.689821 1.286138 1.150232 0
M  V30 7 C 2.609220 1.824185 0.204645 0
M  V30 8 N 3.141316 0.893347 -0.640689 0
M  V30 9 C 4.022889 1.271572 -1.592925 0
M  V30 10 N 4.430339 2.556584 -1.773786 0
M  V30 11 C 3.912546 3.481879 -0.946297 0
M  V30 12 N 4.037765 4.814791 -0.779375 0
M  V30 13 N 3.276731 5.253654 0.223909 0
M  V30 14 C 2.606627 4.221587 0.772097 0
M  V30 15 Cl 1.487051 4.276963 2.115459 0
M  V30 16 C 3.011286 3.131097 0.035656 0
M  V30 17 C 2.241612 0.316560 2.110281 0
M  V30 18 C 1.167472 -0.594190 2.657641 0
M  V30 19 C -1.195858 -2.710469 0.396602 0
M  V30 20 C -2.517236 -2.093686 0.678237 0
M  V30 21 C -2.781387 -2.156447 2.042352 0
M  V30 22 C -3.970967 -1.647673 2.574961 0
M  V30 23 C -4.896280 -1.075617 1.739393 0
M  V30 24 Br -6.531853 -0.368095 2.415422 0
M  V30 25 C -4.619894 -1.021715 0.395222 0
M  V30 26 C -3.457918 -1.513893 -0.159282 0
M  V30 27 C -1.422955 -4.219536 0.580851 0
M  V30 28 C -0.449999 -5.007216 -0.269759 0
M  V30 29 N -0.639284 -4.840873 -1.680737 0
M  V30 30 C -1.403066 -3.618347 -1.931242 0
M  V30 31 C -0.769864 -2.559299 -1.035292 0
M  V30 32 H -1.449498 0.196644 0.995693 0
M  V30 33 H -0.054431 0.172557 -0.188230 0
M  V30 34 H 0.009274 1.695349 2.410262 0
M  V30 35 H -0.155057 2.263946 0.643835 0
M  V30 36 H 4.417612 0.489504 -2.241457 0
M  V30 37 H 4.673589 5.405981 -1.391264 0
M  V30 38 H 2.722185 0.898137 2.921236 0
M  V30 39 H 3.011547 -0.249539 1.589517 0
M  V30 40 H 1.648342 -1.506356 3.064418 0
M  V30 41 H 0.714694 -0.063719 3.522406 0
M  V30 42 H -2.157343 -2.574407 2.833813 0
M  V30 43 H -4.234286 -1.665805 3.619674 0
M  V30 44 H -5.293697 -0.589324 -0.325463 0
M  V30 45 H -3.141297 -1.527406 -1.175785 0
M  V30 46 H -2.470349 -4.491931 0.340648 0
M  V30 47 H -1.240812 -4.503053 1.627225 0
M  V30 48 H -0.636213 -6.074829 -0.026666 0
M  V30 49 H 0.570036 -4.690609 0.049084 0
M  V30 50 H 0.283887 -4.703851 -2.187226 0
M  V30 51 H -1.183805 -3.279361 -2.981459 0
M  V30 52 H -2.470801 -3.753624 -1.777773 0
M  V30 53 H -1.131904 -1.577976 -1.399684 0
M  V30 54 H 0.300376 -2.662278 -1.195008 0
M  V30 END ATOM
M  V30 BEGIN BOND
M  V30 1 2 1 2
M  V30 2 1 2 3
M  V30 3 1 3 4
M  V30 4 1 4 5
M  V30 5 1 5 6
M  V30 6 1 6 7
M  V30 7 2 7 8
M  V30 8 1 8 9
M  V30 9 2 9 10
M  V30 10 1 10 11
M  V30 11 1 11 12
M  V30 12 1 12 13
M  V30 13 2 13 14
M  V30 14 1 14 15
M  V30 15 1 14 16
M  V30 16 1 6 17
M  V30 17 1 17 18
M  V30 18 1 2 19
M  V30 19 1 19 20
M  V30 20 2 20 21
M  V30 21 1 21 22
M  V30 22 2 22 23
M  V30 23 1 23 24
M  V30 24 1 23 25
M  V30 25 2 25 26
M  V30 26 1 19 27
M  V30 27 1 27 28
M  V30 28 1 28 29
M  V30 29 1 29 30
M  V30 30 1 30 31
M  V30 31 1 18 3
M  V30 32 1 31 19
M  V30 33 1 16 7
M  V30 34 1 26 20
M  V30 35 2 16 11
M  V30 36 1 4 32
M  V30 37 1 4 33
M  V30 38 1 5 34
M  V30 39 1 5 35
M  V30 40 1 9 36
M  V30 41 1 12 37
M  V30 42 1 17 38
M  V30 43 1 17 39
M  V30 44 1 18 40
M  V30 45 1 18 41
M  V30 46 1 21 42
M  V30 47 1 22 43
M  V30 48 1 25 44
M  V30 49 1 26 45
M  V30 50 1 27 46
M  V30 51 1 27 47
M  V30 52 1 28 48
M  V30 53 1 28 49
M  V30 54 1 29 50
M  V30 55 1 30 51
M  V30 56 1 30 52
M  V30 57 1 31 53
M  V30 58 1 31 54
M  V30 END BOND
M  V30 END CTAB
M  END
>  <Dataset>  (685) 
ChEMBL_Kinases

>  <Ligand_Instance>  (685) 
nan

>  <PDB_ID>  (685) 
nan

>  <Standardized_SMILES>  (685) 
O=C(N1CCN(c2ncnc3[nH]nc(Cl)c23)CC1)C1(c2ccc(Br)cc2)CCNCC1

>  <Name>  (685) 
nan

>  <Pocket>  (685) 
nan

>  <ATP_Site>  (685) 
nan

>  <Peripheral>  (685) 
nan

>  <Num_H_Atoms_ProtBoundConf>  (685) 
nan

>  <Num_Resolved_Atoms>  (685) 
nan

>  <Num_Not_Resolved_Atoms>  (685) 
nan

$$$$
CHEMBL4282664
     RDKit          3D

  0  0  0  0  0  0  0  0  0  0999 V3000
M  V30 BEGIN CTAB
M  V30 COUNTS 57 61 0 0 0
M  V30 BEGIN ATOM
M  V30 1 N 1.712915 -5.435285 3.900985 0
M  V30 2 C 1.826151 -4.327589 3.556828 0
M  V30 3 C 1.967760 -2.958411 3.154230 0
M  V30 4 C 2.546398 -2.093228 4.049513 0
M  V30 5 N 2.695540 -0.802740 3.706695 0
M  V30 6 C 2.266408 -0.392924 2.477806 0
M  V30 7 N 2.408689 0.983211 2.066619 0
M  V30 8 C 1.957629 1.460467 0.758417 0
M  V30 9 C 2.288528 2.923041 0.712382 0
M  V30 10 C 3.549542 3.240387 0.207018 0
M  V30 11 C 4.031411 4.523341 0.086902 0
M  V30 12 C 3.196521 5.555253 0.499532 0
M  V30 13 Cl 3.725985 7.209163 0.382967 0
M  V30 14 C 1.945812 5.262814 1.002157 0
M  V30 15 C 1.481614 3.967617 1.114146 0
M  V30 16 N 1.706098 -1.264697 1.629330 0
M  V30 17 C 1.517192 -2.569523 1.886218 0
M  V30 18 N 0.942739 -3.517020 0.985238 0
M  V30 19 C 0.419027 -3.344089 -0.318733 0
M  V30 20 C -0.888505 -2.654223 -0.466356 0 CFG=2
M  V30 21 C -0.985892 -1.265269 0.046302 0
M  V30 22 C -2.373020 -0.714875 -0.281132 0 CFG=2
M  V30 23 C -3.443900 -1.509400 0.438709 0
M  V30 24 C -3.338192 -2.940253 0.011652 0 CFG=2
M  V30 25 C -1.943233 -3.476233 0.287354 0
M  V30 26 C -3.568652 -3.086221 -1.487909 0 CFG=1
M  V30 27 N -4.945637 -2.965766 -1.864398 0
M  V30 28 C -2.627164 -2.183813 -2.215572 0 CFG=1
M  V30 29 C -2.682522 -0.737290 -1.748451 0
M  V30 30 C -1.214981 -2.650951 -1.958970 0
M  V30 31 H 2.872421 -2.447936 5.006491 0
M  V30 32 H 2.863834 1.631199 2.777108 0
M  V30 33 H 2.441189 0.941775 -0.067805 0
M  V30 34 H 0.856272 1.314331 0.655124 0
M  V30 35 H 4.238900 2.465933 -0.128806 0
M  V30 36 H 5.003647 4.747812 -0.303975 0
M  V30 37 H 1.258916 6.042673 1.337312 0
M  V30 38 H 0.523250 3.654673 1.493756 0
M  V30 39 H 0.911446 -4.500665 1.376275 0
M  V30 40 H 1.201989 -2.805894 -0.949022 0
M  V30 41 H 0.376202 -4.351743 -0.827422 0
M  V30 42 H -0.260080 -0.552394 -0.339856 0
M  V30 43 H -0.974011 -1.276515 1.172248 0
M  V30 44 H -2.399173 0.329023 0.109737 0
M  V30 45 H -4.418182 -1.103015 0.088119 0
M  V30 46 H -3.327543 -1.475089 1.532213 0
M  V30 47 H -4.044181 -3.581717 0.545974 0
M  V30 48 H -1.855820 -4.534170 0.037173 0
M  V30 49 H -1.756359 -3.260395 1.364199 0
M  V30 50 H -3.244103 -4.135246 -1.719948 0
M  V30 51 H -5.241059 -3.716632 -2.552708 0
M  V30 52 H -5.236187 -2.012012 -2.160588 0
M  V30 53 H -2.824198 -2.222555 -3.294003 0
M  V30 54 H -3.653248 -0.266422 -1.899716 0
M  V30 55 H -1.916199 -0.200773 -2.346957 0
M  V30 56 H -0.956390 -3.592342 -2.451263 0
M  V30 57 H -0.553577 -1.841147 -2.382044 0
M  V30 END ATOM
M  V30 BEGIN BOND
M  V30 1 3 1 2
M  V30 2 1 2 3
M  V30 3 2 3 4
M  V30 4 1 4 5
M  V30 5 2 5 6
M  V30 6 1 6 7
M  V30 7 1 7 8
M  V30 8 1 8 9
M  V30 9 2 9 10
M  V30 10 1 10 11
M  V30 11 2 11 12
M  V30 12 1 12 13
M  V30 13 1 12 14
M  V30 14 2 14 15
M  V30 15 1 6 16
M  V30 16 2 16 17
M  V30 17 1 17 18
M  V30 18 1 18 19
M  V30 19 1 20 19 CFG=3
M  V30 20 1 20 21
M  V30 21 1 21 22
M  V30 22 1 22 23
M  V30 23 1 23 24
M  V30 24 1 24 25
M  V30 25 1 24 26
M  V30 26 1 26 27
M  V30 27 1 26 28
M  V30 28 1 28 29
M  V30 29 1 28 30
M  V30 30 1 17 3
M  V30 31 1 25 20
M  V30 32 1 15 9
M  V30 33 1 30 20
M  V30 34 1 29 22
M  V30 35 1 4 31
M  V30 36 1 7 32
M  V30 37 1 8 33
M  V30 38 1 8 34
M  V30 39 1 10 35
M  V30 40 1 11 36
M  V30 41 1 14 37
M  V30 42 1 15 38
M  V30 43 1 18 39
M  V30 44 1 19 40
M  V30 45 1 19 41
M  V30 46 1 21 42
M  V30 47 1 21 43
M  V30 48 1 22 44 CFG=1
M  V30 49 1 23 45
M  V30 50 1 23 46
M  V30 51 1 24 47 CFG=1
M  V30 52 1 25 48
M  V30 53 1 25 49
M  V30 54 1 26 50 CFG=3
M  V30 55 1 27 51
M  V30 56 1 27 52
M  V30 57 1 28 53 CFG=3
M  V30 58 1 29 54
M  V30 59 1 29 55
M  V30 60 1 30 56
M  V30 61 1 30 57
M  V30 END BOND
M  V30 END CTAB
M  END
>  <Dataset>  (686) 
ChEMBL_Kinases

>  <Ligand_Instance>  (686) 
nan

>  <PDB_ID>  (686) 
nan

>  <Standardized_SMILES>  (686) 
N#Cc1cnc(NCc2ccc(Cl)cc2)nc1NC[C@]12C[C@@H]3C[C@H](C1)[C@@H](N)[C@@H](C3)C2

>  <Name>  (686) 
nan

>  <Pocket>  (686) 
nan

>  <ATP_Site>  (686) 
nan

>  <Peripheral>  (686) 
nan

>  <Num_H_Atoms_ProtBoundConf>  (686) 
nan

>  <Num_Resolved_Atoms>  (686) 
nan

>  <Num_Not_Resolved_Atoms>  (686) 
nan

$$$$
CHEMBL4282644
     RDKit          3D

  0  0  0  0  0  0  0  0  0  0999 V3000
M  V30 BEGIN CTAB
M  V30 COUNTS 48 50 0 0 0
M  V30 BEGIN ATOM
M  V30 1 C -0.723144 -4.768395 -1.219476 0
M  V30 2 O -0.032584 -3.571763 -1.141748 0
M  V30 3 C 0.642111 -2.991520 -2.272656 0
M  V30 4 C 0.712633 -3.486188 -3.542529 0
M  V30 5 C 1.439170 -2.697676 -4.419445 0
M  V30 6 C 1.994462 -1.520647 -3.896906 0
M  V30 7 C 2.724395 -0.827163 -4.989767 0
M  V30 8 N 3.350654 0.427552 -4.760082 0
M  V30 9 O 2.776952 -1.355613 -6.090692 0
M  V30 10 C 1.761624 -1.233639 -2.504255 0
M  V30 11 C 0.984980 -2.030111 -1.475450 0
M  V30 12 C 1.359505 -0.984138 -0.611288 0
M  V30 13 O 0.504952 -1.626790 0.079185 0
M  V30 14 N 1.933542 0.119073 -0.046428 0
M  V30 15 C 1.561265 0.501256 1.261617 0
M  V30 16 C 2.262730 1.591160 1.705571 0
M  V30 17 C 1.950117 2.050921 2.992696 0
M  V30 18 C 0.981583 1.433386 3.771114 0
M  V30 19 C 0.313799 0.342160 3.261559 0
M  V30 20 C -0.739370 -0.508734 3.806421 0
M  V30 21 N -0.744509 -1.833872 4.024436 0
M  V30 22 N -1.907192 -2.221127 4.520945 0
M  V30 23 C -2.658860 -1.107196 4.620559 0
M  V30 24 N -1.944728 -0.043728 4.180128 0
M  V30 25 C -2.516460 1.296957 4.175546 0
M  V30 26 C -3.931108 1.320926 3.608785 0
M  V30 27 C -2.633330 1.866226 5.579333 0
M  V30 28 N 0.644545 -0.064709 2.026859 0
M  V30 29 H 0.008273 -5.592742 -1.028702 0
M  V30 30 H -1.252827 -4.941534 -2.174629 0
M  V30 31 H -1.431585 -4.784342 -0.348427 0
M  V30 32 H 0.159114 -4.419846 -3.558099 0
M  V30 33 H 1.426000 -3.181448 -5.376134 0
M  V30 34 H 3.078174 1.331935 -4.330959 0
M  V30 35 H 4.349942 0.606671 -5.051679 0
M  V30 36 H 2.362043 -0.280644 -2.618860 0
M  V30 37 H 2.544301 0.406685 -0.798445 0
M  V30 38 H 3.013202 2.071563 1.112501 0
M  V30 39 H 2.438098 2.888871 3.441445 0
M  V30 40 H 0.652948 1.692061 4.767476 0
M  V30 41 H -3.676837 -1.223362 5.017460 0
M  V30 42 H -1.934585 2.001734 3.555434 0
M  V30 43 H -4.083574 0.609282 2.796952 0
M  V30 44 H -4.712701 1.174083 4.408758 0
M  V30 45 H -4.170258 2.327591 3.184301 0
M  V30 46 H -1.982857 1.328795 6.292260 0
M  V30 47 H -2.438947 2.964454 5.578202 0
M  V30 48 H -3.671631 1.776376 5.981839 0
M  V30 END ATOM
M  V30 BEGIN BOND
M  V30 1 1 1 2
M  V30 2 1 2 3
M  V30 3 2 3 4
M  V30 4 1 4 5
M  V30 5 2 5 6
M  V30 6 1 6 7
M  V30 7 1 7 8
M  V30 8 2 7 9
M  V30 9 1 6 10
M  V30 10 2 10 11
M  V30 11 1 11 12
M  V30 12 2 12 13
M  V30 13 1 12 14
M  V30 14 1 14 15
M  V30 15 2 15 16
M  V30 16 1 16 17
M  V30 17 2 17 18
M  V30 18 1 18 19
M  V30 19 1 19 20
M  V30 20 2 20 21
M  V30 21 1 21 22
M  V30 22 2 22 23
M  V30 23 1 23 24
M  V30 24 1 24 25
M  V30 25 1 25 26
M  V30 26 1 25 27
M  V30 27 2 19 28
M  V30 28 1 11 3
M  V30 29 1 28 15
M  V30 30 1 24 20
M  V30 31 1 1 29
M  V30 32 1 1 30
M  V30 33 1 1 31
M  V30 34 1 4 32
M  V30 35 1 5 33
M  V30 36 1 8 34
M  V30 37 1 8 35
M  V30 38 1 10 36
M  V30 39 1 14 37
M  V30 40 1 16 38
M  V30 41 1 17 39
M  V30 42 1 18 40
M  V30 43 1 23 41
M  V30 44 1 25 42
M  V30 45 1 26 43
M  V30 46 1 26 44
M  V30 47 1 26 45
M  V30 48 1 27 46
M  V30 49 1 27 47
M  V30 50 1 27 48
M  V30 END BOND
M  V30 END CTAB
M  END
>  <Dataset>  (687) 
ChEMBL_Kinases

>  <Ligand_Instance>  (687) 
nan

>  <PDB_ID>  (687) 
nan

>  <Standardized_SMILES>  (687) 
COc1ccc(C(N)=O)cc1C(=O)Nc1cccc(-c2nncn2C(C)C)n1

>  <Name>  (687) 
nan

>  <Pocket>  (687) 
nan

>  <ATP_Site>  (687) 
nan

>  <Peripheral>  (687) 
nan

>  <Num_H_Atoms_ProtBoundConf>  (687) 
nan

>  <Num_Resolved_Atoms>  (687) 
nan

>  <Num_Not_Resolved_Atoms>  (687) 
nan

$$$$
CHEMBL4282601
     RDKit          3D

  0  0  0  0  0  0  0  0  0  0999 V3000
M  V30 BEGIN CTAB
M  V30 COUNTS 79 83 0 0 0
M  V30 BEGIN ATOM
M  V30 1 C -4.103706 -3.677033 1.249648 0
M  V30 2 C -4.165896 -2.389331 0.530237 0
M  V30 3 C -5.280818 -1.591422 0.373753 0
M  V30 4 C -5.241953 -0.394650 -0.320478 0
M  V30 5 C -4.061501 0.033340 -0.882439 0
M  V30 6 C -4.086914 1.294954 -1.592663 0
M  V30 7 O -5.214615 1.884902 -1.715426 0
M  V30 8 N -2.946669 1.890006 -2.141520 0
M  V30 9 C -2.555893 3.031422 -2.858332 0
M  V30 10 C -2.479077 3.171717 -4.238898 0
M  V30 11 C -2.073721 4.375033 -4.816357 0
M  V30 12 C -1.744235 5.442975 -3.993532 0
M  V30 13 C -1.296099 6.778006 -4.518305 0
M  V30 14 F -2.178062 7.752299 -4.100386 0
M  V30 15 F -0.072626 7.119514 -3.934330 0
M  V30 16 F -1.164426 6.761276 -5.871692 0
M  V30 17 C -1.796809 5.379052 -2.605046 0
M  V30 18 Cl -1.390384 6.698210 -1.551915 0
M  V30 19 C -2.211054 4.141521 -2.117299 0
M  V30 20 C -2.943329 -0.758835 -0.730331 0
M  V30 21 C -2.988951 -1.969382 -0.026426 0
M  V30 22 N -1.704820 -2.630349 -0.000784 0
M  V30 23 C -1.447924 -3.550115 -1.035627 0
M  V30 24 O -2.464332 -3.608432 -1.824291 0
M  V30 25 C -0.346011 -4.436877 -1.436206 0
M  V30 26 C 0.864460 -4.455851 -0.577076 0
M  V30 27 C 0.855068 -4.573239 0.789890 0
M  V30 28 C 2.014150 -4.587969 1.531142 0
M  V30 29 N 2.137859 -4.694968 2.939207 0
M  V30 30 C 2.273729 -3.376855 3.509362 0
M  V30 31 C 1.052101 -2.515116 3.193698 0
M  V30 32 C 1.173557 -1.131685 3.766509 0
M  V30 33 N 2.311814 -0.468261 3.250238 0
M  V30 34 C 2.504536 0.856223 3.845420 0
M  V30 35 C 3.611248 1.546140 3.092919 0
M  V30 36 N 4.536757 0.609264 2.536562 0
M  V30 37 C 5.753222 1.219194 2.065631 0
M  V30 38 C 3.905097 -0.176389 1.514379 0
M  V30 39 C 2.412148 -0.287838 1.844560 0
M  V30 40 N 3.193418 -4.483763 0.891807 0
M  V30 41 C 3.241163 -4.367339 -0.442276 0
M  V30 42 N 2.088018 -4.356999 -1.128044 0
M  V30 43 C -0.025600 -4.339657 -2.939744 0
M  V30 44 C -0.593708 -5.569506 -2.367676 0
M  V30 45 H -4.092138 -4.561905 0.580929 0
M  V30 46 H -5.043481 -3.790829 1.866355 0
M  V30 47 H -3.288135 -3.692709 2.002918 0
M  V30 48 H -6.195826 -1.945678 0.822451 0
M  V30 49 H -6.184683 0.167228 -0.388246 0
M  V30 50 H -2.001811 1.454483 -2.071233 0
M  V30 51 H -2.747379 2.309267 -4.830256 0
M  V30 52 H -2.010325 4.491022 -5.878202 0
M  V30 53 H -2.251269 4.094243 -1.016348 0
M  V30 54 H -2.039561 -0.373129 -1.194707 0
M  V30 55 H -0.886860 -2.569259 0.643416 0
M  V30 56 H -0.070577 -4.666357 1.321483 0
M  V30 57 H 2.138100 -5.560630 3.522187 0
M  V30 58 H 3.207721 -2.862301 3.230577 0
M  V30 59 H 2.296810 -3.498982 4.623200 0
M  V30 60 H 0.959301 -2.461232 2.110829 0
M  V30 61 H 0.149374 -3.044426 3.593001 0
M  V30 62 H 1.178286 -1.154708 4.889960 0
M  V30 63 H 0.217450 -0.601820 3.491541 0
M  V30 64 H 2.662609 0.751692 4.918987 0
M  V30 65 H 1.558608 1.429490 3.684349 0
M  V30 66 H 4.120432 2.242075 3.814880 0
M  V30 67 H 3.200030 2.160537 2.238455 0
M  V30 68 H 6.002269 0.726885 1.082198 0
M  V30 69 H 5.696351 2.302770 1.895491 0
M  V30 70 H 6.591910 0.958439 2.741472 0
M  V30 71 H 4.070042 0.240703 0.521614 0
M  V30 72 H 4.296164 -1.222220 1.545171 0
M  V30 73 H 1.917744 -1.029522 1.234324 0
M  V30 74 H 1.977752 0.706124 1.514738 0
M  V30 75 H 4.148714 -4.277107 -1.048527 0
M  V30 76 H -0.700403 -3.754847 -3.584372 0
M  V30 77 H 1.025556 -4.258333 -3.237941 0
M  V30 78 H -1.637490 -5.853384 -2.607395 0
M  V30 79 H 0.105954 -6.425048 -2.287362 0
M  V30 END ATOM
M  V30 BEGIN BOND
M  V30 1 1 1 2
M  V30 2 2 2 3
M  V30 3 1 3 4
M  V30 4 2 4 5
M  V30 5 1 5 6
M  V30 6 2 6 7
M  V30 7 1 6 8
M  V30 8 1 8 9
M  V30 9 2 9 10
M  V30 10 1 10 11
M  V30 11 2 11 12
M  V30 12 1 12 13
M  V30 13 1 13 14
M  V30 14 1 13 15
M  V30 15 1 13 16
M  V30 16 1 12 17
M  V30 17 1 17 18
M  V30 18 2 17 19
M  V30 19 1 5 20
M  V30 20 2 20 21
M  V30 21 1 21 22
M  V30 22 1 22 23
M  V30 23 2 23 24
M  V30 24 1 23 25
M  V30 25 1 25 26
M  V30 26 2 26 27
M  V30 27 1 27 28
M  V30 28 1 28 29
M  V30 29 1 29 30
M  V30 30 1 30 31
M  V30 31 1 31 32
M  V30 32 1 32 33
M  V30 33 1 33 34
M  V30 34 1 34 35
M  V30 35 1 35 36
M  V30 36 1 36 37
M  V30 37 1 36 38
M  V30 38 1 38 39
M  V30 39 2 28 40
M  V30 40 1 40 41
M  V30 41 2 41 42
M  V30 42 1 25 43
M  V30 43 1 43 44
M  V30 44 1 21 2
M  V30 45 1 44 25
M  V30 46 1 19 9
M  V30 47 1 42 26
M  V30 48 1 39 33
M  V30 49 1 1 45
M  V30 50 1 1 46
M  V30 51 1 1 47
M  V30 52 1 3 48
M  V30 53 1 4 49
M  V30 54 1 8 50
M  V30 55 1 10 51
M  V30 56 1 11 52
M  V30 57 1 19 53
M  V30 58 1 20 54
M  V30 59 1 22 55
M  V30 60 1 27 56
M  V30 61 1 29 57
M  V30 62 1 30 58
M  V30 63 1 30 59
M  V30 64 1 31 60
M  V30 65 1 31 61
M  V30 66 1 32 62
M  V30 67 1 32 63
M  V30 68 1 34 64
M  V30 69 1 34 65
M  V30 70 1 35 66
M  V30 71 1 35 67
M  V30 72 1 37 68
M  V30 73 1 37 69
M  V30 74 1 37 70
M  V30 75 1 38 71
M  V30 76 1 38 72
M  V30 77 1 39 73
M  V30 78 1 39 74
M  V30 79 1 41 75
M  V30 80 1 43 76
M  V30 81 1 43 77
M  V30 82 1 44 78
M  V30 83 1 44 79
M  V30 END BOND
M  V30 END CTAB
M  END
>  <Dataset>  (688) 
ChEMBL_Kinases

>  <Ligand_Instance>  (688) 
nan

>  <PDB_ID>  (688) 
nan

>  <Standardized_SMILES>  (688) 
Cc1ccc(C(=O)Nc2ccc(C(F)(F)F)c(Cl)c2)cc1NC(=O)C1(c2cc(NCCCN3CCN(C)CC3)ncn2)CC1

>  <Name>  (688) 
nan

>  <Pocket>  (688) 
nan

>  <ATP_Site>  (688) 
nan

>  <Peripheral>  (688) 
nan

>  <Num_H_Atoms_ProtBoundConf>  (688) 
nan

>  <Num_Resolved_Atoms>  (688) 
nan

>  <Num_Not_Resolved_Atoms>  (688) 
nan

$$$$
CHEMBL4282551
     RDKit          3D

  0  0  0  0  0  0  0  0  0  0999 V3000
M  V30 BEGIN CTAB
M  V30 COUNTS 68 74 0 0 0
M  V30 BEGIN ATOM
M  V30 1 C 0.602151 -7.056696 -2.927496 0
M  V30 2 N 1.158907 -5.920631 -3.633385 0
M  V30 3 C 2.523933 -5.744531 -3.224983 0
M  V30 4 C 0.337913 -4.725307 -3.377773 0
M  V30 5 C 0.909905 -3.537368 -4.099804 0
M  V30 6 O 0.249717 -2.338586 -3.957710 0
M  V30 7 C 0.083767 -1.649943 -2.802981 0
M  V30 8 C -0.663672 -0.493629 -3.083265 0
M  V30 9 C -1.002324 0.431348 -2.088546 0
M  V30 10 C -1.780775 1.641679 -2.331876 0
M  V30 11 N -2.290168 2.051593 -3.504915 0
M  V30 12 C -2.961494 3.231959 -3.350877 0
M  V30 13 C -2.815883 3.501518 -1.989325 0
M  V30 14 C -3.352978 4.664859 -1.286911 0
M  V30 15 C -4.086516 5.633041 -1.937461 0
M  V30 16 C -4.537202 6.685847 -1.157028 0
M  V30 17 C -4.306774 6.827592 0.195218 0
M  V30 18 C -4.792826 7.941566 0.975705 0
M  V30 19 C -4.596837 8.125575 2.313730 0
M  V30 20 N -5.199260 9.279236 2.686543 0
M  V30 21 C -5.757528 9.787581 1.570665 0
M  V30 22 O -5.494890 8.973444 0.595911 0
M  V30 23 C -3.564371 5.819242 0.780141 0
M  V30 24 N -3.121876 4.792666 0.032514 0
M  V30 25 O -2.115623 2.531589 -1.455805 0
M  V30 26 N -0.582416 0.172278 -0.840511 0
M  V30 27 C 0.132621 -0.909467 -0.505623 0
M  V30 28 C 0.574572 -1.181200 0.855839 0
M  V30 29 N 0.304203 -0.320813 1.866478 0
M  V30 30 C 0.816618 -0.797247 3.013302 0
M  V30 31 C 1.422306 -2.000111 2.671611 0
M  V30 32 C 2.111822 -2.863234 3.627304 0
M  V30 33 C 2.698080 -4.055726 3.259228 0
M  V30 34 C 3.353495 -4.874088 4.187672 0
M  V30 35 C 3.413574 -4.468213 5.522877 0
M  V30 36 C 4.064156 -5.241016 6.565817 0
M  V30 37 C 4.705983 -6.453516 6.435584 0
M  V30 38 N 5.189180 -6.862336 7.635659 0
M  V30 39 C 4.822452 -5.871887 8.476166 0
M  V30 40 O 4.161268 -4.922227 7.839501 0
M  V30 41 C 2.815397 -3.270017 5.846620 0
M  V30 42 N 2.195968 -2.515166 4.921769 0
M  V30 43 O 1.244425 -2.169522 1.385594 0
M  V30 44 C 0.456191 -1.805607 -1.491648 0
M  V30 45 H -0.494843 -6.899676 -2.854807 0
M  V30 46 H 0.775573 -7.983200 -3.507640 0
M  V30 47 H 1.068344 -7.134131 -1.920113 0
M  V30 48 H 3.169434 -5.360665 -4.060900 0
M  V30 49 H 2.913770 -6.763259 -2.972881 0
M  V30 50 H 2.649883 -5.114745 -2.331793 0
M  V30 51 H 0.217930 -4.533872 -2.326650 0
M  V30 52 H -0.672218 -4.992059 -3.798329 0
M  V30 53 H 1.992723 -3.485762 -3.760419 0
M  V30 54 H 1.039423 -3.784241 -5.205688 0
M  V30 55 H -1.064910 -0.164567 -4.052244 0
M  V30 56 H -3.485762 3.829452 -4.089421 0
M  V30 57 H -4.285970 5.555268 -2.996611 0
M  V30 58 H -5.123516 7.473033 -1.640093 0
M  V30 59 H -4.040612 7.433537 2.941308 0
M  V30 60 H -6.345482 10.669899 1.299639 0
M  V30 61 H -3.324107 5.830698 1.842560 0
M  V30 62 H 0.765720 -0.338835 3.991005 0
M  V30 63 H 2.669780 -4.393838 2.245028 0
M  V30 64 H 3.808890 -5.798673 3.912535 0
M  V30 65 H 4.830397 -7.030270 5.529245 0
M  V30 66 H 4.960414 -5.710089 9.535755 0
M  V30 67 H 2.796077 -2.850289 6.843080 0
M  V30 68 H 1.036650 -2.679108 -1.301321 0
M  V30 END ATOM
M  V30 BEGIN BOND
M  V30 1 1 1 2
M  V30 2 1 2 3
M  V30 3 1 2 4
M  V30 4 1 4 5
M  V30 5 1 5 6
M  V30 6 1 6 7
M  V30 7 2 7 8
M  V30 8 1 8 9
M  V30 9 1 9 10
M  V30 10 2 10 11
M  V30 11 1 11 12
M  V30 12 2 12 13
M  V30 13 1 13 14
M  V30 14 2 14 15
M  V30 15 1 15 16
M  V30 16 2 16 17
M  V30 17 1 17 18
M  V30 18 2 18 19
M  V30 19 1 19 20
M  V30 20 2 20 21
M  V30 21 1 21 22
M  V30 22 1 17 23
M  V30 23 2 23 24
M  V30 24 1 13 25
M  V30 25 2 9 26
M  V30 26 1 26 27
M  V30 27 1 27 28
M  V30 28 2 28 29
M  V30 29 1 29 30
M  V30 30 2 30 31
M  V30 31 1 31 32
M  V30 32 2 32 33
M  V30 33 1 33 34
M  V30 34 2 34 35
M  V30 35 1 35 36
M  V30 36 2 36 37
M  V30 37 1 37 38
M  V30 38 2 38 39
M  V30 39 1 39 40
M  V30 40 1 35 41
M  V30 41 2 41 42
M  V30 42 1 31 43
M  V30 43 2 27 44
M  V30 44 1 44 7
M  V30 45 1 25 10
M  V30 46 1 43 28
M  V30 47 1 24 14
M  V30 48 1 42 32
M  V30 49 1 22 18
M  V30 50 1 40 36
M  V30 51 1 1 45
M  V30 52 1 1 46
M  V30 53 1 1 47
M  V30 54 1 3 48
M  V30 55 1 3 49
M  V30 56 1 3 50
M  V30 57 1 4 51
M  V30 58 1 4 52
M  V30 59 1 5 53
M  V30 60 1 5 54
M  V30 61 1 8 55
M  V30 62 1 12 56
M  V30 63 1 15 57
M  V30 64 1 16 58
M  V30 65 1 19 59
M  V30 66 1 21 60
M  V30 67 1 23 61
M  V30 68 1 30 62
M  V30 69 1 33 63
M  V30 70 1 34 64
M  V30 71 1 37 65
M  V30 72 1 39 66
M  V30 73 1 41 67
M  V30 74 1 44 68
M  V30 END BOND
M  V30 END CTAB
M  END
>  <Dataset>  (689) 
ChEMBL_Kinases

>  <Ligand_Instance>  (689) 
nan

>  <PDB_ID>  (689) 
nan

>  <Standardized_SMILES>  (689) 
CN(C)CCOc1cc(-c2ncc(-c3ccc(-c4cnco4)cn3)o2)nc(-c2ncc(-c3ccc(-c4cnco4)cn3)o2)c1

>  <Name>  (689) 
nan

>  <Pocket>  (689) 
nan

>  <ATP_Site>  (689) 
nan

>  <Peripheral>  (689) 
nan

>  <Num_H_Atoms_ProtBoundConf>  (689) 
nan

>  <Num_Resolved_Atoms>  (689) 
nan

>  <Num_Not_Resolved_Atoms>  (689) 
nan

$$$$
CHEMBL4282545
     RDKit          3D

  0  0  0  0  0  0  0  0  0  0999 V3000
M  V30 BEGIN CTAB
M  V30 COUNTS 38 41 0 0 0
M  V30 BEGIN ATOM
M  V30 1 C 0.477968 -6.176234 1.297301 0
M  V30 2 C 0.925563 -4.766407 1.168883 0
M  V30 3 C 0.854882 -3.771392 2.114865 0
M  V30 4 C 1.395223 -2.634390 1.551697 0
M  V30 5 N 1.513223 -1.362540 2.169155 0
M  V30 6 C 0.599828 -0.378431 1.719282 0
M  V30 7 N 1.050779 0.352267 0.696093 0
M  V30 8 C 0.377109 1.344561 0.100224 0
M  V30 9 C 0.829394 2.162288 -1.016628 0
M  V30 10 C 2.065942 1.948589 -1.618266 0
M  V30 11 C 2.576216 2.682564 -2.691622 0
M  V30 12 C 1.717299 3.692369 -3.139279 0
M  V30 13 C 0.491970 3.922930 -2.559171 0
M  V30 14 C 0.034888 3.170335 -1.501897 0
M  V30 15 N -0.837172 1.564044 0.625699 0
M  V30 16 C -1.366753 0.884288 1.647293 0
M  V30 17 C -2.617199 1.197515 2.097556 0
M  V30 18 C -3.129978 0.467580 3.155316 0
M  V30 19 Cl -4.723939 0.832835 3.774074 0
M  V30 20 C -2.376593 -0.558832 3.735074 0
M  V30 21 C -1.114768 -0.878474 3.284698 0
M  V30 22 C -0.643980 -0.124565 2.229886 0
M  V30 23 N 1.791687 -2.934500 0.274627 0
M  V30 24 N 1.500817 -4.226766 0.055418 0
M  V30 25 H 0.310977 -6.447286 2.364920 0
M  V30 26 H -0.475024 -6.372038 0.771204 0
M  V30 27 H 1.252643 -6.883245 0.931703 0
M  V30 28 H 0.462058 -3.801781 3.104701 0
M  V30 29 H 2.245911 -1.235364 2.898517 0
M  V30 30 H 2.697010 1.137488 -1.225217 0
M  V30 31 H 3.520587 2.516970 -3.147009 0
M  V30 32 H 1.976736 4.337165 -3.958221 0
M  V30 33 H -0.226585 4.691891 -2.860511 0
M  V30 34 H -0.925174 3.314986 -1.013909 0
M  V30 35 H -3.208494 2.005786 1.649059 0
M  V30 36 H -2.787743 -1.134553 4.580779 0
M  V30 37 H -0.474113 -1.665131 3.689692 0
M  V30 38 H 1.713523 -4.695656 -0.873805 0
M  V30 END ATOM
M  V30 BEGIN BOND
M  V30 1 1 1 2
M  V30 2 2 2 3
M  V30 3 1 3 4
M  V30 4 1 4 5
M  V30 5 1 5 6
M  V30 6 2 6 7
M  V30 7 1 7 8
M  V30 8 1 8 9
M  V30 9 2 9 10
M  V30 10 1 10 11
M  V30 11 2 11 12
M  V30 12 1 12 13
M  V30 13 2 13 14
M  V30 14 2 8 15
M  V30 15 1 15 16
M  V30 16 2 16 17
M  V30 17 1 17 18
M  V30 18 1 18 19
M  V30 19 2 18 20
M  V30 20 1 20 21
M  V30 21 2 21 22
M  V30 22 2 4 23
M  V30 23 1 23 24
M  V30 24 1 24 2
M  V30 25 1 22 6
M  V30 26 1 14 9
M  V30 27 1 22 16
M  V30 28 1 1 25
M  V30 29 1 1 26
M  V30 30 1 1 27
M  V30 31 1 3 28
M  V30 32 1 5 29
M  V30 33 1 10 30
M  V30 34 1 11 31
M  V30 35 1 12 32
M  V30 36 1 13 33
M  V30 37 1 14 34
M  V30 38 1 17 35
M  V30 39 1 20 36
M  V30 40 1 21 37
M  V30 41 1 24 38
M  V30 END BOND
M  V30 END CTAB
M  END
>  <Dataset>  (690) 
ChEMBL_Kinases

>  <Ligand_Instance>  (690) 
nan

>  <PDB_ID>  (690) 
nan

>  <Standardized_SMILES>  (690) 
Cc1cc(Nc2nc(-c3ccccc3)nc3cc(Cl)ccc23)n[nH]1

>  <Name>  (690) 
nan

>  <Pocket>  (690) 
nan

>  <ATP_Site>  (690) 
nan

>  <Peripheral>  (690) 
nan

>  <Num_H_Atoms_ProtBoundConf>  (690) 
nan

>  <Num_Resolved_Atoms>  (690) 
nan

>  <Num_Not_Resolved_Atoms>  (690) 
nan

$$$$
CHEMBL4760435
     RDKit          3D

  0  0  0  0  0  0  0  0  0  0999 V3000
M  V30 BEGIN CTAB
M  V30 COUNTS 64 68 0 0 0
M  V30 BEGIN ATOM
M  V30 1 C 4.115826 -1.799908 6.647649 0
M  V30 2 N 4.575528 -1.174182 5.443753 0
M  V30 3 C 5.308965 -2.039951 4.571972 0
M  V30 4 C 4.492951 -2.726713 3.525660 0
M  V30 5 N 3.604483 -1.877774 2.794474 0
M  V30 6 C 3.916351 -1.864194 1.380597 0
M  V30 7 C 2.988819 -0.978644 0.625900 0
M  V30 8 C 1.802078 -1.493148 0.096842 0
M  V30 9 C 0.896672 -0.726761 -0.614778 0
M  V30 10 C 1.188791 0.614611 -0.807315 0
M  V30 11 C 0.186935 1.355642 -1.566947 0
M  V30 12 C 0.539869 2.437048 -2.383303 0
M  V30 13 N -0.378736 3.125798 -3.087789 0
M  V30 14 C -1.691187 2.806933 -3.042208 0
M  V30 15 N -2.814440 3.286092 -3.610717 0
M  V30 16 C -3.867552 2.560814 -3.194965 0
M  V30 17 C -3.445215 1.557183 -2.316050 0
M  V30 18 C -4.347735 0.600411 -1.687858 0
M  V30 19 C -5.502305 1.150218 -1.173063 0
M  V30 20 C -6.399865 0.298480 -0.564632 0
M  V30 21 C -7.627466 0.796628 -0.003065 0
M  V30 22 N -8.610488 1.207814 0.439467 0
M  V30 23 C -6.142113 -1.042960 -0.481184 0
M  V30 24 Cl -7.306777 -2.116283 0.303318 0
M  V30 25 C -4.998125 -1.630967 -0.984264 0
M  V30 26 N -4.680346 -3.009766 -0.924596 0
M  V30 27 S -3.273534 -3.740359 -1.603540 0
M  V30 28 C -3.194483 -3.546363 -3.365496 0
M  V30 29 O -2.016942 -3.187440 -1.015952 0
M  V30 30 O -3.384944 -5.235185 -1.336080 0
M  V30 31 C -4.109981 -0.768584 -1.589370 0
M  V30 32 C -2.080809 1.748268 -2.250060 0
M  V30 33 C -1.156227 1.026498 -1.517912 0
M  V30 34 C 2.347830 1.171690 -0.305098 0
M  V30 35 C 3.241922 0.371313 0.409198 0
M  V30 36 C 3.549542 -0.529681 3.321494 0
M  V30 37 C 3.490302 -0.489493 4.812733 0
M  V30 38 H 4.081317 -2.903420 6.541509 0
M  V30 39 H 4.824010 -1.491104 7.461685 0
M  V30 40 H 3.110288 -1.454270 6.973010 0
M  V30 41 H 6.130217 -1.436806 4.105178 0
M  V30 42 H 5.830550 -2.822637 5.159676 0
M  V30 43 H 3.962900 -3.599944 3.984861 0
M  V30 44 H 5.231154 -3.207017 2.823501 0
M  V30 45 H 3.711971 -2.911724 1.014623 0
M  V30 46 H 4.977962 -1.621526 1.180373 0
M  V30 47 H 1.622768 -2.559897 0.279501 0
M  V30 48 H 0.024688 -1.257429 -0.962844 0
M  V30 49 H 1.572331 2.727416 -2.450892 0
M  V30 50 H -2.788200 4.100742 -4.264575 0
M  V30 51 H -4.893487 2.715079 -3.485131 0
M  V30 52 H -5.738298 2.200107 -1.220319 0
M  V30 53 H -5.416128 -3.576048 -0.403056 0
M  V30 54 H -4.195800 -3.318156 -3.792571 0
M  V30 55 H -2.832460 -4.479222 -3.820858 0
M  V30 56 H -2.489891 -2.732134 -3.595218 0
M  V30 57 H -3.168289 -1.051258 -2.035033 0
M  V30 58 H -1.452892 0.185235 -0.886180 0
M  V30 59 H 2.535418 2.221975 -0.478761 0
M  V30 60 H 4.149396 0.810099 0.801801 0
M  V30 61 H 2.638967 -0.045229 2.940360 0
M  V30 62 H 4.498765 -0.020160 3.026778 0
M  V30 63 H 2.492922 -0.794805 5.196646 0
M  V30 64 H 3.572693 0.599667 5.092837 0
M  V30 END ATOM
M  V30 BEGIN BOND
M  V30 1 1 1 2
M  V30 2 1 2 3
M  V30 3 1 3 4
M  V30 4 1 4 5
M  V30 5 1 5 6
M  V30 6 1 6 7
M  V30 7 2 7 8
M  V30 8 1 8 9
M  V30 9 2 9 10
M  V30 10 1 10 11
M  V30 11 2 11 12
M  V30 12 1 12 13
M  V30 13 2 13 14
M  V30 14 1 14 15
M  V30 15 1 15 16
M  V30 16 2 16 17
M  V30 17 1 17 18
M  V30 18 2 18 19
M  V30 19 1 19 20
M  V30 20 1 20 21
M  V30 21 3 21 22
M  V30 22 2 20 23
M  V30 23 1 23 24
M  V30 24 1 23 25
M  V30 25 1 25 26
M  V30 26 1 26 27
M  V30 27 1 27 28
M  V30 28 2 27 29
M  V30 29 2 27 30
M  V30 30 2 25 31
M  V30 31 1 17 32
M  V30 32 2 32 33
M  V30 33 1 10 34
M  V30 34 2 34 35
M  V30 35 1 5 36
M  V30 36 1 36 37
M  V30 37 1 37 2
M  V30 38 1 35 7
M  V30 39 1 33 11
M  V30 40 1 32 14
M  V30 41 1 31 18
M  V30 42 1 1 38
M  V30 43 1 1 39
M  V30 44 1 1 40
M  V30 45 1 3 41
M  V30 46 1 3 42
M  V30 47 1 4 43
M  V30 48 1 4 44
M  V30 49 1 6 45
M  V30 50 1 6 46
M  V30 51 1 8 47
M  V30 52 1 9 48
M  V30 53 1 12 49
M  V30 54 1 15 50
M  V30 55 1 16 51
M  V30 56 1 19 52
M  V30 57 1 26 53
M  V30 58 1 28 54
M  V30 59 1 28 55
M  V30 60 1 28 56
M  V30 61 1 31 57
M  V30 62 1 33 58
M  V30 63 1 34 59
M  V30 64 1 35 60
M  V30 65 1 36 61
M  V30 66 1 36 62
M  V30 67 1 37 63
M  V30 68 1 37 64
M  V30 END BOND
M  V30 END CTAB
M  END
>  <Dataset>  (691) 
ChEMBL_Kinases

>  <Ligand_Instance>  (691) 
nan

>  <PDB_ID>  (691) 
nan

>  <Standardized_SMILES>  (691) 
CN1CCN(Cc2ccc(-c3cnc4[nH]cc(-c5cc(C#N)c(Cl)c(NS(C)(=O)=O)c5)c4c3)cc2)CC1

>  <Name>  (691) 
nan

>  <Pocket>  (691) 
nan

>  <ATP_Site>  (691) 
nan

>  <Peripheral>  (691) 
nan

>  <Num_H_Atoms_ProtBoundConf>  (691) 
nan

>  <Num_Resolved_Atoms>  (691) 
nan

>  <Num_Not_Resolved_Atoms>  (691) 
nan

$$$$
CHEMBL4282514
     RDKit          3D

  0  0  0  0  0  0  0  0  0  0999 V3000
M  V30 BEGIN CTAB
M  V30 COUNTS 54 59 0 0 0
M  V30 BEGIN ATOM
M  V30 1 C 6.436605 -4.015210 3.949757 0
M  V30 2 O 6.430369 -3.777308 2.552690 0
M  V30 3 C 5.520973 -2.919786 1.947543 0
M  V30 4 C 4.585321 -2.273242 2.740105 0
M  V30 5 C 3.688210 -1.420892 2.104640 0
M  V30 6 C 3.754787 -1.247881 0.733347 0
M  V30 7 C 2.872893 -0.382817 -0.054923 0
M  V30 8 N 3.341258 0.441920 -1.009799 0
M  V30 9 C 2.510431 1.242310 -1.736820 0
M  V30 10 C 1.129878 1.228063 -1.507135 0
M  V30 11 C 0.681962 0.374334 -0.524380 0
M  V30 12 C 1.518366 -0.432000 0.208110 0
M  V30 13 F 0.988519 -1.226599 1.140270 0
M  V30 14 C -0.760228 0.396417 -0.322968 0
M  V30 15 N -1.588098 -0.259265 0.506625 0
M  V30 16 C -2.849670 0.148646 0.266946 0
M  V30 17 C -2.814300 1.087382 -0.741805 0
M  V30 18 C -1.492963 1.248207 -1.119293 0
M  V30 19 C -1.064864 2.191104 -2.192704 0
M  V30 20 C 0.425812 2.159121 -2.394538 0
M  V30 21 C -4.117336 1.639008 -1.127879 0
M  V30 22 O -4.144061 2.500167 -2.044423 0
M  V30 23 N -5.315317 1.188759 -0.459395 0
M  V30 24 C -5.097190 0.822902 0.950212 0
M  V30 25 C -4.092050 -0.290298 0.928360 0
M  V30 26 C -3.954310 -1.114434 2.146124 0
M  V30 27 N -4.784082 -2.161304 1.532760 0
M  V30 28 C -4.087513 -3.451516 1.421299 0
M  V30 29 C -4.726187 -1.506918 0.242618 0
M  V30 30 C 4.703764 -1.911841 -0.021163 0
M  V30 31 C 5.624748 -2.777421 0.574490 0
M  V30 32 F 6.577342 -3.455215 -0.114915 0
M  V30 33 H 7.170993 -4.793464 4.177667 0
M  V30 34 H 6.745617 -3.084296 4.473555 0
M  V30 35 H 5.411169 -4.253234 4.324438 0
M  V30 36 H 4.528207 -2.402360 3.800311 0
M  V30 37 H 2.921908 -0.868926 2.619222 0
M  V30 38 H 3.040869 1.853244 -2.472658 0
M  V30 39 H -1.282153 -0.963742 1.211864 0
M  V30 40 H -1.549278 1.940639 -3.162912 0
M  V30 41 H -1.375535 3.217493 -1.889498 0
M  V30 42 H 0.611617 1.854617 -3.462538 0
M  V30 43 H 0.827839 3.196762 -2.337547 0
M  V30 44 H -6.181488 1.183344 -1.070729 0
M  V30 45 H -6.061395 0.407371 1.328501 0
M  V30 46 H -4.807888 1.686897 1.556383 0
M  V30 47 H -4.424547 -0.746633 3.080383 0
M  V30 48 H -2.924595 -1.500211 2.286367 0
M  V30 49 H -4.643271 -4.051321 0.677330 0
M  V30 50 H -3.066478 -3.203730 1.044948 0
M  V30 51 H -3.986944 -3.931712 2.408299 0
M  V30 52 H -5.733762 -1.354807 -0.155962 0
M  V30 53 H -4.040785 -1.935915 -0.497686 0
M  V30 54 H 4.807789 -1.817865 -1.104795 0
M  V30 END ATOM
M  V30 BEGIN BOND
M  V30 1 1 1 2
M  V30 2 1 2 3
M  V30 3 2 3 4
M  V30 4 1 4 5
M  V30 5 2 5 6
M  V30 6 1 6 7
M  V30 7 2 7 8
M  V30 8 1 8 9
M  V30 9 2 9 10
M  V30 10 1 10 11
M  V30 11 2 11 12
M  V30 12 1 12 13
M  V30 13 1 11 14
M  V30 14 1 14 15
M  V30 15 1 15 16
M  V30 16 2 16 17
M  V30 17 1 17 18
M  V30 18 1 18 19
M  V30 19 1 19 20
M  V30 20 1 17 21
M  V30 21 2 21 22
M  V30 22 1 21 23
M  V30 23 1 23 24
M  V30 24 1 24 25
M  V30 25 1 25 26
M  V30 26 1 26 27
M  V30 27 1 27 28
M  V30 28 1 27 29
M  V30 29 1 6 30
M  V30 30 2 30 31
M  V30 31 1 31 32
M  V30 32 1 31 3
M  V30 33 1 12 7
M  V30 34 2 18 14
M  V30 35 1 29 25
M  V30 36 1 20 10
M  V30 37 1 25 16
M  V30 38 1 1 33
M  V30 39 1 1 34
M  V30 40 1 1 35
M  V30 41 1 4 36
M  V30 42 1 5 37
M  V30 43 1 9 38
M  V30 44 1 15 39
M  V30 45 1 19 40
M  V30 46 1 19 41
M  V30 47 1 20 42
M  V30 48 1 20 43
M  V30 49 1 23 44
M  V30 50 1 24 45
M  V30 51 1 24 46
M  V30 52 1 26 47
M  V30 53 1 26 48
M  V30 54 1 28 49
M  V30 55 1 28 50
M  V30 56 1 28 51
M  V30 57 1 29 52
M  V30 58 1 29 53
M  V30 59 1 30 54
M  V30 END BOND
M  V30 END CTAB
M  END
>  <Dataset>  (692) 
ChEMBL_Kinases

>  <Ligand_Instance>  (692) 
nan

>  <PDB_ID>  (692) 
nan

>  <Standardized_SMILES>  (692) 
COc1ccc(-c2ncc3c(c2F)-c2[nH]c4c(c2CC3)C(=O)NCC42CN(C)C2)cc1F

>  <Name>  (692) 
nan

>  <Pocket>  (692) 
nan

>  <ATP_Site>  (692) 
nan

>  <Peripheral>  (692) 
nan

>  <Num_H_Atoms_ProtBoundConf>  (692) 
nan

>  <Num_Resolved_Atoms>  (692) 
nan

>  <Num_Not_Resolved_Atoms>  (692) 
nan

$$$$
CHEMBL4760344
     RDKit          3D

  0  0  0  0  0  0  0  0  0  0999 V3000
M  V30 BEGIN CTAB
M  V30 COUNTS 58 61 0 0 0
M  V30 BEGIN ATOM
M  V30 1 C -4.938520 -5.290220 -2.224356 0
M  V30 2 C -4.715022 -4.187906 -3.201604 0
M  V30 3 O -5.030512 -2.914699 -2.816736 0
M  V30 4 C -4.594534 -2.114937 -1.804623 0
M  V30 5 N -3.697880 -2.327355 -0.836936 0
M  V30 6 C -3.413425 -1.366683 0.084935 0
M  V30 7 N -2.524140 -1.351272 1.189401 0
M  V30 8 C -1.122135 -1.059017 0.982927 0
M  V30 9 C -0.694307 -0.921534 -0.344238 0
M  V30 10 C 0.601918 -0.663972 -0.731293 0
M  V30 11 C 1.539800 -0.534271 0.289226 0
M  V30 12 C 2.892751 -0.268969 -0.123542 0
M  V30 13 O 4.004038 -0.833636 0.039630 0
M  V30 14 N 3.029637 0.922463 -0.912271 0
M  V30 15 C 4.373319 1.242419 -1.368703 0
M  V30 16 C 4.703818 2.607519 -0.801719 0 CFG=1
M  V30 17 C 6.091733 3.078786 -1.178442 0
M  V30 18 O 3.822579 3.505799 -1.423945 0
M  V30 19 C 2.516254 3.312482 -1.030088 0 CFG=1
M  V30 20 C 1.658962 4.326194 -1.755696 0
M  V30 21 C 2.038959 1.892644 -1.341668 0
M  V30 22 C 1.148241 -0.665347 1.625401 0
M  V30 23 C -0.160079 -0.923032 1.968289 0
M  V30 24 O -0.648779 -1.066559 3.237221 0
M  V30 25 C 0.180650 -0.960539 4.363202 0
M  V30 26 N -4.044131 -0.177630 0.026596 0
M  V30 27 C -4.964908 0.105537 -0.926684 0
M  V30 28 N -5.713303 1.219019 -1.171988 0
M  V30 29 C -6.489573 1.019525 -2.236271 0
M  V30 30 C -6.208426 -0.257806 -2.658534 0
M  V30 31 C -5.262223 -0.883908 -1.880731 0
M  V30 32 H -4.007949 -5.490854 -1.644170 0
M  V30 33 H -5.810055 -5.109100 -1.582350 0
M  V30 34 H -5.099039 -6.261163 -2.788477 0
M  V30 35 H -5.355419 -4.418545 -4.115707 0
M  V30 36 H -3.671555 -4.302620 -3.613257 0
M  V30 37 H -2.757673 -1.534211 2.199162 0
M  V30 38 H -1.427940 -1.021780 -1.141810 0
M  V30 39 H 0.846565 -0.573916 -1.786331 0
M  V30 40 H 4.301161 1.362068 -2.490662 0
M  V30 41 H 5.114573 0.481081 -1.075340 0
M  V30 42 H 4.566607 2.636441 0.297821 0
M  V30 43 H 6.809642 2.377301 -0.741941 0
M  V30 44 H 6.200257 4.107323 -0.803453 0
M  V30 45 H 6.164810 3.028262 -2.290637 0
M  V30 46 H 2.380156 3.413727 0.079975 0
M  V30 47 H 1.028897 4.879876 -1.015993 0
M  V30 48 H 1.054343 3.864250 -2.562230 0
M  V30 49 H 2.274748 5.135618 -2.248844 0
M  V30 50 H 1.061257 1.746297 -0.886138 0
M  V30 51 H 2.030779 1.855256 -2.470413 0
M  V30 52 H 1.878013 -0.562656 2.413204 0
M  V30 53 H -0.426245 -0.805260 5.288374 0
M  V30 54 H 0.837301 -1.823266 4.538808 0
M  V30 55 H 0.846123 -0.048974 4.317075 0
M  V30 56 H -5.649003 2.080621 -0.578474 0
M  V30 57 H -7.186093 1.709371 -2.671905 0
M  V30 58 H -6.672226 -0.733062 -3.503299 0
M  V30 END ATOM
M  V30 BEGIN BOND
M  V30 1 1 1 2
M  V30 2 1 2 3
M  V30 3 1 3 4
M  V30 4 2 4 5
M  V30 5 1 5 6
M  V30 6 1 6 7
M  V30 7 1 7 8
M  V30 8 2 8 9
M  V30 9 1 9 10
M  V30 10 2 10 11
M  V30 11 1 11 12
M  V30 12 2 12 13
M  V30 13 1 12 14
M  V30 14 1 14 15
M  V30 15 1 15 16
M  V30 16 1 16 17
M  V30 17 1 16 18
M  V30 18 1 18 19
M  V30 19 1 19 20
M  V30 20 1 19 21
M  V30 21 1 11 22
M  V30 22 2 22 23
M  V30 23 1 23 24
M  V30 24 1 24 25
M  V30 25 2 6 26
M  V30 26 1 26 27
M  V30 27 1 27 28
M  V30 28 1 28 29
M  V30 29 2 29 30
M  V30 30 1 30 31
M  V30 31 1 31 4
M  V30 32 1 23 8
M  V30 33 2 31 27
M  V30 34 1 21 14
M  V30 35 1 1 32
M  V30 36 1 1 33
M  V30 37 1 1 34
M  V30 38 1 2 35
M  V30 39 1 2 36
M  V30 40 1 7 37
M  V30 41 1 9 38
M  V30 42 1 10 39
M  V30 43 1 15 40
M  V30 44 1 15 41
M  V30 45 1 16 42 CFG=1
M  V30 46 1 17 43
M  V30 47 1 17 44
M  V30 48 1 17 45
M  V30 49 1 19 46 CFG=1
M  V30 50 1 20 47
M  V30 51 1 20 48
M  V30 52 1 20 49
M  V30 53 1 21 50
M  V30 54 1 21 51
M  V30 55 1 22 52
M  V30 56 1 25 53
M  V30 57 1 25 54
M  V30 58 1 25 55
M  V30 59 1 28 56
M  V30 60 1 29 57
M  V30 61 1 30 58
M  V30 END BOND
M  V30 END CTAB
M  END
>  <Dataset>  (693) 
ChEMBL_Kinases

>  <Ligand_Instance>  (693) 
nan

>  <PDB_ID>  (693) 
nan

>  <Standardized_SMILES>  (693) 
CCOc1nc(Nc2ccc(C(=O)N3C[C@@H](C)O[C@@H](C)C3)cc2OC)nc2[nH]ccc12

>  <Name>  (693) 
nan

>  <Pocket>  (693) 
nan

>  <ATP_Site>  (693) 
nan

>  <Peripheral>  (693) 
nan

>  <Num_H_Atoms_ProtBoundConf>  (693) 
nan

>  <Num_Resolved_Atoms>  (693) 
nan

>  <Num_Not_Resolved_Atoms>  (693) 
nan

$$$$
CHEMBL4759230
     RDKit          3D

  0  0  0  0  0  0  0  0  0  0999 V3000
M  V30 BEGIN CTAB
M  V30 COUNTS 82 86 0 0 0
M  V30 BEGIN ATOM
M  V30 1 C 5.106289 -5.030526 5.066766 0
M  V30 2 N 4.598527 -3.926473 4.283969 0
M  V30 3 C 4.226597 -4.010503 2.927072 0
M  V30 4 O 4.341148 -5.114044 2.344598 0
M  V30 5 C 3.707327 -2.839145 2.171236 0
M  V30 6 S 3.301417 -3.225783 0.429344 0
M  V30 7 C 2.754362 -1.437542 0.123948 0
M  V30 8 C 2.265765 -1.093828 -1.262863 0
M  V30 9 C 2.221778 -2.015749 -2.256819 0
M  V30 10 C 1.755183 -1.603221 -3.495397 0
M  V30 11 N 1.371335 -0.301152 -3.635335 0
M  V30 12 C 1.437644 0.572305 -2.607374 0
M  V30 13 N 0.996825 1.924528 -2.882807 0
M  V30 14 C -0.416160 1.876546 -2.572836 0
M  V30 15 O -0.564739 0.657796 -2.208684 0
M  V30 16 C -1.255149 3.117258 -2.735152 0
M  V30 17 N -2.616958 2.765268 -2.360479 0
M  V30 18 C -2.708652 2.479412 -0.957894 0
M  V30 19 C -4.052638 2.136631 -0.448373 0
M  V30 20 N -4.737769 1.008791 -0.947810 0
M  V30 21 C -4.660452 -0.357196 -1.220445 0
M  V30 22 C -4.338037 -1.000246 -2.394722 0
M  V30 23 C -4.218214 -2.365470 -2.533238 0
M  V30 24 N -4.432677 -3.131527 -1.451789 0
M  V30 25 C -4.755339 -2.602391 -0.262770 0
M  V30 26 C -4.951321 -3.510512 0.753144 0
M  V30 27 C -5.289549 -3.020759 1.993059 0
M  V30 28 C -5.422999 -1.642910 2.187961 0
M  V30 29 C -5.205941 -0.813950 1.109306 0
M  V30 30 C -4.866693 -1.230017 -0.154254 0
M  V30 31 C -3.845965 -2.785178 -3.912726 0
M  V30 32 C -2.546969 -2.012185 -4.198192 0
M  V30 33 C -2.979618 -0.587204 -4.462705 0
M  V30 34 C -4.166111 -0.215490 -3.629520 0
M  V30 35 C 1.901084 0.209521 -1.335415 0
M  V30 36 N 2.934115 -0.986500 1.141981 0
M  V30 37 C 3.392196 -1.498136 2.268772 0
M  V30 38 O 3.686064 -1.183641 3.563119 0
M  V30 39 C 3.572121 0.031978 4.231816 0
M  V30 40 C 4.396604 1.160351 3.690273 0
M  V30 41 C 5.861822 0.711608 3.762578 0
M  V30 42 C 4.010706 1.646670 2.339615 0
M  V30 43 C 4.211384 2.334617 4.647808 0
M  V30 44 H 4.462762 -5.178575 5.976178 0
M  V30 45 H 6.135505 -4.786696 5.392807 0
M  V30 46 H 5.153818 -5.971306 4.473198 0
M  V30 47 H 4.499120 -3.018593 4.744025 0
M  V30 48 H 2.540305 -3.034175 -2.079759 0
M  V30 49 H 1.709914 -2.324265 -4.308269 0
M  V30 50 H 1.470870 2.817587 -3.225190 0
M  V30 51 H -1.189021 3.511227 -3.746823 0
M  V30 52 H -0.928599 3.910866 -2.032036 0
M  V30 53 H -3.305021 3.466005 -2.651313 0
M  V30 54 H -1.972984 1.669370 -0.673896 0
M  V30 55 H -2.327567 3.357958 -0.345009 0
M  V30 56 H -4.715477 3.032350 -0.673955 0
M  V30 57 H -4.085642 2.097567 0.676282 0
M  V30 58 H -5.740102 1.048597 -1.307964 0
M  V30 59 H -4.846923 -4.575840 0.604241 0
M  V30 60 H -5.455191 -3.691071 2.825219 0
M  V30 61 H -5.687273 -1.294135 3.168173 0
M  V30 62 H -5.333787 0.217970 1.340855 0
M  V30 63 H -4.586150 -2.395682 -4.638790 0
M  V30 64 H -3.668351 -3.879349 -3.998745 0
M  V30 65 H -1.943732 -2.103102 -3.265120 0
M  V30 66 H -1.992079 -2.448501 -5.050072 0
M  V30 67 H -2.172383 0.149837 -4.332398 0
M  V30 68 H -3.244668 -0.577785 -5.563849 0
M  V30 69 H -4.222667 0.862401 -3.391441 0
M  V30 70 H -5.078523 -0.447604 -4.289205 0
M  V30 71 H 1.939968 0.925282 -0.550145 0
M  V30 72 H 2.485834 0.340563 4.328163 0
M  V30 73 H 3.896800 -0.076582 5.312669 0
M  V30 74 H 6.530517 1.541709 4.002168 0
M  V30 75 H 6.061686 0.221613 2.786252 0
M  V30 76 H 6.009074 -0.038098 4.578722 0
M  V30 77 H 4.226283 2.743381 2.280776 0
M  V30 78 H 2.914840 1.554640 2.219972 0
M  V30 79 H 4.604503 1.166431 1.538177 0
M  V30 80 H 3.192612 2.340798 5.087099 0
M  V30 81 H 4.923144 2.204636 5.488451 0
M  V30 82 H 4.413863 3.309401 4.165508 0
M  V30 END ATOM
M  V30 BEGIN BOND
M  V30 1 1 1 2
M  V30 2 1 2 3
M  V30 3 2 3 4
M  V30 4 1 3 5
M  V30 5 1 5 6
M  V30 6 1 6 7
M  V30 7 1 7 8
M  V30 8 2 8 9
M  V30 9 1 9 10
M  V30 10 2 10 11
M  V30 11 1 11 12
M  V30 12 1 12 13
M  V30 13 1 13 14
M  V30 14 2 14 15
M  V30 15 1 14 16
M  V30 16 1 16 17
M  V30 17 1 17 18
M  V30 18 1 18 19
M  V30 19 1 19 20
M  V30 20 1 20 21
M  V30 21 2 21 22
M  V30 22 1 22 23
M  V30 23 2 23 24
M  V30 24 1 24 25
M  V30 25 2 25 26
M  V30 26 1 26 27
M  V30 27 2 27 28
M  V30 28 1 28 29
M  V30 29 2 29 30
M  V30 30 1 23 31
M  V30 31 1 31 32
M  V30 32 1 32 33
M  V30 33 1 33 34
M  V30 34 2 12 35
M  V30 35 2 7 36
M  V30 36 1 36 37
M  V30 37 1 37 38
M  V30 38 1 38 39
M  V30 39 1 39 40
M  V30 40 1 40 41
M  V30 41 1 40 42
M  V30 42 1 40 43
M  V30 43 2 37 5
M  V30 44 1 35 8
M  V30 45 1 30 21
M  V30 46 1 34 22
M  V30 47 1 30 25
M  V30 48 1 1 44
M  V30 49 1 1 45
M  V30 50 1 1 46
M  V30 51 1 2 47
M  V30 52 1 9 48
M  V30 53 1 10 49
M  V30 54 1 13 50
M  V30 55 1 16 51
M  V30 56 1 16 52
M  V30 57 1 17 53
M  V30 58 1 18 54
M  V30 59 1 18 55
M  V30 60 1 19 56
M  V30 61 1 19 57
M  V30 62 1 20 58
M  V30 63 1 26 59
M  V30 64 1 27 60
M  V30 65 1 28 61
M  V30 66 1 29 62
M  V30 67 1 31 63
M  V30 68 1 31 64
M  V30 69 1 32 65
M  V30 70 1 32 66
M  V30 71 1 33 67
M  V30 72 1 33 68
M  V30 73 1 34 69
M  V30 74 1 34 70
M  V30 75 1 35 71
M  V30 76 1 39 72
M  V30 77 1 39 73
M  V30 78 1 41 74
M  V30 79 1 41 75
M  V30 80 1 41 76
M  V30 81 1 42 77
M  V30 82 1 42 78
M  V30 83 1 42 79
M  V30 84 1 43 80
M  V30 85 1 43 81
M  V30 86 1 43 82
M  V30 END BOND
M  V30 END CTAB
M  END
>  <Dataset>  (694) 
ChEMBL_Kinases

>  <Ligand_Instance>  (694) 
nan

>  <PDB_ID>  (694) 
nan

>  <Standardized_SMILES>  (694) 
CNC(=O)c1sc(-c2ccnc(NC(=O)CNCCNc3c4c(nc5ccccc35)CCCC4)c2)nc1OCC(C)(C)C

>  <Name>  (694) 
nan

>  <Pocket>  (694) 
nan

>  <ATP_Site>  (694) 
nan

>  <Peripheral>  (694) 
nan

>  <Num_H_Atoms_ProtBoundConf>  (694) 
nan

>  <Num_Resolved_Atoms>  (694) 
nan

>  <Num_Not_Resolved_Atoms>  (694) 
nan

$$$$
CHEMBL4759253
     RDKit          3D

  0  0  0  0  0  0  0  0  0  0999 V3000
M  V30 BEGIN CTAB
M  V30 COUNTS 67 71 0 0 0
M  V30 BEGIN ATOM
M  V30 1 N 3.499177 -5.083296 4.253159 0
M  V30 2 C 2.201215 -4.669503 3.849843 0
M  V30 3 O 1.293914 -5.537537 3.827615 0
M  V30 4 C 1.980324 -3.293929 3.488465 0
M  V30 5 S 3.266733 -2.014715 3.510689 0
M  V30 6 C 2.039103 -0.696703 2.921835 0
M  V30 7 C 2.562210 0.707221 2.734286 0
M  V30 8 C 3.878329 1.020383 2.988191 0
M  V30 9 C 4.174228 2.349972 2.764260 0
M  V30 10 N 3.248396 3.232460 2.339580 0
M  V30 11 C 1.963982 2.865305 2.105612 0
M  V30 12 N 0.997531 3.817299 1.656929 0
M  V30 13 C 0.169742 4.602727 2.490584 0
M  V30 14 O -0.036501 4.772669 3.715100 0
M  V30 15 C -0.811301 5.573720 1.927141 0
M  V30 16 C -1.562681 5.263680 0.684734 0
M  V30 17 C -0.477047 6.313505 0.685782 0
M  V30 18 C 1.577073 1.535596 2.307312 0
M  V30 19 N 0.971884 -1.313701 2.803900 0
M  V30 20 C 0.879243 -2.599053 3.068945 0
M  V30 21 O -0.229374 -3.228756 2.943752 0
M  V30 22 C -1.357988 -3.854446 2.812892 0
M  V30 23 C -2.047464 -3.895592 1.460474 0
M  V30 24 C -1.288570 -4.512726 0.361332 0
M  V30 25 C -2.134472 -4.477415 -0.902257 0
M  V30 26 C -1.990953 -3.193128 -1.668280 0
M  V30 27 N -0.671431 -3.034378 -2.162252 0
M  V30 28 C -0.225761 -1.654310 -2.172948 0
M  V30 29 C -1.079362 -0.767491 -2.996487 0
M  V30 30 C -1.993957 0.119237 -2.411946 0
M  V30 31 C -2.786401 0.949768 -3.174907 0
M  V30 32 C -2.733460 0.962690 -4.548633 0
M  V30 33 C -1.829715 0.088031 -5.152888 0
M  V30 34 C -1.039530 -0.739714 -4.382708 0
M  V30 35 F -0.183479 -1.565200 -5.029780 0
M  V30 36 C 0.241137 -3.909529 -1.510883 0
M  V30 37 C -0.006760 -3.805904 -0.008735 0
M  V30 38 H 3.863899 -5.481003 5.156741 0
M  V30 39 H 4.212190 -4.957500 3.483990 0
M  V30 40 H 4.564578 0.263238 3.325393 0
M  V30 41 H 5.210472 2.672010 2.946350 0
M  V30 42 H 0.863088 3.970305 0.636048 0
M  V30 43 H -1.400924 6.125123 2.699718 0
M  V30 44 H -2.606972 5.625710 0.560896 0
M  V30 45 H -1.388446 4.302465 0.132579 0
M  V30 46 H -0.781426 7.386431 0.646155 0
M  V30 47 H 0.432281 6.005527 0.113361 0
M  V30 48 H 0.552498 1.250629 2.117809 0
M  V30 49 H -2.176159 -3.428996 3.489956 0
M  V30 50 H -1.334754 -4.940420 3.182915 0
M  V30 51 H -2.951985 -4.527583 1.629986 0
M  V30 52 H -2.432507 -2.887450 1.268110 0
M  V30 53 H -1.045172 -5.569356 0.563938 0
M  V30 54 H -1.852065 -5.326286 -1.550100 0
M  V30 55 H -3.218912 -4.659244 -0.648093 0
M  V30 56 H -2.369055 -2.321519 -1.090715 0
M  V30 57 H -2.664072 -3.220558 -2.580807 0
M  V30 58 H 0.840399 -1.586461 -2.439362 0
M  V30 59 H -0.320097 -1.294342 -1.112907 0
M  V30 60 H -2.035000 0.106512 -1.318029 0
M  V30 61 H -3.462647 1.600170 -2.607603 0
M  V30 62 H -3.392768 1.645103 -5.032697 0
M  V30 63 H -1.813970 0.122928 -6.227258 0
M  V30 64 H 1.314893 -3.677637 -1.743880 0
M  V30 65 H 0.096655 -4.934920 -1.897576 0
M  V30 66 H 0.818749 -4.335655 0.492082 0
M  V30 67 H 0.029979 -2.754674 0.328065 0
M  V30 END ATOM
M  V30 BEGIN BOND
M  V30 1 1 1 2
M  V30 2 2 2 3
M  V30 3 1 2 4
M  V30 4 1 4 5
M  V30 5 1 5 6
M  V30 6 1 6 7
M  V30 7 2 7 8
M  V30 8 1 8 9
M  V30 9 2 9 10
M  V30 10 1 10 11
M  V30 11 1 11 12
M  V30 12 1 12 13
M  V30 13 2 13 14
M  V30 14 1 13 15
M  V30 15 1 15 16
M  V30 16 1 16 17
M  V30 17 2 11 18
M  V30 18 2 6 19
M  V30 19 1 19 20
M  V30 20 1 20 21
M  V30 21 1 21 22
M  V30 22 1 22 23
M  V30 23 1 23 24
M  V30 24 1 24 25
M  V30 25 1 25 26
M  V30 26 1 26 27
M  V30 27 1 27 28
M  V30 28 1 28 29
M  V30 29 2 29 30
M  V30 30 1 30 31
M  V30 31 2 31 32
M  V30 32 1 32 33
M  V30 33 2 33 34
M  V30 34 1 34 35
M  V30 35 1 27 36
M  V30 36 1 36 37
M  V30 37 2 20 4
M  V30 38 1 37 24
M  V30 39 1 18 7
M  V30 40 1 34 29
M  V30 41 1 17 15
M  V30 42 1 1 38
M  V30 43 1 1 39
M  V30 44 1 8 40
M  V30 45 1 9 41
M  V30 46 1 12 42
M  V30 47 1 15 43
M  V30 48 1 16 44
M  V30 49 1 16 45
M  V30 50 1 17 46
M  V30 51 1 17 47
M  V30 52 1 18 48
M  V30 53 1 22 49
M  V30 54 1 22 50
M  V30 55 1 23 51
M  V30 56 1 23 52
M  V30 57 1 24 53
M  V30 58 1 25 54
M  V30 59 1 25 55
M  V30 60 1 26 56
M  V30 61 1 26 57
M  V30 62 1 28 58
M  V30 63 1 28 59
M  V30 64 1 30 60
M  V30 65 1 31 61
M  V30 66 1 32 62
M  V30 67 1 33 63
M  V30 68 1 36 64
M  V30 69 1 36 65
M  V30 70 1 37 66
M  V30 71 1 37 67
M  V30 END BOND
M  V30 END CTAB
M  END
>  <Dataset>  (695) 
ChEMBL_Kinases

>  <Ligand_Instance>  (695) 
nan

>  <PDB_ID>  (695) 
nan

>  <Standardized_SMILES>  (695) 
NC(=O)c1sc(-c2ccnc(NC(=O)C3CC3)c2)nc1OCCC1CCN(Cc2ccccc2F)CC1

>  <Name>  (695) 
nan

>  <Pocket>  (695) 
nan

>  <ATP_Site>  (695) 
nan

>  <Peripheral>  (695) 
nan

>  <Num_H_Atoms_ProtBoundConf>  (695) 
nan

>  <Num_Resolved_Atoms>  (695) 
nan

>  <Num_Not_Resolved_Atoms>  (695) 
nan

$$$$
CHEMBL4759292
     RDKit          3D

  0  0  0  0  0  0  0  0  0  0999 V3000
M  V30 BEGIN CTAB
M  V30 COUNTS 39 41 0 0 0
M  V30 BEGIN ATOM
M  V30 1 O 4.506688 -1.924099 -0.428574 0
M  V30 2 C 3.286764 -1.595720 -0.363306 0
M  V30 3 N 2.340527 -2.414344 -0.964346 0
M  V30 4 C 1.130727 -2.070749 -0.888721 0
M  V30 5 N 0.019206 -2.761316 -1.430034 0
M  V30 6 C 0.138557 -4.196295 -1.612873 0
M  V30 7 C -1.184773 -4.690703 -2.203094 0
M  V30 8 C -1.138662 -6.185148 -2.423707 0
M  V30 9 O -2.328148 -6.672266 -2.961257 0
M  V30 10 S 1.001828 -0.519243 0.038667 0
M  V30 11 C 2.774308 -0.403283 0.304508 0
M  V30 12 C 3.465316 0.525487 0.944889 0
M  V30 13 C 2.686179 1.637078 1.533856 0
M  V30 14 C 2.999030 2.995190 1.635256 0
M  V30 15 C 1.948751 3.628448 2.268184 0
M  V30 16 C 1.030717 2.637887 2.531701 0
M  V30 17 C -0.263327 2.770904 3.190146 0
M  V30 18 C -1.072853 1.674488 3.391077 0
M  V30 19 C -2.307230 1.757200 4.008641 0
M  V30 20 C -2.687804 3.015878 4.417738 0
M  V30 21 C -1.898856 4.148023 4.233244 0
M  V30 22 Cl -2.388826 5.744621 4.756266 0
M  V30 23 C -0.691397 4.021681 3.621325 0
M  V30 24 O 1.500011 1.481717 2.085344 0
M  V30 25 H -0.850506 -2.235211 -1.683079 0
M  V30 26 H 0.967678 -4.453906 -2.273863 0
M  V30 27 H 0.309436 -4.658356 -0.617676 0
M  V30 28 H -2.035903 -4.405003 -1.561598 0
M  V30 29 H -1.293499 -4.159085 -3.184488 0
M  V30 30 H -0.907659 -6.646093 -1.442256 0
M  V30 31 H -0.317304 -6.398882 -3.139154 0
M  V30 32 H -3.108720 -6.458727 -2.413559 0
M  V30 33 H 4.538762 0.459480 1.022967 0
M  V30 34 H 3.923274 3.411024 1.260827 0
M  V30 35 H 1.875865 4.677795 2.500537 0
M  V30 36 H -0.769024 0.686989 3.067461 0
M  V30 37 H -2.935494 0.880772 4.160296 0
M  V30 38 H -3.628174 3.181994 4.907190 0
M  V30 39 H -0.048504 4.870969 3.457581 0
M  V30 END ATOM
M  V30 BEGIN BOND
M  V30 1 2 1 2
M  V30 2 1 2 3
M  V30 3 2 3 4
M  V30 4 1 4 5
M  V30 5 1 5 6
M  V30 6 1 6 7
M  V30 7 1 7 8
M  V30 8 1 8 9
M  V30 9 1 4 10
M  V30 10 1 10 11
M  V30 11 2 11 12
M  V30 12 1 12 13
M  V30 13 2 13 14
M  V30 14 1 14 15
M  V30 15 2 15 16
M  V30 16 1 16 17
M  V30 17 2 17 18
M  V30 18 1 18 19
M  V30 19 2 19 20
M  V30 20 1 20 21
M  V30 21 1 21 22
M  V30 22 2 21 23
M  V30 23 1 16 24
M  V30 24 1 11 2
M  V30 25 1 24 13
M  V30 26 1 23 17
M  V30 27 1 5 25
M  V30 28 1 6 26
M  V30 29 1 6 27
M  V30 30 1 7 28
M  V30 31 1 7 29
M  V30 32 1 8 30
M  V30 33 1 8 31
M  V30 34 1 9 32
M  V30 35 1 12 33
M  V30 36 1 14 34
M  V30 37 1 15 35
M  V30 38 1 18 36
M  V30 39 1 19 37
M  V30 40 1 20 38
M  V30 41 1 23 39
M  V30 END BOND
M  V30 END CTAB
M  END
>  <Dataset>  (696) 
ChEMBL_Kinases

>  <Ligand_Instance>  (696) 
nan

>  <PDB_ID>  (696) 
nan

>  <Standardized_SMILES>  (696) 
O=C1N=C(NCCCO)S/C1=C\c1ccc(-c2cccc(Cl)c2)o1

>  <Name>  (696) 
nan

>  <Pocket>  (696) 
nan

>  <ATP_Site>  (696) 
nan

>  <Peripheral>  (696) 
nan

>  <Num_H_Atoms_ProtBoundConf>  (696) 
nan

>  <Num_Resolved_Atoms>  (696) 
nan

>  <Num_Not_Resolved_Atoms>  (696) 
nan

$$$$
CHEMBL4283587
     RDKit          3D

  0  0  0  0  0  0  0  0  0  0999 V3000
M  V30 BEGIN CTAB
M  V30 COUNTS 65 70 0 0 0
M  V30 BEGIN ATOM
M  V30 1 C 6.028146 -0.787770 3.379324 0
M  V30 2 C 6.643576 -0.299464 2.115572 0 CFG=2
M  V30 3 C 7.438741 0.980235 2.258191 0
M  V30 4 N 8.080160 1.325073 1.004503 0
M  V30 5 C 7.832098 0.359028 -0.032452 0
M  V30 6 C 6.373891 0.081673 -0.287017 0 CFG=2
M  V30 7 C 5.730305 1.198010 -1.086692 0
M  V30 8 N 5.722248 -0.097369 1.018977 0
M  V30 9 C 4.305763 -0.058614 0.974441 0
M  V30 10 C 3.672258 -0.413572 -0.196999 0
M  V30 11 C 2.289772 -0.378955 -0.303551 0
M  V30 12 C 1.484747 0.016986 0.772094 0
M  V30 13 C 0.033640 0.028669 0.585095 0
M  V30 14 C -0.603533 -0.876977 -0.255882 0
M  V30 15 N -1.961854 -0.821398 -0.402295 0
M  V30 16 C -2.683264 0.115591 0.272567 0
M  V30 17 C -4.039552 0.425337 0.340323 0
M  V30 18 C -5.116237 -0.249168 -0.378301 0
M  V30 19 C -5.357493 0.363866 -1.592223 0
M  V30 20 C -6.345987 -0.098554 -2.447930 0
M  V30 21 C -7.093622 -1.209018 -2.042136 0
M  V30 22 C -6.840805 -1.810380 -0.827096 0
M  V30 23 C -7.563584 -2.922845 -0.385994 0
M  V30 24 S -8.812183 -3.489261 -1.469042 0
M  V30 25 N -9.572450 -4.855513 -0.758149 0
M  V30 26 O -8.270702 -3.883483 -2.799531 0
M  V30 27 O -9.805135 -2.347168 -1.640137 0
M  V30 28 C -7.270048 -3.489784 0.837373 0
M  V30 29 C -6.258514 -2.967378 1.645057 0
M  V30 30 C -5.513322 -1.862557 1.248991 0
M  V30 31 C -5.854825 -1.342971 0.018097 0
M  V30 32 C -4.121560 1.490020 1.213812 0
M  V30 33 N -2.886516 1.800348 1.643920 0
M  V30 34 N -2.007603 0.960997 1.069190 0
M  V30 35 C -0.675459 1.001707 1.291339 0
M  V30 36 C 2.101367 0.376360 1.953939 0
M  V30 37 C 3.479207 0.324716 2.007511 0
M  V30 38 H 5.137929 -1.394637 3.174122 0
M  V30 39 H 6.764978 -1.485886 3.886024 0
M  V30 40 H 5.855888 0.000597 4.152319 0
M  V30 41 H 7.364537 -1.072669 1.760800 0
M  V30 42 H 8.212599 0.920725 3.046633 0
M  V30 43 H 6.772782 1.825904 2.530510 0
M  V30 44 H 7.894440 2.308420 0.714089 0
M  V30 45 H 8.431479 -0.554075 0.131896 0
M  V30 46 H 8.193787 0.863799 -0.984586 0
M  V30 47 H 6.284997 -0.882972 -0.820191 0
M  V30 48 H 4.882801 1.676650 -0.598682 0
M  V30 49 H 5.565553 0.877011 -2.135039 0
M  V30 50 H 6.515256 2.010701 -1.181615 0
M  V30 51 H 4.162791 -0.740896 -1.103035 0
M  V30 52 H 1.771834 -0.657494 -1.225755 0
M  V30 53 H -0.039801 -1.621858 -0.794149 0
M  V30 54 H -4.843681 1.226185 -2.009809 0
M  V30 55 H -6.591305 0.324613 -3.405451 0
M  V30 56 H -7.867923 -1.583247 -2.696533 0
M  V30 57 H -8.899454 -5.430298 -0.234677 0
M  V30 58 H -10.349507 -4.580832 -0.121187 0
M  V30 59 H -7.850800 -4.351788 1.145613 0
M  V30 60 H -6.061407 -3.443415 2.597332 0
M  V30 61 H -4.728068 -1.441023 1.852624 0
M  V30 62 H -5.034734 2.007220 1.516069 0
M  V30 63 H -0.196285 1.702904 1.929211 0
M  V30 64 H 1.502810 0.683871 2.792163 0
M  V30 65 H 3.905772 0.618270 2.941208 0
M  V30 END ATOM
M  V30 BEGIN BOND
M  V30 1 1 1 2
M  V30 2 1 2 3
M  V30 3 1 3 4
M  V30 4 1 4 5
M  V30 5 1 5 6
M  V30 6 1 6 7
M  V30 7 1 6 8
M  V30 8 1 8 9
M  V30 9 2 9 10
M  V30 10 1 10 11
M  V30 11 2 11 12
M  V30 12 1 12 13
M  V30 13 1 13 14
M  V30 14 2 14 15
M  V30 15 1 15 16
M  V30 16 2 16 17
M  V30 17 1 17 18
M  V30 18 2 18 19
M  V30 19 1 19 20
M  V30 20 2 20 21
M  V30 21 1 21 22
M  V30 22 2 22 23
M  V30 23 1 23 24
M  V30 24 1 24 25
M  V30 25 2 24 26
M  V30 26 2 24 27
M  V30 27 1 23 28
M  V30 28 2 28 29
M  V30 29 1 29 30
M  V30 30 2 30 31
M  V30 31 1 17 32
M  V30 32 2 32 33
M  V30 33 1 33 34
M  V30 34 1 34 35
M  V30 35 1 12 36
M  V30 36 2 36 37
M  V30 37 1 8 2
M  V30 38 1 37 9
M  V30 39 2 35 13
M  V30 40 1 34 16
M  V30 41 1 31 18
M  V30 42 1 31 22
M  V30 43 1 1 38
M  V30 44 1 1 39
M  V30 45 1 1 40
M  V30 46 1 2 41 CFG=3
M  V30 47 1 3 42
M  V30 48 1 3 43
M  V30 49 1 4 44
M  V30 50 1 5 45
M  V30 51 1 5 46
M  V30 52 1 6 47 CFG=3
M  V30 53 1 7 48
M  V30 54 1 7 49
M  V30 55 1 7 50
M  V30 56 1 10 51
M  V30 57 1 11 52
M  V30 58 1 14 53
M  V30 59 1 19 54
M  V30 60 1 20 55
M  V30 61 1 21 56
M  V30 62 1 25 57
M  V30 63 1 25 58
M  V30 64 1 28 59
M  V30 65 1 29 60
M  V30 66 1 30 61
M  V30 67 1 32 62
M  V30 68 1 35 63
M  V30 69 1 36 64
M  V30 70 1 37 65
M  V30 END BOND
M  V30 END CTAB
M  END
>  <Dataset>  (697) 
ChEMBL_Kinases

>  <Ligand_Instance>  (697) 
nan

>  <PDB_ID>  (697) 
nan

>  <Standardized_SMILES>  (697) 
C[C@@H]1CNC[C@H](C)N1c1ccc(-c2cnc3c(-c4cccc5c(S(N)(=O)=O)cccc45)cnn3c2)cc1

>  <Name>  (697) 
nan

>  <Pocket>  (697) 
nan

>  <ATP_Site>  (697) 
nan

>  <Peripheral>  (697) 
nan

>  <Num_H_Atoms_ProtBoundConf>  (697) 
nan

>  <Num_Resolved_Atoms>  (697) 
nan

>  <Num_Not_Resolved_Atoms>  (697) 
nan

$$$$
CHEMBL4283581
     RDKit          3D

  0  0  0  0  0  0  0  0  0  0999 V3000
M  V30 BEGIN CTAB
M  V30 COUNTS 40 43 0 0 0
M  V30 BEGIN ATOM
M  V30 1 N -2.663565 -4.766034 -5.305577 0
M  V30 2 C -1.926453 -4.049276 -4.789901 0
M  V30 3 C -0.984693 -3.162878 -4.145099 0
M  V30 4 C 0.229302 -3.586520 -3.642173 0
M  V30 5 C 1.149175 -2.778214 -3.027120 0
M  V30 6 C 0.814575 -1.447633 -2.914835 0
M  V30 7 C -0.360383 -0.903609 -3.374000 0
M  V30 8 C -0.805932 0.494882 -3.303489 0
M  V30 9 N -1.580437 0.816999 -2.129630 0
M  V30 10 C -1.098606 0.711459 -0.802974 0
M  V30 11 N 0.165375 0.863034 -0.605184 0
M  V30 12 N 0.730849 0.775107 0.678485 0
M  V30 13 C 0.028582 0.539117 1.744571 0
M  V30 14 C 0.818037 0.488099 2.980597 0
M  V30 15 C 2.188909 0.650331 2.966863 0
M  V30 16 C 3.020733 0.657260 4.066931 0
M  V30 17 C 2.408580 0.483187 5.309903 0
M  V30 18 N 2.887112 0.437495 6.559443 0
M  V30 19 C 1.828230 0.247428 7.365947 0
M  V30 20 O 2.001976 0.164844 8.627585 0
M  V30 21 N 0.668389 0.164512 6.710949 0
M  V30 22 C 1.022914 0.312109 5.414353 0
M  V30 23 C 0.301599 0.323122 4.244581 0
M  V30 24 C -1.413424 0.305911 2.015484 0
M  V30 25 S -2.326232 0.369808 0.454403 0
M  V30 26 C -1.222288 -1.809334 -3.980764 0
M  V30 27 H 0.487063 -4.634754 -3.735229 0
M  V30 28 H 2.087761 -3.149524 -2.646882 0
M  V30 29 H 1.499616 -0.746044 -2.438484 0
M  V30 30 H 0.138693 1.105778 -3.205182 0
M  V30 31 H -1.372235 0.790558 -4.210111 0
M  V30 32 H -2.579976 1.156278 -2.252908 0
M  V30 33 H 2.716410 0.790354 2.009395 0
M  V30 34 H 4.082694 0.789595 3.984328 0
M  V30 35 H 3.898885 0.537467 6.794754 0
M  V30 36 H -0.265325 0.020707 7.122353 0
M  V30 37 H -0.765183 0.189639 4.340694 0
M  V30 38 H -1.622629 -0.644566 2.491800 0
M  V30 39 H -1.796355 1.106691 2.709797 0
M  V30 40 H -2.188265 -1.461831 -4.377845 0
M  V30 END ATOM
M  V30 BEGIN BOND
M  V30 1 3 1 2
M  V30 2 1 2 3
M  V30 3 2 3 4
M  V30 4 1 4 5
M  V30 5 2 5 6
M  V30 6 1 6 7
M  V30 7 1 7 8
M  V30 8 1 8 9
M  V30 9 1 9 10
M  V30 10 2 10 11
M  V30 11 1 11 12
M  V30 12 2 12 13
M  V30 13 1 13 14
M  V30 14 2 14 15
M  V30 15 1 15 16
M  V30 16 2 16 17
M  V30 17 1 17 18
M  V30 18 1 18 19
M  V30 19 2 19 20
M  V30 20 1 19 21
M  V30 21 1 21 22
M  V30 22 2 22 23
M  V30 23 1 13 24
M  V30 24 1 24 25
M  V30 25 2 7 26
M  V30 26 1 26 3
M  V30 27 1 25 10
M  V30 28 1 23 14
M  V30 29 1 22 17
M  V30 30 1 4 27
M  V30 31 1 5 28
M  V30 32 1 6 29
M  V30 33 1 8 30
M  V30 34 1 8 31
M  V30 35 1 9 32
M  V30 36 1 15 33
M  V30 37 1 16 34
M  V30 38 1 18 35
M  V30 39 1 21 36
M  V30 40 1 23 37
M  V30 41 1 24 38
M  V30 42 1 24 39
M  V30 43 1 26 40
M  V30 END BOND
M  V30 END CTAB
M  END
>  <Dataset>  (698) 
ChEMBL_Kinases

>  <Ligand_Instance>  (698) 
nan

>  <PDB_ID>  (698) 
nan

>  <Standardized_SMILES>  (698) 
N#Cc1cccc(CNC2=NN=C(c3ccc4[nH]c(=O)[nH]c4c3)CS2)c1

>  <Name>  (698) 
nan

>  <Pocket>  (698) 
nan

>  <ATP_Site>  (698) 
nan

>  <Peripheral>  (698) 
nan

>  <Num_H_Atoms_ProtBoundConf>  (698) 
nan

>  <Num_Resolved_Atoms>  (698) 
nan

>  <Num_Not_Resolved_Atoms>  (698) 
nan

$$$$
CHEMBL4759303
     RDKit          3D

  0  0  0  0  0  0  0  0  0  0999 V3000
M  V30 BEGIN CTAB
M  V30 COUNTS 38 41 0 0 0
M  V30 BEGIN ATOM
M  V30 1 C 0.823271 -4.264252 -0.891416 0
M  V30 2 O 1.058272 -2.878712 -0.771841 0
M  V30 3 C 2.199943 -2.347261 -0.226305 0
M  V30 4 C 3.170151 -3.246720 0.229590 0
M  V30 5 C 4.315776 -2.705792 0.777064 0
M  V30 6 C 4.583527 -1.351089 0.912027 0
M  V30 7 C 3.613937 -0.489562 0.456205 0
M  V30 8 F 3.753843 0.864693 0.530411 0
M  V30 9 C 2.446500 -0.975374 -0.101317 0
M  V30 10 C 1.356207 -0.144138 -0.614669 0
M  V30 11 C 0.358183 0.205040 0.284427 0
M  V30 12 C -0.703924 0.985295 -0.117632 0
M  V30 13 C -0.796099 1.439506 -1.437724 0
M  V30 14 C 0.229182 1.061138 -2.296026 0
M  V30 15 N 1.268993 0.297652 -1.903699 0
M  V30 16 C -1.943671 2.183237 -1.541872 0
M  V30 17 N -2.506523 2.160654 -0.304867 0
M  V30 18 N -1.785951 1.461689 0.531887 0
M  V30 19 C -2.091425 1.237937 1.906496 0
M  V30 20 C -1.718056 1.994078 2.999463 0
M  V30 21 C -2.128164 1.592402 4.263079 0
M  V30 22 C -2.895834 0.461636 4.451488 0
M  V30 23 C -3.266815 -0.291455 3.355248 0
M  V30 24 C -2.869890 0.090081 2.090710 0
M  V30 25 H 0.665026 -4.729105 0.107562 0
M  V30 26 H -0.103882 -4.429911 -1.472234 0
M  V30 27 H 1.668824 -4.763180 -1.394042 0
M  V30 28 H 3.052530 -4.326689 0.167525 0
M  V30 29 H 5.063470 -3.423668 1.128268 0
M  V30 30 H 5.492846 -0.986736 1.346209 0
M  V30 31 H 0.402256 -0.131257 1.311700 0
M  V30 32 H 0.182420 1.401482 -3.331212 0
M  V30 33 H -2.252392 2.653797 -2.469304 0
M  V30 34 H -1.128327 2.840704 2.728061 0
M  V30 35 H -1.779051 2.256880 5.040689 0
M  V30 36 H -3.165945 0.229052 5.467390 0
M  V30 37 H -3.870758 -1.172370 3.553413 0
M  V30 38 H -3.223730 -0.580817 1.317429 0
M  V30 END ATOM
M  V30 BEGIN BOND
M  V30 1 1 1 2
M  V30 2 1 2 3
M  V30 3 2 3 4
M  V30 4 1 4 5
M  V30 5 2 5 6
M  V30 6 1 6 7
M  V30 7 1 7 8
M  V30 8 2 7 9
M  V30 9 1 9 10
M  V30 10 2 10 11
M  V30 11 1 11 12
M  V30 12 2 12 13
M  V30 13 1 13 14
M  V30 14 2 14 15
M  V30 15 1 13 16
M  V30 16 2 16 17
M  V30 17 1 17 18
M  V30 18 1 18 19
M  V30 19 2 19 20
M  V30 20 1 20 21
M  V30 21 2 21 22
M  V30 22 1 22 23
M  V30 23 2 23 24
M  V30 24 1 9 3
M  V30 25 1 15 10
M  V30 26 1 24 19
M  V30 27 1 18 12
M  V30 28 1 1 25
M  V30 29 1 1 26
M  V30 30 1 1 27
M  V30 31 1 4 28
M  V30 32 1 5 29
M  V30 33 1 6 30
M  V30 34 1 11 31
M  V30 35 1 14 32
M  V30 36 1 16 33
M  V30 37 1 20 34
M  V30 38 1 21 35
M  V30 39 1 22 36
M  V30 40 1 23 37
M  V30 41 1 24 38
M  V30 END BOND
M  V30 END CTAB
M  END
>  <Dataset>  (699) 
ChEMBL_Kinases

>  <Ligand_Instance>  (699) 
nan

>  <PDB_ID>  (699) 
nan

>  <Standardized_SMILES>  (699) 
COc1cccc(F)c1-c1cc2c(cn1)cnn2-c1ccccc1

>  <Name>  (699) 
nan

>  <Pocket>  (699) 
nan

>  <ATP_Site>  (699) 
nan

>  <Peripheral>  (699) 
nan

>  <Num_H_Atoms_ProtBoundConf>  (699) 
nan

>  <Num_Resolved_Atoms>  (699) 
nan

>  <Num_Not_Resolved_Atoms>  (699) 
nan

$$$$
CHEMBL4759305
     RDKit          3D

  0  0  0  0  0  0  0  0  0  0999 V3000
M  V30 BEGIN CTAB
M  V30 COUNTS 61 65 0 0 0
M  V30 BEGIN ATOM
M  V30 1 O 1.838760 -5.157450 1.196838 0
M  V30 2 S 3.247144 -4.783420 0.976173 0
M  V30 3 O 4.109598 -5.998834 1.257095 0
M  V30 4 N 3.597059 -4.304040 -0.637053 0
M  V30 5 C 2.884032 -3.135499 -0.990864 0
M  V30 6 C 1.553762 -2.862190 -0.784960 0
M  V30 7 C 0.955710 -1.680097 -1.149131 0
M  V30 8 C 1.719268 -0.712232 -1.752510 0
M  V30 9 C 1.353037 0.618890 -2.217322 0
M  V30 10 N 0.073420 0.947217 -2.039349 0
M  V30 11 C -0.259955 2.163117 -2.463380 0
M  V30 12 C -1.606163 2.751249 -2.368535 0
M  V30 13 C -2.118998 3.528944 -3.378452 0
M  V30 14 C -3.410859 4.009497 -3.155446 0
M  V30 15 N -4.140746 3.760125 -2.055062 0
M  V30 16 C -3.643986 2.990984 -1.047961 0
M  V30 17 N -4.187121 2.545856 0.200494 0
M  V30 18 C -4.641511 1.178517 0.313039 0
M  V30 19 C -5.110220 0.719003 1.549403 0
M  V30 20 C -5.489606 -0.593988 1.520953 0
M  V30 21 C -5.438650 -1.415677 0.437941 0
M  V30 22 O -5.878344 -2.723987 0.659173 0
M  V30 23 C -4.970764 -3.728960 1.076407 0
M  V30 24 F -3.979400 -3.841924 0.091636 0
M  V30 25 F -4.428044 -3.446558 2.305306 0
M  V30 26 F -5.627173 -4.926016 1.178346 0
M  V30 27 C -4.972611 -0.927648 -0.757476 0
M  V30 28 C -4.568014 0.391373 -0.820427 0
M  V30 29 C -2.361451 2.486429 -1.216346 0
M  V30 30 N 0.950943 2.618459 -2.949340 0
M  V30 31 O 1.807978 1.669207 -2.766330 0
M  V30 32 C 3.083014 -0.936172 -1.989737 0
M  V30 33 C 3.667198 -2.152947 -1.606911 0
M  V30 34 C 3.715887 -3.529434 2.117645 0
M  V30 35 C 4.951707 -3.298665 2.693874 0
M  V30 36 C 5.073204 -2.229594 3.572819 0
M  V30 37 C 4.033577 -1.386949 3.902713 0
M  V30 38 O 4.251249 -0.335013 4.798711 0
M  V30 39 C 4.047687 -0.600356 6.168896 0
M  V30 40 F 4.925895 -1.616682 6.507127 0
M  V30 41 F 4.277297 0.528340 6.927538 0
M  V30 42 F 2.771293 -1.034994 6.415153 0
M  V30 43 C 2.821447 -1.613685 3.339276 0
M  V30 44 C 2.684287 -2.664983 2.469200 0
M  V30 45 H 4.223983 -4.721670 -1.357783 0
M  V30 46 H 0.970800 -3.622426 -0.315716 0
M  V30 47 H -0.066659 -1.426597 -1.010004 0
M  V30 48 H -1.576239 3.754343 -4.270497 0
M  V30 49 H -3.920768 4.630907 -3.877486 0
M  V30 50 H -4.206891 3.275697 0.943545 0
M  V30 51 H -5.114089 1.434574 2.335721 0
M  V30 52 H -5.858416 -0.949636 2.497610 0
M  V30 53 H -4.942686 -1.600758 -1.602921 0
M  V30 54 H -4.201858 0.794078 -1.746081 0
M  V30 55 H -1.846462 1.854815 -0.477309 0
M  V30 56 H 3.781943 -0.229145 -2.465973 0
M  V30 57 H 4.732795 -2.317460 -1.799313 0
M  V30 58 H 5.691518 -3.995441 2.380902 0
M  V30 59 H 6.073591 -2.103993 3.991265 0
M  V30 60 H 2.006311 -0.948329 3.603483 0
M  V30 61 H 1.664473 -2.758785 2.076825 0
M  V30 END ATOM
M  V30 BEGIN BOND
M  V30 1 2 1 2
M  V30 2 2 2 3
M  V30 3 1 2 4
M  V30 4 1 4 5
M  V30 5 2 5 6
M  V30 6 1 6 7
M  V30 7 2 7 8
M  V30 8 1 8 9
M  V30 9 2 9 10
M  V30 10 1 10 11
M  V30 11 1 11 12
M  V30 12 2 12 13
M  V30 13 1 13 14
M  V30 14 2 14 15
M  V30 15 1 15 16
M  V30 16 1 16 17
M  V30 17 1 17 18
M  V30 18 2 18 19
M  V30 19 1 19 20
M  V30 20 2 20 21
M  V30 21 1 21 22
M  V30 22 1 22 23
M  V30 23 1 23 24
M  V30 24 1 23 25
M  V30 25 1 23 26
M  V30 26 1 21 27
M  V30 27 2 27 28
M  V30 28 2 16 29
M  V30 29 2 11 30
M  V30 30 1 30 31
M  V30 31 1 8 32
M  V30 32 2 32 33
M  V30 33 1 2 34
M  V30 34 2 34 35
M  V30 35 1 35 36
M  V30 36 2 36 37
M  V30 37 1 37 38
M  V30 38 1 38 39
M  V30 39 1 39 40
M  V30 40 1 39 41
M  V30 41 1 39 42
M  V30 42 1 37 43
M  V30 43 2 43 44
M  V30 44 1 33 5
M  V30 45 1 44 34
M  V30 46 1 31 9
M  V30 47 1 29 12
M  V30 48 1 28 18
M  V30 49 1 4 45
M  V30 50 1 6 46
M  V30 51 1 7 47
M  V30 52 1 13 48
M  V30 53 1 14 49
M  V30 54 1 17 50
M  V30 55 1 19 51
M  V30 56 1 20 52
M  V30 57 1 27 53
M  V30 58 1 28 54
M  V30 59 1 29 55
M  V30 60 1 32 56
M  V30 61 1 33 57
M  V30 62 1 35 58
M  V30 63 1 36 59
M  V30 64 1 43 60
M  V30 65 1 44 61
M  V30 END BOND
M  V30 END CTAB
M  END
>  <Dataset>  (700) 
ChEMBL_Kinases

>  <Ligand_Instance>  (700) 
nan

>  <PDB_ID>  (700) 
nan

>  <Standardized_SMILES>  (700) 
O=S(=O)(Nc1ccc(-c2nc(-c3ccnc(Nc4ccc(OC(F)(F)F)cc4)c3)no2)cc1)c1ccc(OC(F)(F)F)cc1

>  <Name>  (700) 
nan

>  <Pocket>  (700) 
nan

>  <ATP_Site>  (700) 
nan

>  <Peripheral>  (700) 
nan

>  <Num_H_Atoms_ProtBoundConf>  (700) 
nan

>  <Num_Resolved_Atoms>  (700) 
nan

>  <Num_Not_Resolved_Atoms>  (700) 
nan

$$$$
CHEMBL4759319
     RDKit          3D

  0  0  0  0  0  0  0  0  0  0999 V3000
M  V30 BEGIN CTAB
M  V30 COUNTS 46 49 0 0 0
M  V30 BEGIN ATOM
M  V30 1 C 1.827154 -5.666010 2.251008 0
M  V30 2 O 0.765317 -4.746643 2.065015 0
M  V30 3 C 0.774496 -3.992952 0.897196 0
M  V30 4 C 1.767719 -4.115796 -0.060602 0
M  V30 5 C 1.718201 -3.336813 -1.199488 0
M  V30 6 C 0.674670 -2.446672 -1.361720 0
M  V30 7 N 0.513429 -1.581084 -2.504448 0
M  V30 8 N 0.639376 -1.801156 -3.806863 0
M  V30 9 N 0.386580 -0.680034 -4.461781 0
M  V30 10 C 0.083974 0.323716 -3.618072 0
M  V30 11 C -0.255285 1.653263 -3.654780 0
M  V30 12 N -0.494857 2.353609 -2.532997 0
M  V30 13 C -0.413779 1.782255 -1.304014 0
M  V30 14 N -0.670813 2.535659 -0.127347 0
M  V30 15 C -0.587505 1.945683 1.175867 0 CFG=1
M  V30 16 C 0.747239 1.393428 1.548041 0
M  V30 17 C 0.555684 0.581870 2.824454 0
M  V30 18 C -0.088429 1.375010 3.928863 0 CFG=2
M  V30 19 N -0.320758 0.456237 5.021618 0
M  V30 20 C -1.406482 1.961752 3.460226 0
M  V30 21 C -1.089457 2.863238 2.266900 0
M  V30 22 N -0.080776 0.480988 -1.286093 0
M  V30 23 C 0.169164 -0.266362 -2.376032 0
M  V30 24 C -0.324647 -2.327841 -0.390733 0
M  V30 25 C -0.280820 -3.111228 0.761483 0
M  V30 26 H 1.755808 -6.522267 1.548935 0
M  V30 27 H 1.823534 -6.088942 3.283924 0
M  V30 28 H 2.820944 -5.182415 2.072859 0
M  V30 29 H 2.576738 -4.816174 0.080941 0
M  V30 30 H 2.460275 -3.382512 -1.985859 0
M  V30 31 H -0.318671 2.104319 -4.636885 0
M  V30 32 H -0.923994 3.536155 -0.227177 0
M  V30 33 H -1.296797 1.067116 1.186139 0
M  V30 34 H 1.073252 0.661796 0.781501 0
M  V30 35 H 1.499117 2.194683 1.698470 0
M  V30 36 H 1.521183 0.181340 3.182630 0
M  V30 37 H -0.115961 -0.270183 2.529186 0
M  V30 38 H 0.569661 2.218156 4.196843 0
M  V30 39 H 0.480189 -0.214098 5.139956 0
M  V30 40 H -1.197370 -0.076475 4.808668 0
M  V30 41 H -1.903389 2.473123 4.280524 0
M  V30 42 H -1.989615 1.096180 3.036502 0
M  V30 43 H -2.013786 3.338250 1.876255 0
M  V30 44 H -0.315526 3.620127 2.536274 0
M  V30 45 H -1.156317 -1.626860 -0.507083 0
M  V30 46 H -1.070373 -2.991907 1.489594 0
M  V30 END ATOM
M  V30 BEGIN BOND
M  V30 1 1 1 2
M  V30 2 1 2 3
M  V30 3 2 3 4
M  V30 4 1 4 5
M  V30 5 2 5 6
M  V30 6 1 6 7
M  V30 7 1 7 8
M  V30 8 2 8 9
M  V30 9 1 9 10
M  V30 10 2 10 11
M  V30 11 1 11 12
M  V30 12 2 12 13
M  V30 13 1 13 14
M  V30 14 1 14 15
M  V30 15 1 15 16
M  V30 16 1 16 17
M  V30 17 1 17 18
M  V30 18 1 18 19
M  V30 19 1 18 20
M  V30 20 1 20 21
M  V30 21 1 13 22
M  V30 22 2 22 23
M  V30 23 1 6 24
M  V30 24 2 24 25
M  V30 25 1 25 3
M  V30 26 1 23 7
M  V30 27 1 23 10
M  V30 28 1 21 15
M  V30 29 1 1 26
M  V30 30 1 1 27
M  V30 31 1 1 28
M  V30 32 1 4 29
M  V30 33 1 5 30
M  V30 34 1 11 31
M  V30 35 1 14 32
M  V30 36 1 15 33 CFG=3
M  V30 37 1 16 34
M  V30 38 1 16 35
M  V30 39 1 17 36
M  V30 40 1 17 37
M  V30 41 1 18 38 CFG=1
M  V30 42 1 19 39
M  V30 43 1 19 40
M  V30 44 1 20 41
M  V30 45 1 20 42
M  V30 46 1 21 43
M  V30 47 1 21 44
M  V30 48 1 24 45
M  V30 49 1 25 46
M  V30 END BOND
M  V30 END CTAB
M  END
>  <Dataset>  (701) 
ChEMBL_Kinases

>  <Ligand_Instance>  (701) 
nan

>  <PDB_ID>  (701) 
nan

>  <Standardized_SMILES>  (701) 
COc1ccc(-n2nnc3cnc(N[C@H]4CC[C@H](N)CC4)nc32)cc1

>  <Name>  (701) 
nan

>  <Pocket>  (701) 
nan

>  <ATP_Site>  (701) 
nan

>  <Peripheral>  (701) 
nan

>  <Num_H_Atoms_ProtBoundConf>  (701) 
nan

>  <Num_Resolved_Atoms>  (701) 
nan

>  <Num_Not_Resolved_Atoms>  (701) 
nan

$$$$
CHEMBL4759329
     RDKit          3D

  0  0  0  0  0  0  0  0  0  0999 V3000
M  V30 BEGIN CTAB
M  V30 COUNTS 49 52 0 0 0
M  V30 BEGIN ATOM
M  V30 1 O 0.348318 3.404406 3.881451 0
M  V30 2 C 0.343834 2.190639 3.475684 0
M  V30 3 N 1.518973 1.451166 3.603076 0
M  V30 4 C 1.446444 0.234324 3.174299 0
M  V30 5 N 2.574445 -0.632484 3.244273 0
M  V30 6 C 3.939064 -0.220742 3.034331 0
M  V30 7 C 4.309990 0.143773 1.643384 0
M  V30 8 C 5.766101 0.585843 1.479221 0
M  V30 9 O 6.672022 -0.381124 1.843139 0
M  V30 10 C 3.388499 1.034066 0.870689 0
M  V30 11 C 3.733809 0.181975 -0.363582 0
M  V30 12 C 3.999530 -0.947065 0.607986 0
M  V30 13 S -0.217016 -0.109957 2.537063 0
M  V30 14 C -0.826995 1.543605 2.887771 0
M  V30 15 C -1.994875 2.131281 2.704450 0
M  V30 16 C -3.037727 1.296728 2.097629 0
M  V30 17 C -4.380334 1.515573 2.574891 0
M  V30 18 S -5.322190 0.243305 1.523438 0
M  V30 19 C -3.834820 -0.281667 0.720082 0
M  V30 20 C -3.877810 -1.380385 -0.340327 0
M  V30 21 C -5.112056 -1.917302 -0.633071 0
M  V30 22 C -5.066804 -2.902220 -1.596680 0
M  V30 23 C -3.914848 -3.331759 -2.226227 0
M  V30 24 O -3.972589 -4.258592 -3.114223 0
M  V30 25 C -4.032413 -5.185858 -4.018818 0
M  V30 26 F -5.279055 -5.143424 -4.683937 0
M  V30 27 F -3.019257 -5.228627 -4.979098 0
M  V30 28 F -3.949426 -6.462552 -3.414488 0
M  V30 29 C -2.727024 -2.701849 -1.834852 0
M  V30 30 C -2.678091 -1.707756 -0.879697 0
M  V30 31 N -2.919199 0.367243 1.170604 0
M  V30 32 H 2.326634 -1.648415 3.467466 0
M  V30 33 H 4.232423 0.583233 3.773868 0
M  V30 34 H 4.582004 -1.099371 3.346060 0
M  V30 35 H 5.989410 0.922517 0.454550 0
M  V30 36 H 5.955674 1.493324 2.121703 0
M  V30 37 H 6.595002 -0.633275 2.799976 0
M  V30 38 H 3.751565 2.092790 0.752647 0
M  V30 39 H 2.314593 0.952614 1.020327 0
M  V30 40 H 2.872991 0.006358 -1.047956 0
M  V30 41 H 4.570620 0.563063 -0.941664 0
M  V30 42 H 4.896827 -1.504884 0.260529 0
M  V30 43 H 3.115545 -1.561474 0.826831 0
M  V30 44 H -2.144406 3.162008 2.991793 0
M  V30 45 H -4.701776 2.293102 3.394292 0
M  V30 46 H -6.038145 -1.626247 -0.179185 0
M  V30 47 H -6.026403 -3.365813 -1.870074 0
M  V30 48 H -1.823791 -3.038008 -2.327163 0
M  V30 49 H -1.754367 -1.229537 -0.586863 0
M  V30 END ATOM
M  V30 BEGIN BOND
M  V30 1 2 1 2
M  V30 2 1 2 3
M  V30 3 2 3 4
M  V30 4 1 4 5
M  V30 5 1 5 6
M  V30 6 1 6 7
M  V30 7 1 7 8
M  V30 8 1 8 9
M  V30 9 1 7 10
M  V30 10 1 10 11
M  V30 11 1 11 12
M  V30 12 1 4 13
M  V30 13 1 13 14
M  V30 14 2 14 15
M  V30 15 1 15 16
M  V30 16 2 16 17
M  V30 17 1 17 18
M  V30 18 1 18 19
M  V30 19 1 19 20
M  V30 20 2 20 21
M  V30 21 1 21 22
M  V30 22 2 22 23
M  V30 23 1 23 24
M  V30 24 1 24 25
M  V30 25 1 25 26
M  V30 26 1 25 27
M  V30 27 1 25 28
M  V30 28 1 23 29
M  V30 29 2 29 30
M  V30 30 2 19 31
M  V30 31 1 14 2
M  V30 32 1 31 16
M  V30 33 1 12 7
M  V30 34 1 30 20
M  V30 35 1 5 32
M  V30 36 1 6 33
M  V30 37 1 6 34
M  V30 38 1 8 35
M  V30 39 1 8 36
M  V30 40 1 9 37
M  V30 41 1 10 38
M  V30 42 1 10 39
M  V30 43 1 11 40
M  V30 44 1 11 41
M  V30 45 1 12 42
M  V30 46 1 12 43
M  V30 47 1 15 44
M  V30 48 1 17 45
M  V30 49 1 21 46
M  V30 50 1 22 47
M  V30 51 1 29 48
M  V30 52 1 30 49
M  V30 END BOND
M  V30 END CTAB
M  END
>  <Dataset>  (702) 
ChEMBL_Kinases

>  <Ligand_Instance>  (702) 
nan

>  <PDB_ID>  (702) 
nan

>  <Standardized_SMILES>  (702) 
O=C1N=C(NCC2(CO)CCC2)S/C1=C\c1csc(-c2ccc(OC(F)(F)F)cc2)n1

>  <Name>  (702) 
nan

>  <Pocket>  (702) 
nan

>  <ATP_Site>  (702) 
nan

>  <Peripheral>  (702) 
nan

>  <Num_H_Atoms_ProtBoundConf>  (702) 
nan

>  <Num_Resolved_Atoms>  (702) 
nan

>  <Num_Not_Resolved_Atoms>  (702) 
nan

$$$$
CHEMBL4759330
     RDKit          3D

  0  0  0  0  0  0  0  0  0  0999 V3000
M  V30 BEGIN CTAB
M  V30 COUNTS 66 70 0 0 0
M  V30 BEGIN ATOM
M  V30 1 C 7.479763 0.552183 5.501752 0
M  V30 2 O 6.289696 -0.141684 5.288353 0
M  V30 3 C 5.077605 0.372174 4.908958 0
M  V30 4 C 4.880437 1.736026 4.677838 0
M  V30 5 C 3.615837 2.193919 4.292822 0
M  V30 6 C 2.589930 1.284867 4.149923 0
M  V30 7 S 0.945355 1.713753 3.672513 0
M  V30 8 O -0.049452 0.764641 4.269491 0
M  V30 9 O 0.633311 3.118762 4.098214 0
M  V30 10 N 0.878062 1.614279 1.944506 0
M  V30 11 C 1.764981 2.518055 1.293388 0
M  V30 12 C 1.749448 2.474554 -0.197341 0
M  V30 13 N 2.094162 1.224857 -0.772354 0
M  V30 14 C 1.335194 0.079959 -0.502494 0
M  V30 15 C 0.254999 -0.443081 -1.191468 0
M  V30 16 C -0.383423 -1.596337 -0.772840 0
M  V30 17 C -1.515867 -2.085959 -1.561958 0
M  V30 18 N -1.527647 -2.703338 -2.761029 0
M  V30 19 C -2.781548 -2.999853 -3.144434 0
M  V30 20 C -3.221029 -3.672130 -4.375887 0
M  V30 21 C -4.578712 -3.881902 -4.584735 0
M  V30 22 C -4.988465 -4.524842 -5.757558 0
M  V30 23 C -4.048719 -4.927859 -6.662827 0
M  V30 24 C -2.686315 -4.707370 -6.434236 0
M  V30 25 C -2.251535 -4.069201 -5.274089 0
M  V30 26 N -3.580724 -2.555494 -2.157425 0
M  V30 27 C -2.855460 -1.989657 -1.168629 0
M  V30 28 C -3.413860 -1.396746 0.066011 0
M  V30 29 C -3.247774 -1.801327 1.371212 0
M  V30 30 C -3.862882 -1.088005 2.374106 0
M  V30 31 C -4.643391 0.018553 2.142089 0
M  V30 32 C -4.787265 0.395937 0.811215 0
M  V30 33 O -5.579595 1.521101 0.572037 0
M  V30 34 C -4.196584 -0.277002 -0.236971 0
M  V30 35 C 0.080094 -2.245675 0.378026 0
M  V30 36 C 1.158120 -1.705473 1.047903 0
M  V30 37 N 1.756516 -0.581504 0.613180 0
M  V30 38 C 2.772677 -0.083385 4.377821 0
M  V30 39 C 4.039776 -0.525882 4.761395 0
M  V30 40 H 8.385359 -0.050426 5.223495 0
M  V30 41 H 7.595722 0.686706 6.614943 0
M  V30 42 H 7.499916 1.569137 5.074717 0
M  V30 43 H 5.679148 2.433841 4.790719 0
M  V30 44 H 3.395503 3.231147 4.098659 0
M  V30 45 H -0.109114 1.939788 1.711754 0
M  V30 46 H 2.796354 2.321847 1.652584 0
M  V30 47 H 1.516208 3.554563 1.648785 0
M  V30 48 H 0.711747 2.742788 -0.515454 0
M  V30 49 H 2.425326 3.251661 -0.601548 0
M  V30 50 H 2.898099 0.997056 -1.425979 0
M  V30 51 H -0.016659 0.138064 -2.062226 0
M  V30 52 H -0.687579 -2.924846 -3.321752 0
M  V30 53 H -5.337072 -3.561197 -3.863066 0
M  V30 54 H -6.052129 -4.688894 -5.919693 0
M  V30 55 H -4.344963 -5.424289 -7.570679 0
M  V30 56 H -1.909383 -5.013003 -7.129736 0
M  V30 57 H -1.195640 -3.902250 -5.104281 0
M  V30 58 H -2.633374 -2.662822 1.472699 0
M  V30 59 H -3.674627 -1.479965 3.367065 0
M  V30 60 H -5.108132 0.548431 2.963442 0
M  V30 61 H -6.368885 1.786739 1.113575 0
M  V30 62 H -4.390096 0.123992 -1.227347 0
M  V30 63 H -0.417952 -3.146686 0.703144 0
M  V30 64 H 1.515118 -2.222198 1.950201 0
M  V30 65 H 1.986481 -0.812662 4.272766 0
M  V30 66 H 4.201689 -1.590733 4.943977 0
M  V30 END ATOM
M  V30 BEGIN BOND
M  V30 1 1 1 2
M  V30 2 1 2 3
M  V30 3 2 3 4
M  V30 4 1 4 5
M  V30 5 2 5 6
M  V30 6 1 6 7
M  V30 7 2 7 8
M  V30 8 2 7 9
M  V30 9 1 7 10
M  V30 10 1 10 11
M  V30 11 1 11 12
M  V30 12 1 12 13
M  V30 13 1 13 14
M  V30 14 2 14 15
M  V30 15 1 15 16
M  V30 16 1 16 17
M  V30 17 1 17 18
M  V30 18 1 18 19
M  V30 19 1 19 20
M  V30 20 2 20 21
M  V30 21 1 21 22
M  V30 22 2 22 23
M  V30 23 1 23 24
M  V30 24 2 24 25
M  V30 25 2 19 26
M  V30 26 1 26 27
M  V30 27 1 27 28
M  V30 28 2 28 29
M  V30 29 1 29 30
M  V30 30 2 30 31
M  V30 31 1 31 32
M  V30 32 1 32 33
M  V30 33 2 32 34
M  V30 34 2 16 35
M  V30 35 1 35 36
M  V30 36 2 36 37
M  V30 37 1 6 38
M  V30 38 2 38 39
M  V30 39 1 39 3
M  V30 40 1 37 14
M  V30 41 2 27 17
M  V30 42 1 34 28
M  V30 43 1 25 20
M  V30 44 1 1 40
M  V30 45 1 1 41
M  V30 46 1 1 42
M  V30 47 1 4 43
M  V30 48 1 5 44
M  V30 49 1 10 45
M  V30 50 1 11 46
M  V30 51 1 11 47
M  V30 52 1 12 48
M  V30 53 1 12 49
M  V30 54 1 13 50
M  V30 55 1 15 51
M  V30 56 1 18 52
M  V30 57 1 21 53
M  V30 58 1 22 54
M  V30 59 1 23 55
M  V30 60 1 24 56
M  V30 61 1 25 57
M  V30 62 1 29 58
M  V30 63 1 30 59
M  V30 64 1 31 60
M  V30 65 1 33 61
M  V30 66 1 34 62
M  V30 67 1 35 63
M  V30 68 1 36 64
M  V30 69 1 38 65
M  V30 70 1 39 66
M  V30 END BOND
M  V30 END CTAB
M  END
>  <Dataset>  (703) 
ChEMBL_Kinases

>  <Ligand_Instance>  (703) 
nan

>  <PDB_ID>  (703) 
nan

>  <Standardized_SMILES>  (703) 
COc1ccc(S(=O)(=O)NCCNc2cc(-c3[nH]c(-c4ccccc4)nc3-c3cccc(O)c3)ccn2)cc1

>  <Name>  (703) 
nan

>  <Pocket>  (703) 
nan

>  <ATP_Site>  (703) 
nan

>  <Peripheral>  (703) 
nan

>  <Num_H_Atoms_ProtBoundConf>  (703) 
nan

>  <Num_Resolved_Atoms>  (703) 
nan

>  <Num_Not_Resolved_Atoms>  (703) 
nan

$$$$
CHEMBL4759383
     RDKit          3D

  0  0  0  0  0  0  0  0  0  0999 V3000
M  V30 BEGIN CTAB
M  V30 COUNTS 91 96 0 0 0
M  V30 BEGIN ATOM
M  V30 1 C 2.438869 -4.938160 -1.843966 0
M  V30 2 C 3.650469 -4.150853 -2.174092 0
M  V30 3 C 3.302613 -2.772938 -2.707817 0 CFG=2
M  V30 4 C 4.602108 -2.059849 -3.012456 0
M  V30 5 N 5.441094 -2.332108 -4.023582 0
M  V30 6 N 6.524112 -1.568102 -3.889776 0
M  V30 7 C 6.384501 -0.789750 -2.778958 0
M  V30 8 C 7.416154 0.179266 -2.348794 0
M  V30 9 N 5.188501 -1.121033 -2.270411 0
M  V30 10 C 4.451640 -0.584348 -1.193479 0
M  V30 11 C 5.051449 0.342431 -0.383545 0
M  V30 12 N 4.342214 0.816734 0.648575 0
M  V30 13 C 3.098724 0.448169 0.937483 0
M  V30 14 N 2.464161 1.035624 2.069977 0
M  V30 15 C 1.191622 0.761318 2.598229 0
M  V30 16 C 0.298546 -0.177381 2.139268 0
M  V30 17 C -0.946504 -0.451452 2.655210 0
M  V30 18 C -1.375111 0.271423 3.746263 0
M  V30 19 C -2.658800 0.114577 4.407308 0
M  V30 20 O -3.074666 0.740025 5.419206 0
M  V30 21 N -3.573770 -0.837602 3.885578 0
M  V30 22 C -4.894785 -1.287168 4.223621 0
M  V30 23 C -5.919089 -0.862315 3.181775 0
M  V30 24 C -5.951644 -1.855625 2.050222 0
M  V30 25 N -6.310062 -3.163743 2.556102 0
M  V30 26 C -5.295622 -4.092008 2.094541 0
M  V30 27 C -6.400560 -3.187732 4.022352 0
M  V30 28 C -5.058329 -2.707364 4.538481 0
M  V30 29 C -0.523611 1.228913 4.254926 0
M  V30 30 C 0.713636 1.471910 3.709248 0
M  V30 31 O 1.506003 2.448989 4.279415 0
M  V30 32 C 1.153102 3.233646 5.391857 0
M  V30 33 N 2.532062 -0.453734 0.137183 0
M  V30 34 C 3.162410 -0.979757 -0.913501 0
M  V30 35 N 2.557612 -1.967633 -1.777044 0
M  V30 36 C 1.104786 -2.117868 -1.753278 0
M  V30 37 C 0.447061 -0.916784 -2.349025 0
M  V30 38 C -0.046390 0.244181 -1.813534 0
M  V30 39 C -0.612489 1.229346 -2.587793 0
M  V30 40 C -0.721830 1.115113 -3.955661 0
M  V30 41 C -1.345152 2.215125 -4.733858 0
M  V30 42 C -0.298230 3.198959 -5.156306 0
M  V30 43 C -2.355157 2.870788 -3.807660 0
M  V30 44 C -2.088220 1.700522 -5.941930 0
M  V30 45 C -0.239764 -0.033162 -4.531931 0
M  V30 46 C 0.322424 -1.002911 -3.729551 0
M  V30 47 H 1.879525 -4.618187 -0.946122 0
M  V30 48 H 2.809920 -5.977813 -1.566242 0
M  V30 49 H 1.826660 -5.111593 -2.739727 0
M  V30 50 H 4.363263 -4.065319 -1.344277 0
M  V30 51 H 4.170968 -4.673219 -3.008234 0
M  V30 52 H 2.721748 -2.872473 -3.629833 0
M  V30 53 H 8.218915 0.191814 -3.157632 0
M  V30 54 H 7.915593 -0.067124 -1.400016 0
M  V30 55 H 7.038138 1.242922 -2.408138 0
M  V30 56 H 6.013098 0.757690 -0.433847 0
M  V30 57 H 3.008680 1.775356 2.591879 0
M  V30 58 H 0.559239 -0.791090 1.294345 0
M  V30 59 H -1.601532 -1.204732 2.245829 0
M  V30 60 H -3.433077 -1.459043 3.059326 0
M  V30 61 H -5.181704 -0.696032 5.132930 0
M  V30 62 H -5.685065 0.152223 2.786510 0
M  V30 63 H -6.948466 -0.786402 3.584324 0
M  V30 64 H -6.744736 -1.523850 1.346295 0
M  V30 65 H -4.958062 -1.862476 1.604744 0
M  V30 66 H -5.616455 -4.493544 1.111316 0
M  V30 67 H -4.343557 -3.532132 1.858580 0
M  V30 68 H -5.061434 -4.872933 2.825938 0
M  V30 69 H -7.256955 -2.615744 4.372712 0
M  V30 70 H -6.465073 -4.272127 4.271279 0
M  V30 71 H -5.088003 -2.865084 5.646279 0
M  V30 72 H -4.344564 -3.404692 4.060258 0
M  V30 73 H -0.826633 1.815227 5.111307 0
M  V30 74 H 1.867273 4.092341 5.462527 0
M  V30 75 H 0.160237 3.688434 5.153213 0
M  V30 76 H 1.153963 2.682641 6.345067 0
M  V30 77 H 0.838063 -3.007703 -2.319185 0
M  V30 78 H 0.810294 -2.184487 -0.680785 0
M  V30 79 H 0.048433 0.297331 -0.742917 0
M  V30 80 H -0.960973 2.099435 -2.014278 0
M  V30 81 H -0.029784 3.851578 -4.282205 0
M  V30 82 H -0.719800 3.888786 -5.919439 0
M  V30 83 H 0.610943 2.685521 -5.522379 0
M  V30 84 H -3.238191 3.260162 -4.354913 0
M  V30 85 H -2.737312 2.131931 -3.057698 0
M  V30 86 H -1.838956 3.660133 -3.230541 0
M  V30 87 H -2.759415 2.512208 -6.284008 0
M  V30 88 H -2.777413 0.869296 -5.631221 0
M  V30 89 H -1.427034 1.432706 -6.770759 0
M  V30 90 H -0.335801 -0.101563 -5.602861 0
M  V30 91 H 0.661874 -1.859058 -4.320061 0
M  V30 END ATOM
M  V30 BEGIN BOND
M  V30 1 1 1 2
M  V30 2 1 2 3
M  V30 3 1 3 4
M  V30 4 2 4 5
M  V30 5 1 5 6
M  V30 6 2 6 7
M  V30 7 1 7 8
M  V30 8 1 7 9
M  V30 9 1 9 10
M  V30 10 2 10 11
M  V30 11 1 11 12
M  V30 12 2 12 13
M  V30 13 1 13 14
M  V30 14 1 14 15
M  V30 15 2 15 16
M  V30 16 1 16 17
M  V30 17 2 17 18
M  V30 18 1 18 19
M  V30 19 2 19 20
M  V30 20 1 19 21
M  V30 21 1 21 22
M  V30 22 1 22 23
M  V30 23 1 23 24
M  V30 24 1 24 25
M  V30 25 1 25 26
M  V30 26 1 25 27
M  V30 27 1 27 28
M  V30 28 1 18 29
M  V30 29 2 29 30
M  V30 30 1 30 31
M  V30 31 1 31 32
M  V30 32 1 13 33
M  V30 33 2 33 34
M  V30 34 1 34 35
M  V30 35 1 35 36
M  V30 36 1 36 37
M  V30 37 2 37 38
M  V30 38 1 38 39
M  V30 39 2 39 40
M  V30 40 1 40 41
M  V30 41 1 41 42
M  V30 42 1 41 43
M  V30 43 1 41 44
M  V30 44 1 40 45
M  V30 45 2 45 46
M  V30 46 1 35 3
M  V30 47 1 46 37
M  V30 48 1 9 4
M  V30 49 1 34 10
M  V30 50 1 30 15
M  V30 51 1 28 22
M  V30 52 1 1 47
M  V30 53 1 1 48
M  V30 54 1 1 49
M  V30 55 1 2 50
M  V30 56 1 2 51
M  V30 57 1 3 52 CFG=3
M  V30 58 1 8 53
M  V30 59 1 8 54
M  V30 60 1 8 55
M  V30 61 1 11 56
M  V30 62 1 14 57
M  V30 63 1 16 58
M  V30 64 1 17 59
M  V30 65 1 21 60
M  V30 66 1 22 61
M  V30 67 1 23 62
M  V30 68 1 23 63
M  V30 69 1 24 64
M  V30 70 1 24 65
M  V30 71 1 26 66
M  V30 72 1 26 67
M  V30 73 1 26 68
M  V30 74 1 27 69
M  V30 75 1 27 70
M  V30 76 1 28 71
M  V30 77 1 28 72
M  V30 78 1 29 73
M  V30 79 1 32 74
M  V30 80 1 32 75
M  V30 81 1 32 76
M  V30 82 1 36 77
M  V30 83 1 36 78
M  V30 84 1 38 79
M  V30 85 1 39 80
M  V30 86 1 42 81
M  V30 87 1 42 82
M  V30 88 1 42 83
M  V30 89 1 43 84
M  V30 90 1 43 85
M  V30 91 1 43 86
M  V30 92 1 44 87
M  V30 93 1 44 88
M  V30 94 1 44 89
M  V30 95 1 45 90
M  V30 96 1 46 91
M  V30 END BOND
M  V30 END CTAB
M  END
>  <Dataset>  (704) 
ChEMBL_Kinases

>  <Ligand_Instance>  (704) 
nan

>  <PDB_ID>  (704) 
nan

>  <Standardized_SMILES>  (704) 
CC[C@@H]1c2nnc(C)n2-c2cnc(Nc3ccc(C(=O)NC4CCN(C)CC4)cc3OC)nc2N1Cc1ccc(C(C)(C)C)cc1

>  <Name>  (704) 
nan

>  <Pocket>  (704) 
nan

>  <ATP_Site>  (704) 
nan

>  <Peripheral>  (704) 
nan

>  <Num_H_Atoms_ProtBoundConf>  (704) 
nan

>  <Num_Resolved_Atoms>  (704) 
nan

>  <Num_Not_Resolved_Atoms>  (704) 
nan

$$$$
CHEMBL4760071
     RDKit          3D

  0  0  0  0  0  0  0  0  0  0999 V3000
M  V30 BEGIN CTAB
M  V30 COUNTS 84 88 0 0 0
M  V30 BEGIN ATOM
M  V30 1 N 3.916914 3.607475 3.723063 0
M  V30 2 C 3.683176 2.323480 4.287902 0
M  V30 3 C 3.897753 1.078364 3.766246 0
M  V30 4 C 4.419698 0.836498 2.429559 0
M  V30 5 O 4.673230 1.833023 1.663080 0
M  V30 6 N 4.689573 -0.375671 1.850609 0
M  V30 7 C 5.157830 -1.052797 0.679647 0
M  V30 8 C 4.079475 -1.122494 -0.375373 0
M  V30 9 C 3.203916 -2.201452 -0.151018 0
M  V30 10 C 2.166810 -2.403951 -1.026457 0
M  V30 11 C 1.913113 -1.611408 -2.136435 0
M  V30 12 C 0.764925 -1.869691 -3.002647 0
M  V30 13 O 0.619789 -1.577277 -4.207835 0
M  V30 14 N -0.352630 -2.534458 -2.449462 0
M  V30 15 C -1.612135 -2.977118 -2.906558 0 CFG=1
M  V30 16 C -2.580419 -3.393143 -1.877084 0
M  V30 17 C -3.072442 -2.406698 -0.904193 0
M  V30 18 C -2.182212 -1.715771 0.040269 0
M  V30 19 C -3.100831 -0.729618 0.822465 0
M  V30 20 C -3.549964 -1.374302 2.111569 0
M  V30 21 C -2.354404 -1.294659 3.066776 0
M  V30 22 C -1.171774 -1.789122 2.294216 0
M  V30 23 C -1.562795 -2.643038 1.099883 0
M  V30 24 C -2.257852 -1.757842 -3.686379 0
M  V30 25 O -1.906831 -0.583439 -3.964559 0
M  V30 26 N -3.525506 -2.049784 -4.192632 0
M  V30 27 C -4.436130 -1.217407 -4.961964 0
M  V30 28 C -3.966536 -1.189338 -6.367082 0
M  V30 29 C -4.436797 -2.227524 -7.165804 0
M  V30 30 C -4.077239 -2.291218 -8.485265 0
M  V30 31 C -3.257650 -1.393755 -9.146968 0
M  V30 32 C -2.803912 -0.366519 -8.313363 0
M  V30 33 C -3.147793 -0.275702 -6.986539 0
M  V30 34 C 2.802024 -0.577605 -2.299779 0
M  V30 35 C 3.856785 -0.306746 -1.478564 0
M  V30 36 C 3.543181 0.080211 4.639773 0
M  V30 37 N 3.086847 0.730053 5.750332 0
M  V30 38 N 3.177594 2.048929 5.521678 0
M  V30 39 C 2.751759 2.947865 6.537992 0
M  V30 40 C 1.977263 4.066448 6.213190 0
M  V30 41 C 1.611645 4.863346 7.276922 0
M  V30 42 C 1.927474 4.667849 8.587169 0
M  V30 43 C 2.684026 3.572994 8.887354 0
M  V30 44 C 3.101871 2.708208 7.881401 0
M  V30 45 H 4.930876 3.763216 4.054118 0
M  V30 46 H 3.025692 3.863435 3.230052 0
M  V30 47 H 4.439255 -1.125548 2.585590 0
M  V30 48 H 6.055681 -0.546374 0.237222 0
M  V30 49 H 5.485916 -2.056840 0.909561 0
M  V30 50 H 3.332973 -2.879310 0.704689 0
M  V30 51 H 1.534207 -3.273938 -0.784396 0
M  V30 52 H -0.255559 -2.802317 -1.455237 0
M  V30 53 H -1.614966 -3.689987 -3.762221 0
M  V30 54 H -3.491422 -3.885960 -2.323908 0
M  V30 55 H -2.088803 -4.230654 -1.295264 0
M  V30 56 H -3.820752 -1.699796 -1.400373 0
M  V30 57 H -3.803542 -3.007467 -0.243141 0
M  V30 58 H -1.392863 -1.103586 -0.367669 0
M  V30 59 H -4.024939 -0.523830 0.234960 0
M  V30 60 H -2.549182 0.194525 1.076560 0
M  V30 61 H -4.399159 -0.766539 2.508279 0
M  V30 62 H -3.871925 -2.413120 1.983409 0
M  V30 63 H -2.575605 -1.856393 3.988034 0
M  V30 64 H -2.247756 -0.192415 3.293460 0
M  V30 65 H -0.601173 -2.465889 2.985447 0
M  V30 66 H -0.461265 -1.001780 1.996479 0
M  V30 67 H -0.642429 -3.071710 0.713401 0
M  V30 68 H -2.231433 -3.452471 1.406924 0
M  V30 69 H -3.974140 -3.001114 -4.052442 0
M  V30 70 H -4.369777 -0.141486 -4.611950 0
M  V30 71 H -5.485198 -1.555765 -4.951852 0
M  V30 72 H -5.081395 -3.021630 -6.814897 0
M  V30 73 H -4.442029 -3.111420 -9.123676 0
M  V30 74 H -2.975680 -1.435070 -10.169546 0
M  V30 75 H -2.166178 0.379501 -8.731085 0
M  V30 76 H -2.806000 0.520212 -6.341829 0
M  V30 77 H 2.666616 0.080163 -3.148686 0
M  V30 78 H 4.581882 0.488355 -1.556494 0
M  V30 79 H 3.585922 -1.000750 4.568738 0
M  V30 80 H 1.704484 4.255680 5.203180 0
M  V30 81 H 0.999602 5.747558 7.050605 0
M  V30 82 H 1.633775 5.309005 9.396670 0
M  V30 83 H 3.001210 3.316954 9.911577 0
M  V30 84 H 3.710530 1.826193 8.100909 0
M  V30 END ATOM
M  V30 BEGIN BOND
M  V30 1 1 1 2
M  V30 2 2 2 3
M  V30 3 1 3 4
M  V30 4 2 4 5
M  V30 5 1 4 6
M  V30 6 1 6 7
M  V30 7 1 7 8
M  V30 8 2 8 9
M  V30 9 1 9 10
M  V30 10 2 10 11
M  V30 11 1 11 12
M  V30 12 2 12 13
M  V30 13 1 12 14
M  V30 14 1 14 15
M  V30 15 1 15 16
M  V30 16 1 16 17
M  V30 17 1 17 18
M  V30 18 1 18 19
M  V30 19 1 19 20
M  V30 20 1 20 21
M  V30 21 1 21 22
M  V30 22 1 22 23
M  V30 23 1 15 24
M  V30 24 2 24 25
M  V30 25 1 24 26
M  V30 26 1 26 27
M  V30 27 1 27 28
M  V30 28 2 28 29
M  V30 29 1 29 30
M  V30 30 2 30 31
M  V30 31 1 31 32
M  V30 32 2 32 33
M  V30 33 1 11 34
M  V30 34 2 34 35
M  V30 35 1 3 36
M  V30 36 2 36 37
M  V30 37 1 37 38
M  V30 38 1 38 39
M  V30 39 2 39 40
M  V30 40 1 40 41
M  V30 41 2 41 42
M  V30 42 1 42 43
M  V30 43 2 43 44
M  V30 44 1 38 2
M  V30 45 1 44 39
M  V30 46 1 35 8
M  V30 47 1 23 18
M  V30 48 1 33 28
M  V30 49 1 1 45
M  V30 50 1 1 46
M  V30 51 1 6 47
M  V30 52 1 7 48
M  V30 53 1 7 49
M  V30 54 1 9 50
M  V30 55 1 10 51
M  V30 56 1 14 52
M  V30 57 1 15 53 CFG=3
M  V30 58 1 16 54
M  V30 59 1 16 55
M  V30 60 1 17 56
M  V30 61 1 17 57
M  V30 62 1 18 58
M  V30 63 1 19 59
M  V30 64 1 19 60
M  V30 65 1 20 61
M  V30 66 1 20 62
M  V30 67 1 21 63
M  V30 68 1 21 64
M  V30 69 1 22 65
M  V30 70 1 22 66
M  V30 71 1 23 67
M  V30 72 1 23 68
M  V30 73 1 26 69
M  V30 74 1 27 70
M  V30 75 1 27 71
M  V30 76 1 29 72
M  V30 77 1 30 73
M  V30 78 1 31 74
M  V30 79 1 32 75
M  V30 80 1 33 76
M  V30 81 1 34 77
M  V30 82 1 35 78
M  V30 83 1 36 79
M  V30 84 1 40 80
M  V30 85 1 41 81
M  V30 86 1 42 82
M  V30 87 1 43 83
M  V30 88 1 44 84
M  V30 END BOND
M  V30 END CTAB
M  END
>  <Dataset>  (705) 
ChEMBL_Kinases

>  <Ligand_Instance>  (705) 
nan

>  <PDB_ID>  (705) 
nan

>  <Standardized_SMILES>  (705) 
Nc1c(C(=O)NCc2ccc(C(=O)N[C@@H](CCC3CCCCC3)C(=O)NCc3ccccc3)cc2)cnn1-c1ccccc1

>  <Name>  (705) 
nan

>  <Pocket>  (705) 
nan

>  <ATP_Site>  (705) 
nan

>  <Peripheral>  (705) 
nan

>  <Num_H_Atoms_ProtBoundConf>  (705) 
nan

>  <Num_Resolved_Atoms>  (705) 
nan

>  <Num_Not_Resolved_Atoms>  (705) 
nan

$$$$
CHEMBL4759449
     RDKit          3D

  0  0  0  0  0  0  0  0  0  0999 V3000
M  V30 BEGIN CTAB
M  V30 COUNTS 76 85 0 0 0
M  V30 BEGIN ATOM
M  V30 1 C 2.042901 0.861799 -0.771304 0
M  V30 2 O 1.010405 0.099128 -0.189474 0
M  V30 3 C 1.239899 -1.267111 -0.324836 0 CFG=2
M  V30 4 C 0.238509 -1.884982 -1.284652 0 CFG=2
M  V30 5 N 0.053944 -0.990528 -2.412049 0
M  V30 6 C 0.279423 -1.148952 -3.807477 0
M  V30 7 O 0.723523 -2.289717 -4.097150 0
M  V30 8 C -0.038023 0.012683 -4.627049 0
M  V30 9 O -0.483198 1.105313 -4.188975 0
M  V30 10 C 0.181957 -0.115215 -6.062821 0
M  V30 11 C 0.648066 -1.163605 -6.804892 0
M  V30 12 N 0.694525 -0.848142 -8.120635 0
M  V30 13 C 0.258101 0.408681 -8.239762 0
M  V30 14 C 0.114748 1.190748 -9.370768 0
M  V30 15 C -0.361001 2.489419 -9.289641 0
M  V30 16 C -0.677736 2.950879 -8.043351 0
M  V30 17 C -0.536515 2.178617 -6.923671 0
M  V30 18 C -0.065933 0.885282 -6.978117 0
M  V30 19 C -1.112511 -2.051276 -0.629829 0
M  V30 20 C -0.991023 -2.649593 0.721609 0 CFG=1
M  V30 21 O 0.249513 -2.892077 1.184382 0
M  V30 22 C 1.263218 -1.982311 0.983882 0 CFG=1
M  V30 23 C 2.551004 -2.794508 1.157481 0
M  V30 24 N 1.138783 -0.998243 2.041345 0
M  V30 25 C 2.070417 -0.252161 2.620815 0
M  V30 26 C 3.418728 -0.136343 2.410347 0
M  V30 27 C 4.267620 0.698620 3.098276 0
M  V30 28 C 3.745249 1.499402 4.089260 0
M  V30 29 C 2.392249 1.422817 4.341890 0
M  V30 30 C 1.599648 0.570966 3.622048 0
M  V30 31 C 0.244377 0.333838 3.689771 0
M  V30 32 C -0.786878 0.820462 4.454013 0
M  V30 33 C -2.060608 0.375114 4.268731 0
M  V30 34 C -2.326518 -0.559950 3.320545 0
M  V30 35 C -3.478401 -1.140306 2.947624 0
M  V30 36 C -4.794575 -1.128455 3.258657 0
M  V30 37 C -5.774576 -1.883778 2.655379 0
M  V30 38 C -5.402247 -2.752415 1.622033 0
M  V30 39 C -4.070419 -2.800069 1.268350 0
M  V30 40 C -3.154777 -2.006937 1.927512 0
M  V30 41 N -1.832379 -1.933829 1.708091 0
M  V30 42 C -1.289178 -1.043881 2.558450 0
M  V30 43 C 0.018282 -0.605825 2.730019 0
M  V30 44 C -2.860070 1.091018 5.227697 0
M  V30 45 O -4.066213 1.097187 5.514495 0
M  V30 46 N -2.076688 1.980170 6.006208 0
M  V30 47 C -0.689686 1.840128 5.531799 0
M  V30 48 H 2.108675 0.622243 -1.874937 0
M  V30 49 H 3.028856 0.632250 -0.333684 0
M  V30 50 H 1.766908 1.927089 -0.705660 0
M  V30 51 H 2.225060 -1.371581 -0.853242 0
M  V30 52 H 0.630045 -2.874995 -1.585981 0
M  V30 53 H -0.320898 -0.081220 -2.007828 0
M  V30 54 H 0.942928 -2.116976 -6.416650 0
M  V30 55 H 1.009308 -1.461670 -8.900584 0
M  V30 56 H 0.370045 0.806053 -10.337217 0
M  V30 57 H -0.501366 3.160264 -10.116648 0
M  V30 58 H -1.059330 3.970121 -7.911712 0
M  V30 59 H -0.794784 2.577518 -5.974720 0
M  V30 60 H -1.657781 -1.083660 -0.561429 0
M  V30 61 H -1.740999 -2.697336 -1.273222 0
M  V30 62 H -1.503633 -3.665606 0.687547 0
M  V30 63 H 2.935003 -2.778593 2.191321 0
M  V30 64 H 2.327327 -3.900390 0.982216 0
M  V30 65 H 3.281582 -2.564971 0.364907 0
M  V30 66 H 3.878534 -0.726183 1.639459 0
M  V30 67 H 5.335842 0.731919 2.869320 0
M  V30 68 H 4.411369 2.153806 4.628470 0
M  V30 69 H 1.979719 2.051719 5.120307 0
M  V30 70 H -5.178069 -0.507278 4.024268 0
M  V30 71 H -6.824713 -1.870873 2.907312 0
M  V30 72 H -6.081258 -3.392267 1.076650 0
M  V30 73 H -3.758757 -3.462743 0.473923 0
M  V30 74 H -2.263209 2.653950 6.777849 0
M  V30 75 H -0.019267 1.465526 6.329315 0
M  V30 76 H -0.387594 2.826976 5.146484 0
M  V30 END ATOM
M  V30 BEGIN BOND
M  V30 1 1 1 2
M  V30 2 1 2 3
M  V30 3 1 3 4
M  V30 4 1 4 5
M  V30 5 1 5 6
M  V30 6 2 6 7
M  V30 7 1 6 8
M  V30 8 2 8 9
M  V30 9 1 8 10
M  V30 10 2 10 11
M  V30 11 1 11 12
M  V30 12 1 12 13
M  V30 13 2 13 14
M  V30 14 1 14 15
M  V30 15 2 15 16
M  V30 16 1 16 17
M  V30 17 2 17 18
M  V30 18 1 4 19
M  V30 19 1 19 20
M  V30 20 1 20 21
M  V30 21 1 21 22
M  V30 22 1 22 23 CFG=1
M  V30 23 1 22 24
M  V30 24 1 24 25
M  V30 25 2 25 26
M  V30 26 1 26 27
M  V30 27 2 27 28
M  V30 28 1 28 29
M  V30 29 2 29 30
M  V30 30 1 30 31
M  V30 31 2 31 32
M  V30 32 1 32 33
M  V30 33 2 33 34
M  V30 34 1 34 35
M  V30 35 2 35 36
M  V30 36 1 36 37
M  V30 37 2 37 38
M  V30 38 1 38 39
M  V30 39 2 39 40
M  V30 40 1 40 41
M  V30 41 1 41 42
M  V30 42 2 42 43
M  V30 43 1 33 44
M  V30 44 2 44 45
M  V30 45 1 44 46
M  V30 46 1 46 47
M  V30 47 1 22 3
M  V30 48 1 43 24
M  V30 49 1 18 10
M  V30 50 1 41 20
M  V30 51 1 18 13
M  V30 52 1 30 25
M  V30 53 1 43 31
M  V30 54 1 47 32
M  V30 55 1 42 34
M  V30 56 1 40 35
M  V30 57 1 1 48
M  V30 58 1 1 49
M  V30 59 1 1 50
M  V30 60 1 3 51 CFG=3
M  V30 61 1 4 52 CFG=3
M  V30 62 1 5 53
M  V30 63 1 11 54
M  V30 64 1 12 55
M  V30 65 1 14 56
M  V30 66 1 15 57
M  V30 67 1 16 58
M  V30 68 1 17 59
M  V30 69 1 19 60
M  V30 70 1 19 61
M  V30 71 1 20 62 CFG=3
M  V30 72 1 23 63
M  V30 73 1 23 64
M  V30 74 1 23 65
M  V30 75 1 26 66
M  V30 76 1 27 67
M  V30 77 1 28 68
M  V30 78 1 29 69
M  V30 79 1 36 70
M  V30 80 1 37 71
M  V30 81 1 38 72
M  V30 82 1 39 73
M  V30 83 1 46 74
M  V30 84 1 47 75
M  V30 85 1 47 76
M  V30 END BOND
M  V30 END CTAB
M  END
>  <Dataset>  (706) 
ChEMBL_Kinases

>  <Ligand_Instance>  (706) 
nan

>  <PDB_ID>  (706) 
nan

>  <Standardized_SMILES>  (706) 
CO[C@@H]1[C@H](NC(=O)C(=O)c2c[nH]c3ccccc23)C[C@H]2O[C@]1(C)n1c3ccccc3c3c4c(c5c6ccccc6n2c5c31)C(=O)NC4

>  <Name>  (706) 
nan

>  <Pocket>  (706) 
nan

>  <ATP_Site>  (706) 
nan

>  <Peripheral>  (706) 
nan

>  <Num_H_Atoms_ProtBoundConf>  (706) 
nan

>  <Num_Resolved_Atoms>  (706) 
nan

>  <Num_Not_Resolved_Atoms>  (706) 
nan

$$$$
CHEMBL4759486
     RDKit          3D

  0  0  0  0  0  0  0  0  0  0999 V3000
M  V30 BEGIN CTAB
M  V30 COUNTS 66 68 0 0 0
M  V30 BEGIN ATOM
M  V30 1 C 5.404309 -7.447857 -3.062096 0
M  V30 2 C 4.574122 -8.244348 -2.087612 0
M  V30 3 C 4.398914 -9.666332 -2.595699 0
M  V30 4 C 5.311301 -8.323673 -0.771843 0
M  V30 5 O 3.268091 -7.729406 -1.934248 0
M  V30 6 C 2.995125 -6.444727 -1.478026 0
M  V30 7 O 4.079914 -5.841596 -1.233801 0
M  V30 8 N 1.735361 -5.846624 -1.293460 0
M  V30 9 C 1.616073 -4.490772 -0.807563 0
M  V30 10 C 2.269441 -3.463356 -1.686138 0
M  V30 11 C 2.132242 -2.062301 -1.143227 0
M  V30 12 C 0.726486 -1.592796 -0.976521 0
M  V30 13 C 0.777669 -0.174840 -0.421742 0
M  V30 14 C -0.587755 0.372781 -0.215437 0
M  V30 15 O -1.564323 -0.354083 -0.508992 0
M  V30 16 N -0.654000 1.708375 0.311508 0
M  V30 17 C -1.977561 2.287945 0.535149 0
M  V30 18 C -2.789346 1.492775 1.502773 0
M  V30 19 C -4.134928 2.108602 1.703819 0
M  V30 20 N -4.058724 3.454097 2.226504 0
M  V30 21 C -4.038452 3.600292 3.586168 0
M  V30 22 O -4.080554 2.571000 4.306642 0
M  V30 23 C -3.973529 4.837963 4.190094 0
M  V30 24 C -3.954780 4.951167 5.561683 0
M  V30 25 C -3.887871 6.235040 6.119445 0
M  V30 26 F -3.872955 6.248872 7.459948 0
M  V30 27 C -3.839922 7.384761 5.359601 0
M  V30 28 C -3.859619 7.254187 3.981595 0
M  V30 29 C -3.925462 5.993495 3.442513 0
M  V30 30 N -3.946085 5.832953 2.115072 0
M  V30 31 C -3.916752 6.715316 1.123986 0
M  V30 32 S -3.843852 8.333527 1.064645 0
M  V30 33 N -3.961270 6.066634 -0.047733 0
M  V30 34 N -4.019314 4.760927 0.212062 0
M  V30 35 C -4.009773 4.616909 1.555402 0
M  V30 36 H 5.575145 -8.052762 -4.001991 0
M  V30 37 H 4.849085 -6.509053 -3.330046 0
M  V30 38 H 6.379912 -7.225310 -2.589288 0
M  V30 39 H 3.446779 -10.112409 -2.195405 0
M  V30 40 H 4.298953 -9.697281 -3.700809 0
M  V30 41 H 5.203220 -10.342356 -2.210068 0
M  V30 42 H 5.960957 -9.222948 -0.810547 0
M  V30 43 H 4.636019 -8.389224 0.099008 0
M  V30 44 H 6.039891 -7.467166 -0.664109 0
M  V30 45 H 0.979655 -6.528214 -1.557659 0
M  V30 46 H 0.529370 -4.224267 -0.772581 0
M  V30 47 H 1.980340 -4.474168 0.229814 0
M  V30 48 H 1.879635 -3.530067 -2.711949 0
M  V30 49 H 3.351518 -3.682248 -1.734873 0
M  V30 50 H 2.729857 -1.932406 -0.222817 0
M  V30 51 H 2.603625 -1.395023 -1.918340 0
M  V30 52 H 0.120815 -2.195219 -0.290756 0
M  V30 53 H 0.203888 -1.567045 -1.942335 0
M  V30 54 H 1.250070 -0.174353 0.592177 0
M  V30 55 H 1.377919 0.491430 -1.050365 0
M  V30 56 H 0.229322 2.238555 0.524561 0
M  V30 57 H -2.496816 2.504796 -0.416543 0
M  V30 58 H -1.803162 3.287388 1.030609 0
M  V30 59 H -2.267463 1.555517 2.496599 0
M  V30 60 H -2.904561 0.427444 1.227964 0
M  V30 61 H -4.670584 1.470973 2.463857 0
M  V30 62 H -4.757264 2.108490 0.781969 0
M  V30 63 H -3.993339 4.052336 6.159472 0
M  V30 64 H -3.789513 8.309694 5.941866 0
M  V30 65 H -3.819599 8.186414 3.458998 0
M  V30 66 H -3.959114 6.369276 -1.063649 0
M  V30 END ATOM
M  V30 BEGIN BOND
M  V30 1 1 1 2
M  V30 2 1 2 3
M  V30 3 1 2 4
M  V30 4 1 2 5
M  V30 5 1 5 6
M  V30 6 2 6 7
M  V30 7 1 6 8
M  V30 8 1 8 9
M  V30 9 1 9 10
M  V30 10 1 10 11
M  V30 11 1 11 12
M  V30 12 1 12 13
M  V30 13 1 13 14
M  V30 14 2 14 15
M  V30 15 1 14 16
M  V30 16 1 16 17
M  V30 17 1 17 18
M  V30 18 1 18 19
M  V30 19 1 19 20
M  V30 20 1 20 21
M  V30 21 2 21 22
M  V30 22 1 21 23
M  V30 23 2 23 24
M  V30 24 1 24 25
M  V30 25 1 25 26
M  V30 26 2 25 27
M  V30 27 1 27 28
M  V30 28 2 28 29
M  V30 29 1 29 30
M  V30 30 1 30 31
M  V30 31 2 31 32
M  V30 32 1 31 33
M  V30 33 1 33 34
M  V30 34 2 34 35
M  V30 35 1 35 20
M  V30 36 1 29 23
M  V30 37 1 35 30
M  V30 38 1 1 36
M  V30 39 1 1 37
M  V30 40 1 1 38
M  V30 41 1 3 39
M  V30 42 1 3 40
M  V30 43 1 3 41
M  V30 44 1 4 42
M  V30 45 1 4 43
M  V30 46 1 4 44
M  V30 47 1 8 45
M  V30 48 1 9 46
M  V30 49 1 9 47
M  V30 50 1 10 48
M  V30 51 1 10 49
M  V30 52 1 11 50
M  V30 53 1 11 51
M  V30 54 1 12 52
M  V30 55 1 12 53
M  V30 56 1 13 54
M  V30 57 1 13 55
M  V30 58 1 16 56
M  V30 59 1 17 57
M  V30 60 1 17 58
M  V30 61 1 18 59
M  V30 62 1 18 60
M  V30 63 1 19 61
M  V30 64 1 19 62
M  V30 65 1 24 63
M  V30 66 1 27 64
M  V30 67 1 28 65
M  V30 68 1 33 66
M  V30 END BOND
M  V30 END CTAB
M  END
>  <Dataset>  (707) 
ChEMBL_Kinases

>  <Ligand_Instance>  (707) 
nan

>  <PDB_ID>  (707) 
nan

>  <Standardized_SMILES>  (707) 
CC(C)(C)OC(=O)NCCCCCC(=O)NCCCn1c(=O)c2cc(F)ccc2n2c(=S)[nH]nc12

>  <Name>  (707) 
nan

>  <Pocket>  (707) 
nan

>  <ATP_Site>  (707) 
nan

>  <Peripheral>  (707) 
nan

>  <Num_H_Atoms_ProtBoundConf>  (707) 
nan

>  <Num_Resolved_Atoms>  (707) 
nan

>  <Num_Not_Resolved_Atoms>  (707) 
nan

$$$$
CHEMBL4759566
     RDKit          3D

  0  0  0  0  0  0  0  0  0  0999 V3000
M  V30 BEGIN CTAB
M  V30 COUNTS 57 60 0 0 0
M  V30 BEGIN ATOM
M  V30 1 C 6.374378 -2.502527 2.781484 0
M  V30 2 C 6.116243 -1.256964 1.986569 0
M  V30 3 C 4.851181 -1.352565 1.211218 0
M  V30 4 O 4.043257 -2.307247 1.210772 0
M  V30 5 N 4.565306 -0.223349 0.397014 0
M  V30 6 C 3.421170 -0.057611 -0.447363 0
M  V30 7 C 3.403903 1.268880 -1.198298 0
M  V30 8 C 3.402063 2.432910 -0.247499 0
M  V30 9 C 2.039813 3.003904 0.025248 0
M  V30 10 N 0.980163 2.100838 -0.331075 0
M  V30 11 C 0.125573 1.518439 0.690724 0
M  V30 12 S 0.563028 1.928398 2.292141 0
M  V30 13 N -0.789232 0.933239 3.116300 0
M  V30 14 C -1.393837 0.419927 2.009946 0
M  V30 15 C -2.503474 -0.399725 1.988564 0
M  V30 16 C -3.086850 -0.870970 0.835600 0
M  V30 17 C -4.256768 -1.722845 0.903645 0
M  V30 18 C -5.154236 -1.555051 1.935028 0
M  V30 19 C -6.281636 -2.335571 2.013696 0
M  V30 20 C -6.446842 -3.266843 1.022603 0
M  V30 21 N -7.642371 -4.069817 1.137753 0
M  V30 22 C -5.620534 -3.533073 -0.063858 0
M  V30 23 O -5.887792 -4.500536 -1.007957 0
M  V30 24 C -4.966612 -4.684302 -2.064188 0
M  V30 25 C -4.503413 -2.681629 -0.044528 0
M  V30 26 C -2.564968 -0.530629 -0.425963 0
M  V30 27 N -1.483449 0.268975 -0.364403 0
M  V30 28 C -0.923597 0.721644 0.768676 0
M  V30 29 C 1.034725 1.938035 -1.782440 0
M  V30 30 C 2.303352 1.261116 -2.206641 0
M  V30 31 H 6.163775 -2.301787 3.859270 0
M  V30 32 H 7.435126 -2.868735 2.641980 0
M  V30 33 H 5.747746 -3.313927 2.356510 0
M  V30 34 H 6.912619 -1.079821 1.224257 0
M  V30 35 H 6.091679 -0.359447 2.672681 0
M  V30 36 H 5.227092 0.610653 0.370860 0
M  V30 37 H 3.404186 -0.920467 -1.141453 0
M  V30 38 H 2.459451 -0.148644 0.128878 0
M  V30 39 H 4.351735 1.313717 -1.775024 0
M  V30 40 H 3.796175 2.049690 0.725155 0
M  V30 41 H 4.083391 3.219798 -0.591345 0
M  V30 42 H 1.933723 3.935723 -0.563882 0
M  V30 43 H 1.937068 3.321917 1.090656 0
M  V30 44 H -2.978340 -0.713115 2.925741 0
M  V30 45 H -5.019551 -0.819673 2.718081 0
M  V30 46 H -6.993672 -2.222094 2.813604 0
M  V30 47 H -7.405539 -5.093749 1.106172 0
M  V30 48 H -7.572458 -5.116800 1.128042 0
M  V30 49 H -5.431292 -5.243621 -2.918171 0
M  V30 50 H -4.636345 -3.702285 -2.453035 0
M  V30 51 H -4.083895 -5.290495 -1.719800 0
M  V30 52 H -3.786332 -2.807492 -0.851621 0
M  V30 53 H -3.070886 -0.935746 -1.268292 0
M  V30 54 H 0.942127 2.910264 -2.277635 0
M  V30 55 H 0.178145 1.279759 -2.024345 0
M  V30 56 H 2.048314 0.180142 -2.413029 0
M  V30 57 H 2.609430 1.657433 -3.215933 0
M  V30 END ATOM
M  V30 BEGIN BOND
M  V30 1 1 1 2
M  V30 2 1 2 3
M  V30 3 2 3 4
M  V30 4 1 3 5
M  V30 5 1 5 6
M  V30 6 1 6 7
M  V30 7 1 7 8
M  V30 8 1 8 9
M  V30 9 1 9 10
M  V30 10 1 10 11
M  V30 11 1 11 12
M  V30 12 1 12 13
M  V30 13 2 13 14
M  V30 14 1 14 15
M  V30 15 2 15 16
M  V30 16 1 16 17
M  V30 17 2 17 18
M  V30 18 1 18 19
M  V30 19 2 19 20
M  V30 20 1 20 21
M  V30 21 1 20 22
M  V30 22 1 22 23
M  V30 23 1 23 24
M  V30 24 2 22 25
M  V30 25 1 16 26
M  V30 26 2 26 27
M  V30 27 1 27 28
M  V30 28 1 10 29
M  V30 29 1 29 30
M  V30 30 1 30 7
M  V30 31 2 28 11
M  V30 32 1 28 14
M  V30 33 1 25 17
M  V30 34 1 1 31
M  V30 35 1 1 32
M  V30 36 1 1 33
M  V30 37 1 2 34
M  V30 38 1 2 35
M  V30 39 1 5 36
M  V30 40 1 6 37
M  V30 41 1 6 38
M  V30 42 1 7 39
M  V30 43 1 8 40
M  V30 44 1 8 41
M  V30 45 1 9 42
M  V30 46 1 9 43
M  V30 47 1 15 44
M  V30 48 1 18 45
M  V30 49 1 19 46
M  V30 50 1 21 47
M  V30 51 1 21 48
M  V30 52 1 24 49
M  V30 53 1 24 50
M  V30 54 1 24 51
M  V30 55 1 25 52
M  V30 56 1 26 53
M  V30 57 1 29 54
M  V30 58 1 29 55
M  V30 59 1 30 56
M  V30 60 1 30 57
M  V30 END BOND
M  V30 END CTAB
M  END
>  <Dataset>  (708) 
ChEMBL_Kinases

>  <Ligand_Instance>  (708) 
nan

>  <PDB_ID>  (708) 
nan

>  <Standardized_SMILES>  (708) 
CCC(=O)NCC1CCN(c2snc3cc(-c4ccc(N)c(OC)c4)cnc23)CC1

>  <Name>  (708) 
nan

>  <Pocket>  (708) 
nan

>  <ATP_Site>  (708) 
nan

>  <Peripheral>  (708) 
nan

>  <Num_H_Atoms_ProtBoundConf>  (708) 
nan

>  <Num_Resolved_Atoms>  (708) 
nan

>  <Num_Not_Resolved_Atoms>  (708) 
nan

$$$$
CHEMBL4759743
     RDKit          3D

  0  0  0  0  0  0  0  0  0  0999 V3000
M  V30 BEGIN CTAB
M  V30 COUNTS 43 45 0 0 0
M  V30 BEGIN ATOM
M  V30 1 C 0.967789 -6.714347 2.442113 0
M  V30 2 C 0.987128 -6.156579 1.010669 0 CFG=2
M  V30 3 O 0.176918 -5.008405 1.037137 0
M  V30 4 C 0.578866 -3.722632 0.701249 0
M  V30 5 C -0.475609 -2.812068 0.836109 0
M  V30 6 C -0.317664 -1.450716 0.555045 0
M  V30 7 C 0.955000 -1.039816 0.129282 0
M  V30 8 C 1.183913 0.375841 -0.179601 0
M  V30 9 C 2.076325 0.840969 -1.129576 0
M  V30 10 N 2.205765 2.165871 -1.330888 0
M  V30 11 C 1.503687 3.087088 -0.648534 0
M  V30 12 N 1.657323 4.468445 -0.877043 0
M  V30 13 C 0.595846 2.695620 0.313771 0
M  V30 14 C -0.221642 3.608674 1.114665 0
M  V30 15 C -0.325040 3.395418 2.494941 0
M  V30 16 C -1.065892 4.184178 3.359730 0
M  V30 17 C -1.734880 5.246642 2.776059 0
M  V30 18 Cl -2.695183 6.285495 3.828976 0
M  V30 19 C -1.666973 5.501789 1.421170 0
M  V30 20 C -0.916998 4.689555 0.599866 0
M  V30 21 C 0.459967 1.340777 0.523235 0
M  V30 22 C 2.006661 -1.928915 -0.008493 0
M  V30 23 C 1.812258 -3.265430 0.278406 0
M  V30 24 C 0.275702 -7.156560 0.171080 0
M  V30 25 O 0.845237 -8.257816 0.026080 0
M  V30 26 O -0.919171 -7.194814 -0.533818 0
M  V30 27 H 1.739826 -6.181644 3.029535 0
M  V30 28 H 1.082602 -7.814157 2.460197 0
M  V30 29 H -0.010948 -6.486586 2.911997 0
M  V30 30 H 2.000315 -5.943057 0.677433 0
M  V30 31 H -1.496385 -3.065209 1.164219 0
M  V30 32 H -1.116541 -0.744229 0.653490 0
M  V30 33 H 2.625652 0.091237 -1.661382 0
M  V30 34 H 2.124683 4.898299 -0.043145 0
M  V30 35 H 1.257659 4.666133 -1.819637 0
M  V30 36 H 0.207627 2.551950 2.952121 0
M  V30 37 H -1.087928 3.944609 4.413994 0
M  V30 38 H -2.190326 6.332622 0.962490 0
M  V30 39 H -0.808280 4.815844 -0.468552 0
M  V30 40 H -0.250355 0.999852 1.277683 0
M  V30 41 H 2.989584 -1.622650 -0.335060 0
M  V30 42 H 2.555241 -4.046475 0.207496 0
M  V30 43 H -1.596795 -7.954183 -0.405719 0
M  V30 END ATOM
M  V30 BEGIN BOND
M  V30 1 1 1 2
M  V30 2 1 2 3
M  V30 3 1 3 4
M  V30 4 2 4 5
M  V30 5 1 5 6
M  V30 6 2 6 7
M  V30 7 1 7 8
M  V30 8 2 8 9
M  V30 9 1 9 10
M  V30 10 2 10 11
M  V30 11 1 11 12
M  V30 12 1 11 13
M  V30 13 1 13 14
M  V30 14 2 14 15
M  V30 15 1 15 16
M  V30 16 2 16 17
M  V30 17 1 17 18
M  V30 18 1 17 19
M  V30 19 2 19 20
M  V30 20 2 13 21
M  V30 21 1 7 22
M  V30 22 2 22 23
M  V30 23 1 2 24
M  V30 24 2 24 25
M  V30 25 1 24 26
M  V30 26 1 23 4
M  V30 27 1 21 8
M  V30 28 1 20 14
M  V30 29 1 1 27
M  V30 30 1 1 28
M  V30 31 1 1 29
M  V30 32 1 2 30 CFG=3
M  V30 33 1 5 31
M  V30 34 1 6 32
M  V30 35 1 9 33
M  V30 36 1 12 34
M  V30 37 1 12 35
M  V30 38 1 15 36
M  V30 39 1 16 37
M  V30 40 1 19 38
M  V30 41 1 20 39
M  V30 42 1 21 40
M  V30 43 1 22 41
M  V30 44 1 23 42
M  V30 45 1 26 43
M  V30 END BOND
M  V30 END CTAB
M  END
>  <Dataset>  (709) 
ChEMBL_Kinases

>  <Ligand_Instance>  (709) 
nan

>  <PDB_ID>  (709) 
nan

>  <Standardized_SMILES>  (709) 
C[C@H](Oc1ccc(-c2cnc(N)c(-c3ccc(Cl)cc3)c2)cc1)C(=O)O

>  <Name>  (709) 
nan

>  <Pocket>  (709) 
nan

>  <ATP_Site>  (709) 
nan

>  <Peripheral>  (709) 
nan

>  <Num_H_Atoms_ProtBoundConf>  (709) 
nan

>  <Num_Resolved_Atoms>  (709) 
nan

>  <Num_Not_Resolved_Atoms>  (709) 
nan

$$$$
CHEMBL4759781
     RDKit          3D

  0  0  0  0  0  0  0  0  0  0999 V3000
M  V30 BEGIN CTAB
M  V30 COUNTS 69 73 0 0 0
M  V30 BEGIN ATOM
M  V30 1 C 0.267526 -1.118899 3.015401 0
M  V30 2 C 1.543852 -0.513546 2.543860 0
M  V30 3 C 2.787996 -0.745492 3.089554 0
M  V30 4 C 3.915522 -0.111823 2.555916 0
M  V30 5 C 3.785898 0.745360 1.484110 0
M  V30 6 C 5.005638 1.368597 0.980937 0
M  V30 7 O 6.089700 1.070090 1.547201 0
M  V30 8 N 5.087569 2.285677 -0.093404 0
M  V30 9 C 6.267698 2.906904 -0.603093 0
M  V30 10 C 6.266629 3.387137 -2.058017 0
M  V30 11 C 6.089445 4.396740 -0.985958 0
M  V30 12 C 2.524945 0.951629 0.966121 0
M  V30 13 C 1.392772 0.340219 1.471652 0
M  V30 14 N 0.214334 0.712913 0.767607 0
M  V30 15 C -0.269028 1.917284 1.112078 0
M  V30 16 C -1.386763 2.491596 0.569202 0
M  V30 17 N -2.055466 1.812582 -0.375268 0
M  V30 18 C -1.648453 0.608568 -0.780207 0
M  V30 19 N -2.029077 -0.386861 -1.687380 0
M  V30 20 C -2.405377 -1.370122 -2.583732 0
M  V30 21 C -1.507935 -2.600913 -2.476063 0
M  V30 22 C -0.470418 -2.799108 -3.361953 0
M  V30 23 C 0.318993 -3.922095 -3.189497 0
M  V30 24 C 0.083334 -4.828690 -2.159087 0
M  V30 25 C -0.970643 -4.613921 -1.271670 0
M  V30 26 C -1.781201 -3.487422 -1.426770 0
M  V30 27 O -2.831813 -3.278319 -0.544033 0
M  V30 28 C -3.102629 -4.178854 0.509427 0
M  V30 29 C -4.298589 -3.765193 1.317873 0
M  V30 30 N -4.153539 -2.503788 1.937064 0
M  V30 31 C -5.275204 -2.049549 2.682050 0
M  V30 32 C -5.070946 -0.561430 2.819948 0
M  V30 33 C -3.771659 -0.243206 2.146397 0
M  V30 34 C -3.608794 -1.438385 1.195584 0
M  V30 35 C -0.497101 0.050668 -0.200255 0
M  V30 36 O 0.115112 -1.057817 -0.382661 0
M  V30 37 H 0.035820 -2.034633 2.437899 0
M  V30 38 H -0.545618 -0.366120 3.007948 0
M  V30 39 H 0.412079 -1.368641 4.105123 0
M  V30 40 H 2.839558 -1.425946 3.929122 0
M  V30 41 H 4.837462 -0.372596 3.068633 0
M  V30 42 H 4.205539 2.545457 -0.574148 0
M  V30 43 H 7.274697 2.696086 -0.166640 0
M  V30 44 H 7.173354 3.296049 -2.657079 0
M  V30 45 H 5.322691 3.105258 -2.613228 0
M  V30 46 H 5.071333 4.835905 -0.843906 0
M  V30 47 H 6.928148 5.078595 -0.842617 0
M  V30 48 H 2.523889 1.647167 0.117655 0
M  V30 49 H 0.179886 2.552299 1.854212 0
M  V30 50 H -1.860267 3.439953 0.766200 0
M  V30 51 H -2.855371 0.211935 -2.018699 0
M  V30 52 H -2.409390 -1.117669 -3.680187 0
M  V30 53 H -3.430002 -1.801642 -2.378040 0
M  V30 54 H -0.307237 -2.072325 -4.161957 0
M  V30 55 H 1.154769 -4.107522 -3.881404 0
M  V30 56 H 0.699019 -5.706115 -2.021134 0
M  V30 57 H -1.197543 -5.298808 -0.443714 0
M  V30 58 H -2.181465 -4.146502 1.158501 0
M  V30 59 H -3.263850 -5.220089 0.149246 0
M  V30 60 H -5.188619 -3.712634 0.635723 0
M  V30 61 H -4.557480 -4.587857 2.027518 0
M  V30 62 H -5.323583 -2.486347 3.707987 0
M  V30 63 H -6.253769 -2.269723 2.206670 0
M  V30 64 H -5.874547 0.001551 2.319978 0
M  V30 65 H -5.078672 -0.253506 3.895313 0
M  V30 66 H -3.785424 0.668131 1.518591 0
M  V30 67 H -2.925261 -0.215772 2.860944 0
M  V30 68 H -2.510765 -1.616319 1.017722 0
M  V30 69 H -4.122873 -1.173930 0.269161 0
M  V30 END ATOM
M  V30 BEGIN BOND
M  V30 1 1 1 2
M  V30 2 2 2 3
M  V30 3 1 3 4
M  V30 4 2 4 5
M  V30 5 1 5 6
M  V30 6 2 6 7
M  V30 7 1 6 8
M  V30 8 1 8 9
M  V30 9 1 9 10
M  V30 10 1 10 11
M  V30 11 1 5 12
M  V30 12 2 12 13
M  V30 13 1 13 14
M  V30 14 1 14 15
M  V30 15 2 15 16
M  V30 16 1 16 17
M  V30 17 2 17 18
M  V30 18 1 18 19
M  V30 19 1 19 20
M  V30 20 1 20 21
M  V30 21 2 21 22
M  V30 22 1 22 23
M  V30 23 2 23 24
M  V30 24 1 24 25
M  V30 25 2 25 26
M  V30 26 1 26 27
M  V30 27 1 27 28
M  V30 28 1 28 29
M  V30 29 1 29 30
M  V30 30 1 30 31
M  V30 31 1 31 32
M  V30 32 1 32 33
M  V30 33 1 33 34
M  V30 34 1 18 35
M  V30 35 2 35 36
M  V30 36 1 13 2
M  V30 37 1 35 14
M  V30 38 1 11 9
M  V30 39 1 26 21
M  V30 40 1 34 30
M  V30 41 1 1 37
M  V30 42 1 1 38
M  V30 43 1 1 39
M  V30 44 1 3 40
M  V30 45 1 4 41
M  V30 46 1 8 42
M  V30 47 1 9 43
M  V30 48 1 10 44
M  V30 49 1 10 45
M  V30 50 1 11 46
M  V30 51 1 11 47
M  V30 52 1 12 48
M  V30 53 1 15 49
M  V30 54 1 16 50
M  V30 55 1 19 51
M  V30 56 1 20 52
M  V30 57 1 20 53
M  V30 58 1 22 54
M  V30 59 1 23 55
M  V30 60 1 24 56
M  V30 61 1 25 57
M  V30 62 1 28 58
M  V30 63 1 28 59
M  V30 64 1 29 60
M  V30 65 1 29 61
M  V30 66 1 31 62
M  V30 67 1 31 63
M  V30 68 1 32 64
M  V30 69 1 32 65
M  V30 70 1 33 66
M  V30 71 1 33 67
M  V30 72 1 34 68
M  V30 73 1 34 69
M  V30 END BOND
M  V30 END CTAB
M  END
>  <Dataset>  (710) 
ChEMBL_Kinases

>  <Ligand_Instance>  (710) 
nan

>  <PDB_ID>  (710) 
nan

>  <Standardized_SMILES>  (710) 
Cc1ccc(C(=O)NC2CC2)cc1-n1ccnc(NCc2ccccc2OCCN2CCCC2)c1=O

>  <Name>  (710) 
nan

>  <Pocket>  (710) 
nan

>  <ATP_Site>  (710) 
nan

>  <Peripheral>  (710) 
nan

>  <Num_H_Atoms_ProtBoundConf>  (710) 
nan

>  <Num_Resolved_Atoms>  (710) 
nan

>  <Num_Not_Resolved_Atoms>  (710) 
nan

$$$$
CHEMBL4759820
     RDKit          3D

  0  0  0  0  0  0  0  0  0  0999 V3000
M  V30 BEGIN CTAB
M  V30 COUNTS 41 43 0 0 0
M  V30 BEGIN ATOM
M  V30 1 O 0.003691 -2.961461 0.720201 0
M  V30 2 C -1.124126 -3.144333 1.281503 0
M  V30 3 N -2.035127 -2.070648 1.126827 0
M  V30 4 C -1.381041 -1.046229 0.344080 0
M  V30 5 C -0.701973 -0.152160 1.167303 0
M  V30 6 C -0.010327 0.903997 0.601000 0
M  V30 7 C -0.016902 1.036833 -0.772801 0
M  V30 8 O 0.650233 2.064140 -1.401868 0
M  V30 9 C 1.377498 3.051979 -0.813202 0
M  V30 10 C 0.787711 4.246728 -0.433205 0
M  V30 11 C 1.626204 5.191180 0.161951 0
M  V30 12 C 2.954929 4.971797 0.367897 0
M  V30 13 C 3.533820 3.766598 -0.019051 0
M  V30 14 C 4.977305 3.476642 0.182517 0
M  V30 15 F 5.157771 2.394246 1.030506 0
M  V30 16 F 5.619029 3.183173 -1.025290 0
M  V30 17 F 5.581145 4.622676 0.696885 0
M  V30 18 C 2.736153 2.792181 -0.617855 0
M  V30 19 C -0.692806 0.145934 -1.582598 0
M  V30 20 Cl -0.754239 0.238336 -3.329832 0
M  V30 21 C -1.389002 -0.915273 -1.030875 0
M  V30 22 C -1.348290 -4.396477 1.998347 0
M  V30 23 C -2.557621 -4.625541 2.616570 0
M  V30 24 C -2.829687 -5.803528 3.316435 0
M  V30 25 Cl -4.353730 -6.100337 4.099584 0
M  V30 26 C -1.832955 -6.757663 3.375880 0
M  V30 27 C -0.621035 -6.538619 2.761567 0
M  V30 28 Cl 0.687458 -7.724927 2.806617 0
M  V30 29 C -0.342549 -5.369155 2.063269 0
M  V30 30 O 0.885619 -5.163968 1.449082 0
M  V30 31 H -2.977210 -2.210219 1.589153 0
M  V30 32 H -0.649658 -0.187478 2.236575 0
M  V30 33 H 0.552426 1.659873 1.138907 0
M  V30 34 H -0.267585 4.444615 -0.586609 0
M  V30 35 H 1.203444 6.133650 0.471312 0
M  V30 36 H 3.643502 5.667600 0.822365 0
M  V30 37 H 3.165287 1.841711 -0.929213 0
M  V30 38 H -1.956921 -1.680461 -1.550810 0
M  V30 39 H -3.373762 -3.930783 2.610960 0
M  V30 40 H -1.927981 -7.700034 3.884641 0
M  V30 41 H 1.554139 -4.450647 1.726358 0
M  V30 END ATOM
M  V30 BEGIN BOND
M  V30 1 2 1 2
M  V30 2 1 2 3
M  V30 3 1 3 4
M  V30 4 2 4 5
M  V30 5 1 5 6
M  V30 6 2 6 7
M  V30 7 1 7 8
M  V30 8 1 8 9
M  V30 9 2 9 10
M  V30 10 1 10 11
M  V30 11 2 11 12
M  V30 12 1 12 13
M  V30 13 1 13 14
M  V30 14 1 14 15
M  V30 15 1 14 16
M  V30 16 1 14 17
M  V30 17 2 13 18
M  V30 18 1 7 19
M  V30 19 1 19 20
M  V30 20 2 19 21
M  V30 21 1 2 22
M  V30 22 2 22 23
M  V30 23 1 23 24
M  V30 24 1 24 25
M  V30 25 2 24 26
M  V30 26 1 26 27
M  V30 27 1 27 28
M  V30 28 2 27 29
M  V30 29 1 29 30
M  V30 30 1 21 4
M  V30 31 1 29 22
M  V30 32 1 18 9
M  V30 33 1 3 31
M  V30 34 1 5 32
M  V30 35 1 6 33
M  V30 36 1 10 34
M  V30 37 1 11 35
M  V30 38 1 12 36
M  V30 39 1 18 37
M  V30 40 1 21 38
M  V30 41 1 23 39
M  V30 42 1 26 40
M  V30 43 1 30 41
M  V30 END BOND
M  V30 END CTAB
M  END
>  <Dataset>  (711) 
ChEMBL_Kinases

>  <Ligand_Instance>  (711) 
nan

>  <PDB_ID>  (711) 
nan

>  <Standardized_SMILES>  (711) 
O=C(Nc1ccc(Oc2cccc(C(F)(F)F)c2)c(Cl)c1)c1cc(Cl)cc(Cl)c1O

>  <Name>  (711) 
nan

>  <Pocket>  (711) 
nan

>  <ATP_Site>  (711) 
nan

>  <Peripheral>  (711) 
nan

>  <Num_H_Atoms_ProtBoundConf>  (711) 
nan

>  <Num_Resolved_Atoms>  (711) 
nan

>  <Num_Not_Resolved_Atoms>  (711) 
nan

$$$$
CHEMBL4759850
     RDKit          3D

  0  0  0  0  0  0  0  0  0  0999 V3000
M  V30 BEGIN CTAB
M  V30 COUNTS 70 73 0 0 0
M  V30 BEGIN ATOM
M  V30 1 C 3.334830 1.537175 7.195079 0
M  V30 2 O 4.385440 1.415089 6.243678 0
M  V30 3 C 4.125182 1.025909 4.936906 0
M  V30 4 C 2.806529 0.760936 4.595223 0
M  V30 5 C 2.520015 0.376193 3.317405 0
M  V30 6 C 1.266145 0.079567 2.829770 0
M  V30 7 C 0.965898 -0.310128 1.541901 0
M  V30 8 C -0.471971 -0.588170 1.211832 0
M  V30 9 O -1.005498 0.607943 0.781542 0
M  V30 10 C -2.352474 0.549591 0.421418 0
M  V30 11 C -2.505158 -0.405989 -0.670830 0
M  V30 12 C -2.065040 -0.025070 -1.900022 0
M  V30 13 C -1.449840 1.177713 -2.363802 0
M  V30 14 C -0.235422 1.036149 -3.044521 0
M  V30 15 C 0.532447 2.047072 -3.606359 0
M  V30 16 C 0.047138 3.321953 -3.479950 0
M  V30 17 F 0.738021 4.362003 -4.000240 0
M  V30 18 C -1.134284 3.559947 -2.830242 0
M  V30 19 C -1.826032 2.498255 -2.306595 0
M  V30 20 N -2.193989 -0.932705 -2.908771 0
M  V30 21 C -2.726251 -2.153421 -2.735314 0
M  V30 22 N -2.862300 -3.100640 -3.786413 0
M  V30 23 C -2.422498 -2.790974 -5.133718 0
M  V30 24 S -3.565961 -4.664598 -3.473580 0
M  V30 25 C -2.595936 -5.559478 -2.294628 0
M  V30 26 O -4.996729 -4.523026 -3.001469 0
M  V30 27 O -3.609419 -5.469594 -4.739442 0
M  V30 28 N -3.146292 -2.480486 -1.504936 0
M  V30 29 C -3.057549 -1.649756 -0.454274 0
M  V30 30 C -3.565147 -2.131146 0.824880 0
M  V30 31 C -5.053134 -1.744690 0.864691 0
M  V30 32 C -3.559904 -3.651819 0.816606 0
M  V30 33 O 1.998938 -0.398032 0.722530 0
M  V30 34 C 3.212930 -0.126365 1.137783 0
M  V30 35 O 4.142249 -0.239161 0.277609 0
M  V30 36 C 3.585092 0.271641 2.421520 0
M  V30 37 C 4.873247 0.533743 2.767343 0
M  V30 38 C 5.180258 0.923653 4.054223 0
M  V30 39 O 6.453446 1.214617 4.512698 0
M  V30 40 C 7.551126 1.117830 3.627885 0
M  V30 41 H 3.651902 2.048513 8.105294 0
M  V30 42 H 2.481088 2.154368 6.794811 0
M  V30 43 H 2.877339 0.550590 7.449225 0
M  V30 44 H 1.984877 0.843200 5.293526 0
M  V30 45 H 0.454458 0.174498 3.567125 0
M  V30 46 H -0.455249 -1.390334 0.458985 0
M  V30 47 H -0.932472 -0.984926 2.143253 0
M  V30 48 H -2.631581 1.552277 0.110310 0
M  V30 49 H -2.875933 0.231691 1.354644 0
M  V30 50 H 0.199857 0.032953 -3.175057 0
M  V30 51 H 1.453531 1.840986 -4.110729 0
M  V30 52 H -1.519550 4.555321 -2.727943 0
M  V30 53 H -2.757855 2.720896 -1.824432 0
M  V30 54 H -1.405801 -3.234623 -5.228713 0
M  V30 55 H -3.075305 -3.306893 -5.870305 0
M  V30 56 H -2.359254 -1.697612 -5.310871 0
M  V30 57 H -3.260335 -5.837848 -1.448239 0
M  V30 58 H -1.726932 -4.957580 -1.944145 0
M  V30 59 H -2.146456 -6.475635 -2.736216 0
M  V30 60 H -3.139343 -1.715456 1.730096 0
M  V30 61 H -5.382019 -1.590231 1.902387 0
M  V30 62 H -5.646721 -2.521343 0.333144 0
M  V30 63 H -5.155313 -0.756266 0.338365 0
M  V30 64 H -4.088003 -4.081366 1.700700 0
M  V30 65 H -4.173433 -3.937011 -0.080302 0
M  V30 66 H -2.573269 -4.084875 0.652713 0
M  V30 67 H 5.676203 0.444099 2.052463 0
M  V30 68 H 7.447334 0.203974 3.039690 0
M  V30 69 H 7.549526 2.013115 2.943316 0
M  V30 70 H 8.492381 1.099463 4.237994 0
M  V30 END ATOM
M  V30 BEGIN BOND
M  V30 1 1 1 2
M  V30 2 1 2 3
M  V30 3 2 3 4
M  V30 4 1 4 5
M  V30 5 1 5 6
M  V30 6 2 6 7
M  V30 7 1 7 8
M  V30 8 1 8 9
M  V30 9 1 9 10
M  V30 10 1 10 11
M  V30 11 1 11 12
M  V30 12 1 12 13
M  V30 13 2 13 14
M  V30 14 1 14 15
M  V30 15 2 15 16
M  V30 16 1 16 17
M  V30 17 1 16 18
M  V30 18 2 18 19
M  V30 19 2 12 20
M  V30 20 1 20 21
M  V30 21 1 21 22
M  V30 22 1 22 23
M  V30 23 1 22 24
M  V30 24 1 24 25
M  V30 25 2 24 26
M  V30 26 2 24 27
M  V30 27 2 21 28
M  V30 28 1 28 29
M  V30 29 1 29 30
M  V30 30 1 30 31
M  V30 31 1 30 32
M  V30 32 1 7 33
M  V30 33 1 33 34
M  V30 34 2 34 35
M  V30 35 1 34 36
M  V30 36 1 36 37
M  V30 37 2 37 38
M  V30 38 1 38 39
M  V30 39 1 39 40
M  V30 40 1 38 3
M  V30 41 2 36 5
M  V30 42 2 29 11
M  V30 43 1 19 13
M  V30 44 1 1 41
M  V30 45 1 1 42
M  V30 46 1 1 43
M  V30 47 1 4 44
M  V30 48 1 6 45
M  V30 49 1 8 46
M  V30 50 1 8 47
M  V30 51 1 10 48
M  V30 52 1 10 49
M  V30 53 1 14 50
M  V30 54 1 15 51
M  V30 55 1 18 52
M  V30 56 1 19 53
M  V30 57 1 23 54
M  V30 58 1 23 55
M  V30 59 1 23 56
M  V30 60 1 25 57
M  V30 61 1 25 58
M  V30 62 1 25 59
M  V30 63 1 30 60
M  V30 64 1 31 61
M  V30 65 1 31 62
M  V30 66 1 31 63
M  V30 67 1 32 64
M  V30 68 1 32 65
M  V30 69 1 32 66
M  V30 70 1 37 67
M  V30 71 1 40 68
M  V30 72 1 40 69
M  V30 73 1 40 70
M  V30 END BOND
M  V30 END CTAB
M  END
>  <Dataset>  (712) 
ChEMBL_Kinases

>  <Ligand_Instance>  (712) 
nan

>  <PDB_ID>  (712) 
nan

>  <Standardized_SMILES>  (712) 
COc1cc2cc(COCc3c(-c4ccc(F)cc4)nc(N(C)S(C)(=O)=O)nc3C(C)C)oc(=O)c2cc1OC

>  <Name>  (712) 
nan

>  <Pocket>  (712) 
nan

>  <ATP_Site>  (712) 
nan

>  <Peripheral>  (712) 
nan

>  <Num_H_Atoms_ProtBoundConf>  (712) 
nan

>  <Num_Resolved_Atoms>  (712) 
nan

>  <Num_Not_Resolved_Atoms>  (712) 
nan

$$$$
CHEMBL4759851
     RDKit          3D

  0  0  0  0  0  0  0  0  0  0999 V3000
M  V30 BEGIN CTAB
M  V30 COUNTS 79 84 0 0 0
M  V30 BEGIN ATOM
M  V30 1 C 3.624819 -0.482356 4.923162 0
M  V30 2 C 3.020704 -0.754012 3.587081 0
M  V30 3 C 4.090856 -0.888328 2.494674 0 CFG=2
M  V30 4 C 4.801640 0.402307 2.480068 0
M  V30 5 N 5.658500 0.851735 3.392222 0
M  V30 6 N 6.020031 2.068585 3.055331 0
M  V30 7 C 5.402465 2.450918 1.897855 0
M  V30 8 C 5.633159 3.773040 1.279195 0
M  V30 9 N 4.662305 1.387935 1.582093 0
M  V30 10 C 3.849771 1.145064 0.468361 0
M  V30 11 C 3.620121 2.127549 -0.448127 0
M  V30 12 N 2.804851 1.884799 -1.479365 0
M  V30 13 C 2.193019 0.690765 -1.650174 0
M  V30 14 N 1.284082 0.597164 -2.780189 0
M  V30 15 C -0.143356 0.499185 -2.541210 0
M  V30 16 C -0.477436 0.320863 -1.189668 0
M  V30 17 C -1.815604 0.166235 -0.964989 0
M  V30 18 C -2.853714 0.156599 -1.819557 0
M  V30 19 C -4.259878 -0.064076 -1.571363 0
M  V30 20 O -5.158739 0.053637 -2.412734 0
M  V30 21 N -4.687614 -0.457846 -0.291751 0
M  V30 22 C -5.973402 -0.787381 0.308119 0
M  V30 23 C -6.389679 -2.175479 -0.239749 0
M  V30 24 C -7.828192 -2.345164 0.080950 0
M  V30 25 N -8.185164 -1.832882 1.376866 0
M  V30 26 C -8.987160 -0.637879 1.364322 0
M  V30 27 C -7.063894 -1.749100 2.277856 0
M  V30 28 C -5.903745 -0.950381 1.777985 0
M  V30 29 C -2.467289 0.342036 -3.155573 0
M  V30 30 C -1.138811 0.513595 -3.543288 0
M  V30 31 O -0.713974 0.696328 -4.830298 0
M  V30 32 C -1.530209 0.740580 -5.958607 0
M  V30 33 N 2.433796 -0.262521 -0.738772 0
M  V30 34 C 3.231131 -0.096067 0.314251 0
M  V30 35 N 3.386816 -1.163756 1.238708 0
M  V30 36 C 2.930330 -2.540972 1.017327 0
M  V30 37 C 3.847291 -3.140686 0.017013 0
M  V30 38 C 3.806511 -3.197988 -1.339747 0
M  V30 39 C 4.754529 -3.774873 -2.147689 0
M  V30 40 C 5.857962 -4.356830 -1.538435 0
M  V30 41 Br 7.240904 -5.172564 -2.583648 0
M  V30 42 C 5.966249 -4.338877 -0.170767 0
M  V30 43 C 4.968831 -3.735107 0.610902 0
M  V30 44 H 3.060833 -1.062953 5.696339 0
M  V30 45 H 3.575845 0.576408 5.258619 0
M  V30 46 H 4.686268 -0.849594 4.995279 0
M  V30 47 H 2.413837 -1.667887 3.632659 0
M  V30 48 H 2.339705 0.089599 3.337864 0
M  V30 49 H 4.722488 -1.728135 2.815601 0
M  V30 50 H 4.711233 4.356793 1.288092 0
M  V30 51 H 6.080490 3.706601 0.250976 0
M  V30 52 H 6.448653 4.325570 1.844951 0
M  V30 53 H 4.009002 3.114312 -0.472840 0
M  V30 54 H 1.792363 0.595484 -3.671717 0
M  V30 55 H 0.216264 0.299592 -0.367121 0
M  V30 56 H -2.078166 0.034627 0.092625 0
M  V30 57 H -3.922211 -0.548589 0.442327 0
M  V30 58 H -6.730528 -0.125202 -0.044965 0
M  V30 59 H -5.789026 -2.886749 0.362387 0
M  V30 60 H -6.075643 -2.284930 -1.268965 0
M  V30 61 H -8.160864 -3.424796 0.086961 0
M  V30 62 H -8.443952 -1.812796 -0.668532 0
M  V30 63 H -9.451710 -0.420727 0.393057 0
M  V30 64 H -8.445075 0.237840 1.818103 0
M  V30 65 H -9.830302 -0.810853 2.092293 0
M  V30 66 H -6.795657 -2.818324 2.524022 0
M  V30 67 H -7.417524 -1.304372 3.227855 0
M  V30 68 H -4.989057 -1.616715 1.961523 0
M  V30 69 H -5.761048 -0.008650 2.357404 0
M  V30 70 H -3.162092 0.373469 -3.980288 0
M  V30 71 H -2.444626 0.112993 -5.899843 0
M  V30 72 H -1.820141 1.823105 -6.111090 0
M  V30 73 H -0.927220 0.486022 -6.854038 0
M  V30 74 H 2.971256 -3.059509 1.989510 0
M  V30 75 H 1.903339 -2.560107 0.582365 0
M  V30 76 H 2.928940 -2.748335 -1.773196 0
M  V30 77 H 4.627046 -3.765444 -3.225734 0
M  V30 78 H 6.820287 -4.787134 0.343030 0
M  V30 79 H 5.144633 -3.780691 1.699644 0
M  V30 END ATOM
M  V30 BEGIN BOND
M  V30 1 1 1 2
M  V30 2 1 2 3
M  V30 3 1 3 4
M  V30 4 2 4 5
M  V30 5 1 5 6
M  V30 6 2 6 7
M  V30 7 1 7 8
M  V30 8 1 7 9
M  V30 9 1 9 10
M  V30 10 2 10 11
M  V30 11 1 11 12
M  V30 12 2 12 13
M  V30 13 1 13 14
M  V30 14 1 14 15
M  V30 15 2 15 16
M  V30 16 1 16 17
M  V30 17 2 17 18
M  V30 18 1 18 19
M  V30 19 2 19 20
M  V30 20 1 19 21
M  V30 21 1 21 22
M  V30 22 1 22 23
M  V30 23 1 23 24
M  V30 24 1 24 25
M  V30 25 1 25 26
M  V30 26 1 25 27
M  V30 27 1 27 28
M  V30 28 1 18 29
M  V30 29 2 29 30
M  V30 30 1 30 31
M  V30 31 1 31 32
M  V30 32 1 13 33
M  V30 33 2 33 34
M  V30 34 1 34 35
M  V30 35 1 35 36
M  V30 36 1 36 37
M  V30 37 2 37 38
M  V30 38 1 38 39
M  V30 39 2 39 40
M  V30 40 1 40 41
M  V30 41 1 40 42
M  V30 42 2 42 43
M  V30 43 1 35 3
M  V30 44 1 43 37
M  V30 45 1 9 4
M  V30 46 1 34 10
M  V30 47 1 30 15
M  V30 48 1 28 22
M  V30 49 1 1 44
M  V30 50 1 1 45
M  V30 51 1 1 46
M  V30 52 1 2 47
M  V30 53 1 2 48
M  V30 54 1 3 49 CFG=1
M  V30 55 1 8 50
M  V30 56 1 8 51
M  V30 57 1 8 52
M  V30 58 1 11 53
M  V30 59 1 14 54
M  V30 60 1 16 55
M  V30 61 1 17 56
M  V30 62 1 21 57
M  V30 63 1 22 58
M  V30 64 1 23 59
M  V30 65 1 23 60
M  V30 66 1 24 61
M  V30 67 1 24 62
M  V30 68 1 26 63
M  V30 69 1 26 64
M  V30 70 1 26 65
M  V30 71 1 27 66
M  V30 72 1 27 67
M  V30 73 1 28 68
M  V30 74 1 28 69
M  V30 75 1 29 70
M  V30 76 1 32 71
M  V30 77 1 32 72
M  V30 78 1 32 73
M  V30 79 1 36 74
M  V30 80 1 36 75
M  V30 81 1 38 76
M  V30 82 1 39 77
M  V30 83 1 42 78
M  V30 84 1 43 79
M  V30 END BOND
M  V30 END CTAB
M  END
>  <Dataset>  (713) 
ChEMBL_Kinases

>  <Ligand_Instance>  (713) 
nan

>  <PDB_ID>  (713) 
nan

>  <Standardized_SMILES>  (713) 
CC[C@@H]1c2nnc(C)n2-c2cnc(Nc3ccc(C(=O)NC4CCN(C)CC4)cc3OC)nc2N1Cc1ccc(Br)cc1

>  <Name>  (713) 
nan

>  <Pocket>  (713) 
nan

>  <ATP_Site>  (713) 
nan

>  <Peripheral>  (713) 
nan

>  <Num_H_Atoms_ProtBoundConf>  (713) 
nan

>  <Num_Resolved_Atoms>  (713) 
nan

>  <Num_Not_Resolved_Atoms>  (713) 
nan

$$$$
CHEMBL4759854
     RDKit          3D

  0  0  0  0  0  0  0  0  0  0999 V3000
M  V30 BEGIN CTAB
M  V30 COUNTS 31 33 0 0 0
M  V30 BEGIN ATOM
M  V30 1 C -1.081183 -0.543810 5.997629 0
M  V30 2 C -1.082284 -1.001567 4.859991 0
M  V30 3 C -1.093733 -1.525782 3.518679 0
M  V30 4 N 0.021239 -1.479282 2.788245 0
M  V30 5 C 0.039523 -1.957493 1.529531 0
M  V30 6 N 1.129902 -1.999408 0.620601 0
M  V30 7 C 1.706207 -1.077845 -0.293616 0
M  V30 8 C 2.734991 -1.565262 -1.077791 0
M  V30 9 C 3.321966 -0.690446 -1.963651 0
M  V30 10 C 2.852949 0.603512 -2.013023 0
M  V30 11 C 1.829187 1.084162 -1.230473 0
M  V30 12 C 1.380199 2.474297 -1.331373 0
M  V30 13 N 2.051093 3.329468 -2.279395 0
M  V30 14 O 0.449825 2.936719 -0.633910 0
M  V30 15 C 1.237247 0.218999 -0.344698 0
M  V30 16 N -1.116157 -2.482768 1.045127 0
M  V30 17 C -2.255179 -2.548172 1.745723 0
M  V30 18 N -3.498326 -3.018180 1.480741 0
M  V30 19 C -4.275093 -2.828640 2.572978 0
M  V30 20 N -3.516034 -2.232670 3.538371 0
M  V30 21 C -2.269431 -2.057935 3.032447 0
M  V30 22 H -1.090876 -0.150603 6.978873 0
M  V30 23 H 1.480368 -2.967608 0.767914 0
M  V30 24 H 3.069880 -2.611224 -0.994153 0
M  V30 25 H 4.131668 -1.067896 -2.583644 0
M  V30 26 H 3.307237 1.308495 -2.707772 0
M  V30 27 H 1.303288 3.506448 -2.998689 0
M  V30 28 H 2.968642 3.800705 -2.481002 0
M  V30 29 H 0.438789 0.600835 0.262698 0
M  V30 30 H -3.707397 -3.440872 0.543405 0
M  V30 31 H -5.313871 -3.140489 2.565700 0
M  V30 END ATOM
M  V30 BEGIN BOND
M  V30 1 3 1 2
M  V30 2 1 2 3
M  V30 3 2 3 4
M  V30 4 1 4 5
M  V30 5 1 5 6
M  V30 6 1 6 7
M  V30 7 2 7 8
M  V30 8 1 8 9
M  V30 9 2 9 10
M  V30 10 1 10 11
M  V30 11 1 11 12
M  V30 12 1 12 13
M  V30 13 2 12 14
M  V30 14 2 11 15
M  V30 15 2 5 16
M  V30 16 1 16 17
M  V30 17 1 17 18
M  V30 18 1 18 19
M  V30 19 2 19 20
M  V30 20 1 20 21
M  V30 21 1 21 3
M  V30 22 1 15 7
M  V30 23 2 21 17
M  V30 24 1 1 22
M  V30 25 1 6 23
M  V30 26 1 8 24
M  V30 27 1 9 25
M  V30 28 1 10 26
M  V30 29 1 13 27
M  V30 30 1 13 28
M  V30 31 1 15 29
M  V30 32 1 18 30
M  V30 33 1 19 31
M  V30 END BOND
M  V30 END CTAB
M  END
>  <Dataset>  (714) 
ChEMBL_Kinases

>  <Ligand_Instance>  (714) 
nan

>  <PDB_ID>  (714) 
nan

>  <Standardized_SMILES>  (714) 
C#Cc1nc(Nc2cccc(C(N)=O)c2)nc2[nH]cnc12

>  <Name>  (714) 
nan

>  <Pocket>  (714) 
nan

>  <ATP_Site>  (714) 
nan

>  <Peripheral>  (714) 
nan

>  <Num_H_Atoms_ProtBoundConf>  (714) 
nan

>  <Num_Resolved_Atoms>  (714) 
nan

>  <Num_Not_Resolved_Atoms>  (714) 
nan

$$$$
CHEMBL4759888
     RDKit          3D

  0  0  0  0  0  0  0  0  0  0999 V3000
M  V30 BEGIN CTAB
M  V30 COUNTS 45 48 0 0 0
M  V30 BEGIN ATOM
M  V30 1 O 0.470608 -3.632342 0.869600 0
M  V30 2 C -0.634001 -3.922092 0.341855 0
M  V30 3 N -1.358859 -2.852946 -0.180502 0
M  V30 4 C -1.041619 -1.474675 -0.210015 0
M  V30 5 C 0.066082 -0.860020 0.273090 0
M  V30 6 C 0.319477 0.489317 0.215020 0
M  V30 7 C -0.586793 1.316171 -0.365117 0
M  V30 8 O -0.493209 2.690429 -0.505870 0
M  V30 9 C 0.571524 3.414486 -0.001786 0
M  V30 10 C 1.487038 4.149617 -0.721891 0
M  V30 11 C 2.518784 4.845099 -0.147376 0
M  V30 12 C 2.628302 4.793472 1.220885 0
M  V30 13 C 3.685552 5.509965 1.764737 0
M  V30 14 C 3.857747 5.503871 3.133312 0
M  V30 15 C 2.983378 4.792077 3.926565 0
M  V30 16 C 1.955080 4.102685 3.319669 0
M  V30 17 C 1.732035 4.071028 1.959201 0
M  V30 18 C 0.682942 3.363282 1.385941 0
M  V30 19 Br -0.446724 2.457267 2.627546 0
M  V30 20 C -1.741672 0.772212 -0.882617 0
M  V30 21 Cl -2.981952 1.771299 -1.658938 0
M  V30 22 C -1.950320 -0.585570 -0.800672 0
M  V30 23 C -0.952136 -5.331613 0.375232 0
M  V30 24 C -0.015281 -6.184677 0.977151 0
M  V30 25 O 1.196053 -5.775875 1.543984 0
M  V30 26 C -0.216425 -7.565171 1.066609 0
M  V30 27 C -1.365038 -8.117889 0.552221 0
M  V30 28 C -2.287418 -7.312351 -0.035582 0
M  V30 29 C -2.059746 -5.975105 -0.105329 0
M  V30 30 O -3.028240 -5.231884 -0.708186 0
M  V30 31 H -2.269015 -3.125411 -0.610620 0
M  V30 32 H 0.825781 -1.426877 0.742270 0
M  V30 33 H 1.224462 0.922213 0.606951 0
M  V30 34 H 1.344242 4.149841 -1.807096 0
M  V30 35 H 3.178507 5.387497 -0.798361 0
M  V30 36 H 4.390011 6.078886 1.173119 0
M  V30 37 H 4.654989 6.035125 3.637492 0
M  V30 38 H 3.094018 4.769416 5.001537 0
M  V30 39 H 1.290314 3.555813 3.982172 0
M  V30 40 H -2.885918 -0.972869 -1.227347 0
M  V30 41 H 1.175517 -5.404188 2.478792 0
M  V30 42 H 0.493544 -8.229960 1.525329 0
M  V30 43 H -1.511175 -9.187225 0.626507 0
M  V30 44 H -3.173004 -7.774641 -0.427102 0
M  V30 45 H -3.998611 -5.370687 -0.412232 0
M  V30 END ATOM
M  V30 BEGIN BOND
M  V30 1 2 1 2
M  V30 2 1 2 3
M  V30 3 1 3 4
M  V30 4 2 4 5
M  V30 5 1 5 6
M  V30 6 2 6 7
M  V30 7 1 7 8
M  V30 8 1 8 9
M  V30 9 2 9 10
M  V30 10 1 10 11
M  V30 11 2 11 12
M  V30 12 1 12 13
M  V30 13 2 13 14
M  V30 14 1 14 15
M  V30 15 2 15 16
M  V30 16 1 16 17
M  V30 17 2 17 18
M  V30 18 1 18 19
M  V30 19 1 7 20
M  V30 20 1 20 21
M  V30 21 2 20 22
M  V30 22 1 2 23
M  V30 23 2 23 24
M  V30 24 1 24 25
M  V30 25 1 24 26
M  V30 26 2 26 27
M  V30 27 1 27 28
M  V30 28 2 28 29
M  V30 29 1 29 30
M  V30 30 1 22 4
M  V30 31 1 29 23
M  V30 32 1 18 9
M  V30 33 1 17 12
M  V30 34 1 3 31
M  V30 35 1 5 32
M  V30 36 1 6 33
M  V30 37 1 10 34
M  V30 38 1 11 35
M  V30 39 1 13 36
M  V30 40 1 14 37
M  V30 41 1 15 38
M  V30 42 1 16 39
M  V30 43 1 22 40
M  V30 44 1 25 41
M  V30 45 1 26 42
M  V30 46 1 27 43
M  V30 47 1 28 44
M  V30 48 1 30 45
M  V30 END BOND
M  V30 END CTAB
M  END
>  <Dataset>  (715) 
ChEMBL_Kinases

>  <Ligand_Instance>  (715) 
nan

>  <PDB_ID>  (715) 
nan

>  <Standardized_SMILES>  (715) 
O=C(Nc1ccc(Oc2ccc3ccccc3c2Br)c(Cl)c1)c1c(O)cccc1O

>  <Name>  (715) 
nan

>  <Pocket>  (715) 
nan

>  <ATP_Site>  (715) 
nan

>  <Peripheral>  (715) 
nan

>  <Num_H_Atoms_ProtBoundConf>  (715) 
nan

>  <Num_Resolved_Atoms>  (715) 
nan

>  <Num_Not_Resolved_Atoms>  (715) 
nan

$$$$
CHEMBL4283308
     RDKit          3D

  0  0  0  0  0  0  0  0  0  0999 V3000
M  V30 BEGIN CTAB
M  V30 COUNTS 51 54 0 0 0
M  V30 BEGIN ATOM
M  V30 1 C 2.230285 -5.589138 2.070631 0
M  V30 2 C 2.261872 -5.325139 0.576483 0
M  V30 3 C 2.526166 -3.907441 0.255946 0
M  V30 4 C 3.866096 -3.567808 0.108654 0
M  V30 5 C 4.149261 -2.252178 -0.192343 0
M  V30 6 C 3.159172 -1.304021 -0.343716 0
M  V30 7 C 1.850323 -1.672975 -0.191577 0
M  V30 8 C 0.613808 -0.902295 -0.289799 0
M  V30 9 N -0.306621 -1.169031 -1.262908 0
M  V30 10 N -1.341600 -0.343335 -1.150917 0
M  V30 11 C -1.131572 0.488389 -0.103025 0
M  V30 12 C 0.097648 0.144010 0.445929 0
M  V30 13 C 0.757588 0.734162 1.570859 0
M  V30 14 C 1.938074 1.442524 1.663587 0
M  V30 15 C 2.407567 1.931582 2.863945 0
M  V30 16 C 1.684557 1.713209 4.015832 0
M  V30 17 O 2.240405 2.245073 5.172798 0
M  V30 18 C 0.490338 1.006748 3.978268 0
M  V30 19 C 0.044821 0.527460 2.753118 0
M  V30 20 C -2.305616 1.395625 -0.009969 0 CFG=1
M  V30 21 C -2.055933 2.570138 -0.883718 0
M  V30 22 C -3.391592 0.499887 -0.601095 0
M  V30 23 C -4.632210 1.219675 -0.981594 0
M  V30 24 C -3.650513 -0.685188 0.295080 0
M  V30 25 C -2.613150 -0.050856 -1.787256 0
M  V30 26 N 1.571944 -2.978588 0.106991 0
M  V30 27 H 1.933166 -6.658208 2.187954 0
M  V30 28 H 3.256493 -5.431076 2.463607 0
M  V30 29 H 1.470765 -4.953631 2.533213 0
M  V30 30 H 3.049662 -5.985605 0.136566 0
M  V30 31 H 1.282145 -5.690235 0.177900 0
M  V30 32 H 4.685773 -4.247561 0.211561 0
M  V30 33 H 5.157727 -1.865476 -0.331775 0
M  V30 34 H 3.264188 -0.270097 -0.575288 0
M  V30 35 H 2.425802 1.559750 0.705228 0
M  V30 36 H 3.342090 2.461787 2.765824 0
M  V30 37 H 3.020923 1.767592 5.623373 0
M  V30 38 H -0.038722 0.862544 4.911259 0
M  V30 39 H -0.892036 -0.004952 2.842734 0
M  V30 40 H -2.621779 1.620060 1.011598 0
M  V30 41 H -3.015228 2.863828 -1.401846 0
M  V30 42 H -1.255077 2.363759 -1.601281 0
M  V30 43 H -1.735040 3.437374 -0.289471 0
M  V30 44 H -4.529348 1.604423 -2.031199 0
M  V30 45 H -4.886388 2.036716 -0.273591 0
M  V30 46 H -5.450740 0.466508 -1.046719 0
M  V30 47 H -4.090968 -0.428496 1.263557 0
M  V30 48 H -4.375726 -1.332046 -0.253817 0
M  V30 49 H -2.746412 -1.280431 0.431868 0
M  V30 50 H -2.389626 0.717748 -2.551920 0
M  V30 51 H -3.075059 -0.911471 -2.264880 0
M  V30 END ATOM
M  V30 BEGIN BOND
M  V30 1 1 1 2
M  V30 2 1 2 3
M  V30 3 2 3 4
M  V30 4 1 4 5
M  V30 5 2 5 6
M  V30 6 1 6 7
M  V30 7 1 7 8
M  V30 8 2 8 9
M  V30 9 1 9 10
M  V30 10 1 10 11
M  V30 11 2 11 12
M  V30 12 1 12 13
M  V30 13 2 13 14
M  V30 14 1 14 15
M  V30 15 2 15 16
M  V30 16 1 16 17
M  V30 17 1 16 18
M  V30 18 2 18 19
M  V30 19 1 11 20
M  V30 20 1 20 21
M  V30 21 1 20 22
M  V30 22 1 22 23
M  V30 23 1 22 24
M  V30 24 1 22 25
M  V30 25 2 7 26
M  V30 26 1 26 3
M  V30 27 1 12 8
M  V30 28 1 19 13
M  V30 29 1 25 10
M  V30 30 1 1 27
M  V30 31 1 1 28
M  V30 32 1 1 29
M  V30 33 1 2 30
M  V30 34 1 2 31
M  V30 35 1 4 32
M  V30 36 1 5 33
M  V30 37 1 6 34
M  V30 38 1 14 35
M  V30 39 1 15 36
M  V30 40 1 17 37
M  V30 41 1 18 38
M  V30 42 1 19 39
M  V30 43 1 20 40 CFG=1
M  V30 44 1 21 41
M  V30 45 1 21 42
M  V30 46 1 21 43
M  V30 47 1 23 44
M  V30 48 1 23 45
M  V30 49 1 23 46
M  V30 50 1 24 47
M  V30 51 1 24 48
M  V30 52 1 24 49
M  V30 53 1 25 50
M  V30 54 1 25 51
M  V30 END BOND
M  V30 END CTAB
M  END
>  <Dataset>  (716) 
ChEMBL_Kinases

>  <Ligand_Instance>  (716) 
nan

>  <PDB_ID>  (716) 
nan

>  <Standardized_SMILES>  (716) 
CCc1cccc(-c2nn3c(c2-c2ccc(O)cc2)[C@@H](C)C(C)(C)C3)n1

>  <Name>  (716) 
nan

>  <Pocket>  (716) 
nan

>  <ATP_Site>  (716) 
nan

>  <Peripheral>  (716) 
nan

>  <Num_H_Atoms_ProtBoundConf>  (716) 
nan

>  <Num_Resolved_Atoms>  (716) 
nan

>  <Num_Not_Resolved_Atoms>  (716) 
nan

$$$$
CHEMBL4759909
     RDKit          3D

  0  0  0  0  0  0  0  0  0  0999 V3000
M  V30 BEGIN CTAB
M  V30 COUNTS 22 23 0 0 0
M  V30 BEGIN ATOM
M  V30 1 C 0.005054 -4.362077 2.692724 0
M  V30 2 C 0.061582 -2.947647 2.299445 0
M  V30 3 O -0.915158 -2.128783 2.233703 0
M  V30 4 N 1.295695 -2.346088 1.938062 0
M  V30 5 C 1.075634 -0.916770 1.585115 0
M  V30 6 N 0.824888 -0.516139 0.488849 0
M  V30 7 C 0.620567 0.720055 0.109779 0
M  V30 8 C 0.328600 1.259095 -1.125664 0
M  V30 9 C 0.155138 2.618471 -1.272302 0
M  V30 10 C 0.251445 3.545549 -0.240251 0
M  V30 11 C 0.076921 4.936780 -0.374421 0
M  V30 12 N -0.071316 6.088694 -0.505732 0
M  V30 13 C 0.538470 3.110075 1.027666 0
M  V30 14 C 0.707674 1.673473 1.108195 0
M  V30 15 S 1.108198 0.607045 2.618216 0
M  V30 16 H 0.408385 -5.045935 1.912936 0
M  V30 17 H -1.082263 -4.646058 2.786768 0
M  V30 18 H 0.500124 -4.600465 3.644139 0
M  V30 19 H 2.190730 -2.843986 1.929718 0
M  V30 20 H 0.226943 0.645471 -2.008759 0
M  V30 21 H -0.077715 3.014467 -2.276751 0
M  V30 22 H 0.656931 3.627191 1.944820 0
M  V30 END ATOM
M  V30 BEGIN BOND
M  V30 1 1 1 2
M  V30 2 2 2 3
M  V30 3 1 2 4
M  V30 4 1 4 5
M  V30 5 2 5 6
M  V30 6 1 6 7
M  V30 7 2 7 8
M  V30 8 1 8 9
M  V30 9 2 9 10
M  V30 10 1 10 11
M  V30 11 3 11 12
M  V30 12 1 10 13
M  V30 13 2 13 14
M  V30 14 1 14 15
M  V30 15 1 15 5
M  V30 16 1 14 7
M  V30 17 1 1 16
M  V30 18 1 1 17
M  V30 19 1 1 18
M  V30 20 1 4 19
M  V30 21 1 8 20
M  V30 22 1 9 21
M  V30 23 1 13 22
M  V30 END BOND
M  V30 END CTAB
M  END
>  <Dataset>  (717) 
ChEMBL_Kinases

>  <Ligand_Instance>  (717) 
nan

>  <PDB_ID>  (717) 
nan

>  <Standardized_SMILES>  (717) 
CC(=O)Nc1nc2ccc(C#N)cc2s1

>  <Name>  (717) 
nan

>  <Pocket>  (717) 
nan

>  <ATP_Site>  (717) 
nan

>  <Peripheral>  (717) 
nan

>  <Num_H_Atoms_ProtBoundConf>  (717) 
nan

>  <Num_Resolved_Atoms>  (717) 
nan

>  <Num_Not_Resolved_Atoms>  (717) 
nan

$$$$
CHEMBL4283413
     RDKit          3D

  0  0  0  0  0  0  0  0  0  0999 V3000
M  V30 BEGIN CTAB
M  V30 COUNTS 43 46 0 0 0
M  V30 BEGIN ATOM
M  V30 1 O 0.244416 -6.614659 2.423264 0
M  V30 2 C 0.490551 -5.296536 2.047533 0
M  V30 3 C -0.364250 -4.747898 1.110186 0
M  V30 4 C -0.166041 -3.443120 0.701190 0
M  V30 5 C 0.887709 -2.748095 1.256881 0
M  V30 6 C 1.075900 -1.371308 0.808322 0
M  V30 7 N 0.346332 -0.730462 -0.067041 0
M  V30 8 N 0.780798 0.557956 -0.276061 0
M  V30 9 C 0.756485 1.391250 -1.427697 0
M  V30 10 C 0.204368 0.850465 -2.570075 0
M  V30 11 C 0.144496 1.593697 -3.724279 0
M  V30 12 C 0.651114 2.883474 -3.695670 0
M  V30 13 Cl 0.620146 3.901001 -5.106119 0
M  V30 14 C 1.201379 3.396559 -2.523857 0
M  V30 15 C 1.267397 2.660411 -1.358317 0
M  V30 16 C 1.306781 0.881280 1.059785 0
M  V30 17 C 0.159292 0.935415 1.990329 0
M  V30 18 C -0.960496 1.629333 1.532112 0
M  V30 19 C -2.092157 1.756422 2.292699 0
M  V30 20 C -2.154484 1.193449 3.549273 0
M  V30 21 Cl -3.496710 1.237264 4.679144 0
M  V30 22 C -1.053548 0.498848 4.026130 0
M  V30 23 C 0.078996 0.379210 3.248862 0
M  V30 24 C 2.135748 -0.397367 1.246893 0
M  V30 25 C 1.771482 -3.242710 2.194236 0
M  V30 26 C 1.533891 -4.565702 2.579069 0
M  V30 27 O 2.379984 -5.148879 3.524430 0
M  V30 28 H -0.524088 -6.847611 3.066229 0
M  V30 29 H -1.175290 -5.331382 0.703704 0
M  V30 30 H -0.831674 -3.019465 -0.027167 0
M  V30 31 H -0.201988 -0.144364 -2.644044 0
M  V30 32 H -0.268287 1.258544 -4.667205 0
M  V30 33 H 1.596441 4.414136 -2.516714 0
M  V30 34 H 1.702060 3.091702 -0.466044 0
M  V30 35 H 1.929053 1.775105 1.075094 0
M  V30 36 H -1.006394 2.102293 0.566001 0
M  V30 37 H -2.995490 2.276582 2.007497 0
M  V30 38 H -0.981885 0.010140 5.002273 0
M  V30 39 H 0.959887 -0.152827 3.579858 0
M  V30 40 H 2.961433 -0.346666 0.523225 0
M  V30 41 H 2.473626 -0.545367 2.269982 0
M  V30 42 H 2.578207 -2.655577 2.595582 0
M  V30 43 H 2.009774 -5.703920 4.299296 0
M  V30 END ATOM
M  V30 BEGIN BOND
M  V30 1 1 1 2
M  V30 2 2 2 3
M  V30 3 1 3 4
M  V30 4 2 4 5
M  V30 5 1 5 6
M  V30 6 2 6 7
M  V30 7 1 7 8
M  V30 8 1 8 9
M  V30 9 2 9 10
M  V30 10 1 10 11
M  V30 11 2 11 12
M  V30 12 1 12 13
M  V30 13 1 12 14
M  V30 14 2 14 15
M  V30 15 1 8 16
M  V30 16 1 16 17
M  V30 17 2 17 18
M  V30 18 1 18 19
M  V30 19 2 19 20
M  V30 20 1 20 21
M  V30 21 1 20 22
M  V30 22 2 22 23
M  V30 23 1 16 24
M  V30 24 1 5 25
M  V30 25 2 25 26
M  V30 26 1 26 27
M  V30 27 1 26 2
M  V30 28 1 24 6
M  V30 29 1 15 9
M  V30 30 1 23 17
M  V30 31 1 1 28
M  V30 32 1 3 29
M  V30 33 1 4 30
M  V30 34 1 10 31
M  V30 35 1 11 32
M  V30 36 1 14 33
M  V30 37 1 15 34
M  V30 38 1 16 35
M  V30 39 1 18 36
M  V30 40 1 19 37
M  V30 41 1 22 38
M  V30 42 1 23 39
M  V30 43 1 24 40
M  V30 44 1 24 41
M  V30 45 1 25 42
M  V30 46 1 27 43
M  V30 END BOND
M  V30 END CTAB
M  END
>  <Dataset>  (718) 
ChEMBL_Kinases

>  <Ligand_Instance>  (718) 
nan

>  <PDB_ID>  (718) 
nan

>  <Standardized_SMILES>  (718) 
Oc1ccc(C2=NN(c3ccc(Cl)cc3)C(c3ccc(Cl)cc3)C2)cc1O

>  <Name>  (718) 
nan

>  <Pocket>  (718) 
nan

>  <ATP_Site>  (718) 
nan

>  <Peripheral>  (718) 
nan

>  <Num_H_Atoms_ProtBoundConf>  (718) 
nan

>  <Num_Resolved_Atoms>  (718) 
nan

>  <Num_Not_Resolved_Atoms>  (718) 
nan

$$$$
CHEMBL4760895
     RDKit          3D

  0  0  0  0  0  0  0  0  0  0999 V3000
M  V30 BEGIN CTAB
M  V30 COUNTS 54 61 0 0 0
M  V30 BEGIN ATOM
M  V30 1 C 4.416738 -0.712597 1.753216 0
M  V30 2 C 2.988511 -0.588667 2.174492 0 CFG=2
M  V30 3 O 2.238083 -1.721331 1.968356 0
M  V30 4 C 1.955654 -2.005961 0.644582 0 CFG=2
M  V30 5 C 2.260696 -0.912723 -0.320598 0
M  V30 6 C 1.899977 0.473426 0.170365 0 CFG=2
M  V30 7 O 2.650996 1.357906 -0.624363 0
M  V30 8 C 2.292629 0.637827 1.600928 0 CFG=1
M  V30 9 O 1.196759 0.946313 2.379823 0
M  V30 10 N 0.462949 0.717655 0.004804 0
M  V30 11 C -0.124295 1.897012 -0.263666 0
M  V30 12 C 0.395379 3.158535 -0.450230 0
M  V30 13 C -0.459056 4.212201 -0.718298 0
M  V30 14 C -1.826062 4.040163 -0.805718 0
M  V30 15 C -2.361665 2.773503 -0.619526 0
M  V30 16 C -1.491783 1.749216 -0.355518 0
M  V30 17 C -1.765961 0.416135 -0.133452 0
M  V30 18 C -2.907720 -0.356416 -0.090466 0
M  V30 19 C -2.859963 -1.706191 0.162789 0
M  V30 20 C -1.645913 -2.280570 0.374813 0
M  V30 21 C -1.317763 -3.574470 0.644012 0
M  V30 22 C -1.915949 -4.784587 0.815990 0
M  V30 23 C -1.259627 -5.960895 1.092321 0
M  V30 24 C 0.134553 -5.955299 1.214230 0
M  V30 25 C 0.781508 -4.748959 1.047257 0
M  V30 26 C 0.052249 -3.587425 0.767238 0
M  V30 27 N 0.543212 -2.326912 0.576433 0
M  V30 28 C -0.507438 -1.522547 0.334202 0
M  V30 29 C -0.540690 -0.178064 0.082908 0
M  V30 30 C -4.218913 -2.178072 0.130910 0
M  V30 31 O -4.746147 -3.287198 0.289433 0
M  V30 32 N -5.115752 -1.116055 -0.143584 0
M  V30 33 C -4.330219 0.097626 -0.297960 0
M  V30 34 H 4.629259 -1.677383 1.231831 0
M  V30 35 H 4.723410 0.172498 1.158296 0
M  V30 36 H 5.132189 -0.721014 2.623880 0
M  V30 37 H 2.996299 -0.417576 3.279439 0
M  V30 38 H 2.545556 -2.893634 0.330732 0
M  V30 39 H 3.319732 -0.893408 -0.649628 0
M  V30 40 H 1.671061 -1.071740 -1.247795 0
M  V30 41 H 3.455266 1.693066 -0.197933 0
M  V30 42 H 3.013979 1.499349 1.709181 0
M  V30 43 H 1.380348 0.829695 3.344517 0
M  V30 44 H 1.456883 3.332932 -0.388789 0
M  V30 45 H -0.012969 5.193506 -0.859817 0
M  V30 46 H -2.454901 4.881372 -1.015109 0
M  V30 47 H -3.413852 2.640040 -0.686649 0
M  V30 48 H -2.953934 -4.897832 0.745488 0
M  V30 49 H -1.743491 -6.919190 1.227620 0
M  V30 50 H 0.705230 -6.832551 1.427474 0
M  V30 51 H 1.840264 -4.737114 1.138426 0
M  V30 52 H -6.150884 -1.045354 -0.247693 0
M  V30 53 H -4.631326 0.883941 0.404696 0
M  V30 54 H -4.492136 0.484364 -1.325189 0
M  V30 END ATOM
M  V30 BEGIN BOND
M  V30 1 1 1 2
M  V30 2 1 2 3
M  V30 3 1 3 4
M  V30 4 1 4 5
M  V30 5 1 5 6
M  V30 6 1 6 7 CFG=3
M  V30 7 1 6 8
M  V30 8 1 8 9
M  V30 9 1 6 10
M  V30 10 1 10 11
M  V30 11 2 11 12
M  V30 12 1 12 13
M  V30 13 2 13 14
M  V30 14 1 14 15
M  V30 15 2 15 16
M  V30 16 1 16 17
M  V30 17 2 17 18
M  V30 18 1 18 19
M  V30 19 2 19 20
M  V30 20 1 20 21
M  V30 21 2 21 22
M  V30 22 1 22 23
M  V30 23 2 23 24
M  V30 24 1 24 25
M  V30 25 2 25 26
M  V30 26 1 26 27
M  V30 27 1 27 28
M  V30 28 2 28 29
M  V30 29 1 19 30
M  V30 30 2 30 31
M  V30 31 1 30 32
M  V30 32 1 32 33
M  V30 33 1 8 2
M  V30 34 1 29 10
M  V30 35 1 27 4
M  V30 36 1 16 11
M  V30 37 1 29 17
M  V30 38 1 33 18
M  V30 39 1 28 20
M  V30 40 1 26 21
M  V30 41 1 1 34
M  V30 42 1 1 35
M  V30 43 1 1 36
M  V30 44 1 2 37 CFG=1
M  V30 45 1 4 38 CFG=3
M  V30 46 1 5 39
M  V30 47 1 5 40
M  V30 48 1 7 41
M  V30 49 1 8 42 CFG=3
M  V30 50 1 9 43
M  V30 51 1 12 44
M  V30 52 1 13 45
M  V30 53 1 14 46
M  V30 54 1 15 47
M  V30 55 1 22 48
M  V30 56 1 23 49
M  V30 57 1 24 50
M  V30 58 1 25 51
M  V30 59 1 32 52
M  V30 60 1 33 53
M  V30 61 1 33 54
M  V30 END BOND
M  V30 END CTAB
M  END
>  <Dataset>  (719) 
ChEMBL_Kinases

>  <Ligand_Instance>  (719) 
nan

>  <PDB_ID>  (719) 
nan

>  <Standardized_SMILES>  (719) 
C[C@@H]1O[C@@H]2C[C@](O)([C@H]1O)n1c3ccccc3c3c4c(c5c6ccccc6n2c5c31)C(=O)NC4

>  <Name>  (719) 
nan

>  <Pocket>  (719) 
nan

>  <ATP_Site>  (719) 
nan

>  <Peripheral>  (719) 
nan

>  <Num_H_Atoms_ProtBoundConf>  (719) 
nan

>  <Num_Resolved_Atoms>  (719) 
nan

>  <Num_Not_Resolved_Atoms>  (719) 
nan

$$$$
CHEMBL4281464
     RDKit          3D

  0  0  0  0  0  0  0  0  0  0999 V3000
M  V30 BEGIN CTAB
M  V30 COUNTS 24 25 0 0 0
M  V30 BEGIN ATOM
M  V30 1 C 0.731036 -2.294106 -0.315289 0
M  V30 2 C 0.890681 -1.807566 1.077286 0
M  V30 3 C 1.237881 -2.615292 2.159796 0
M  V30 4 N 1.495156 -4.014613 2.125999 0
M  V30 5 N 1.260077 -1.754394 3.181526 0
M  V30 6 N 0.963549 -0.547421 2.796807 0
M  V30 7 C 0.716994 -0.505532 1.473079 0
M  V30 8 C 0.362404 0.714333 0.780217 0
M  V30 9 C 0.091603 0.879391 -0.553133 0
M  V30 10 C -0.243284 2.052026 -1.184895 0
M  V30 11 C -0.322620 3.197073 -0.423846 0
M  V30 12 Cl -0.742155 4.713693 -1.165399 0
M  V30 13 C -0.063655 3.108721 0.924175 0
M  V30 14 Cl -0.158560 4.546911 1.906629 0
M  V30 15 C 0.265564 1.897137 1.483514 0
M  V30 16 H -0.289787 -2.212355 -0.689145 0
M  V30 17 H 1.492219 -1.869044 -1.010671 0
M  V30 18 H 0.931174 -3.413280 -0.321682 0
M  V30 19 H 0.631272 -4.545907 1.830063 0
M  V30 20 H 2.487213 -4.145696 2.407813 0
M  V30 21 H 0.962035 0.181100 3.548908 0
M  V30 22 H 0.137124 0.022718 -1.199989 0
M  V30 23 H -0.441023 2.089495 -2.245772 0
M  V30 24 H 0.457240 1.914353 2.568021 0
M  V30 END ATOM
M  V30 BEGIN BOND
M  V30 1 1 1 2
M  V30 2 1 2 3
M  V30 3 1 3 4
M  V30 4 2 3 5
M  V30 5 1 5 6
M  V30 6 1 6 7
M  V30 7 1 7 8
M  V30 8 2 8 9
M  V30 9 1 9 10
M  V30 10 2 10 11
M  V30 11 1 11 12
M  V30 12 1 11 13
M  V30 13 1 13 14
M  V30 14 2 13 15
M  V30 15 2 7 2
M  V30 16 1 15 8
M  V30 17 1 1 16
M  V30 18 1 1 17
M  V30 19 1 1 18
M  V30 20 1 4 19
M  V30 21 1 4 20
M  V30 22 1 6 21
M  V30 23 1 9 22
M  V30 24 1 10 23
M  V30 25 1 15 24
M  V30 END BOND
M  V30 END CTAB
M  END
>  <Dataset>  (720) 
ChEMBL_Kinases

>  <Ligand_Instance>  (720) 
nan

>  <PDB_ID>  (720) 
nan

>  <Standardized_SMILES>  (720) 
Cc1c(N)n[nH]c1-c1ccc(Cl)c(Cl)c1

>  <Name>  (720) 
nan

>  <Pocket>  (720) 
nan

>  <ATP_Site>  (720) 
nan

>  <Peripheral>  (720) 
nan

>  <Num_H_Atoms_ProtBoundConf>  (720) 
nan

>  <Num_Resolved_Atoms>  (720) 
nan

>  <Num_Not_Resolved_Atoms>  (720) 
nan

$$$$
CHEMBL4281435
     RDKit          3D

  0  0  0  0  0  0  0  0  0  0999 V3000
M  V30 BEGIN CTAB
M  V30 COUNTS 54 58 0 0 0
M  V30 BEGIN ATOM
M  V30 1 O 0.374034 -3.280415 1.709938 0
M  V30 2 C -0.263626 -2.306999 1.171835 0
M  V30 3 N 0.095407 -1.018487 1.649775 0
M  V30 4 C -0.520721 0.193201 1.156626 0
M  V30 5 C 0.209289 1.451834 1.655551 0
M  V30 6 N 1.622277 1.170601 1.337832 0
M  V30 7 C 2.537996 1.681045 0.376704 0
M  V30 8 N 2.910155 0.739570 -0.539370 0
M  V30 9 C 3.760031 1.010695 -1.549014 0
M  V30 10 N 4.277101 2.263295 -1.676899 0
M  V30 11 C 3.946740 3.229139 -0.804899 0
M  V30 12 N 4.229202 4.535824 -0.589613 0
M  V30 13 N 3.590684 5.003899 0.474324 0
M  V30 14 C 2.833525 4.017043 1.037125 0
M  V30 15 Br 1.728599 4.138670 2.582237 0
M  V30 16 C 3.077149 2.938164 0.222276 0
M  V30 17 C 2.184249 0.136955 2.224843 0
M  V30 18 C 1.103719 -0.822868 2.663766 0
M  V30 19 C -1.287149 -2.566121 0.134653 0
M  V30 20 C -2.575728 -2.029379 0.620879 0
M  V30 21 C -2.768026 -2.375102 1.967206 0
M  V30 22 C -3.934278 -1.970921 2.631515 0
M  V30 23 C -4.915180 -1.245089 2.032959 0
M  V30 24 Cl -6.358162 -0.747929 2.863851 0
M  V30 25 C -4.690430 -0.925317 0.712185 0
M  V30 26 C -3.566036 -1.292656 0.004551 0
M  V30 27 C -1.437715 -4.094941 0.037781 0
M  V30 28 C -0.305158 -4.692272 -0.749360 0
M  V30 29 N -0.215199 -4.223516 -2.108447 0
M  V30 30 C -1.206922 -3.183988 -2.280423 0
M  V30 31 C -0.880997 -2.117818 -1.225415 0
M  V30 32 H -1.582143 0.244889 1.431543 0
M  V30 33 H -0.457379 0.280055 0.052969 0
M  V30 34 H 0.068203 1.547304 2.736078 0
M  V30 35 H -0.169096 2.275046 1.044388 0
M  V30 36 H 4.061897 0.273486 -2.280338 0
M  V30 37 H 4.885137 5.084982 -1.215835 0
M  V30 38 H 2.595930 0.673723 3.115024 0
M  V30 39 H 2.999716 -0.388842 1.735225 0
M  V30 40 H 1.585584 -1.759144 3.011765 0
M  V30 41 H 0.643416 -0.356876 3.571940 0
M  V30 42 H -2.081810 -2.955882 2.604945 0
M  V30 43 H -4.097155 -2.236043 3.688678 0
M  V30 44 H -5.421356 -0.343729 0.144056 0
M  V30 45 H -3.337887 -1.079275 -1.008687 0
M  V30 46 H -2.411229 -4.401226 -0.341792 0
M  V30 47 H -1.332939 -4.479026 1.072656 0
M  V30 48 H -0.516320 -5.779135 -0.818748 0
M  V30 49 H 0.659055 -4.542556 -0.236752 0
M  V30 50 H 0.717363 -3.740898 -2.281738 0
M  V30 51 H -1.078127 -2.674938 -3.277449 0
M  V30 52 H -2.230557 -3.549535 -2.222318 0
M  V30 53 H -1.404114 -1.219739 -1.539778 0
M  V30 54 H 0.239940 -2.012208 -1.322105 0
M  V30 END ATOM
M  V30 BEGIN BOND
M  V30 1 2 1 2
M  V30 2 1 2 3
M  V30 3 1 3 4
M  V30 4 1 4 5
M  V30 5 1 5 6
M  V30 6 1 6 7
M  V30 7 2 7 8
M  V30 8 1 8 9
M  V30 9 2 9 10
M  V30 10 1 10 11
M  V30 11 1 11 12
M  V30 12 1 12 13
M  V30 13 2 13 14
M  V30 14 1 14 15
M  V30 15 1 14 16
M  V30 16 1 6 17
M  V30 17 1 17 18
M  V30 18 1 2 19
M  V30 19 1 19 20
M  V30 20 2 20 21
M  V30 21 1 21 22
M  V30 22 2 22 23
M  V30 23 1 23 24
M  V30 24 1 23 25
M  V30 25 2 25 26
M  V30 26 1 19 27
M  V30 27 1 27 28
M  V30 28 1 28 29
M  V30 29 1 29 30
M  V30 30 1 30 31
M  V30 31 1 18 3
M  V30 32 1 31 19
M  V30 33 1 16 7
M  V30 34 1 26 20
M  V30 35 2 16 11
M  V30 36 1 4 32
M  V30 37 1 4 33
M  V30 38 1 5 34
M  V30 39 1 5 35
M  V30 40 1 9 36
M  V30 41 1 12 37
M  V30 42 1 17 38
M  V30 43 1 17 39
M  V30 44 1 18 40
M  V30 45 1 18 41
M  V30 46 1 21 42
M  V30 47 1 22 43
M  V30 48 1 25 44
M  V30 49 1 26 45
M  V30 50 1 27 46
M  V30 51 1 27 47
M  V30 52 1 28 48
M  V30 53 1 28 49
M  V30 54 1 29 50
M  V30 55 1 30 51
M  V30 56 1 30 52
M  V30 57 1 31 53
M  V30 58 1 31 54
M  V30 END BOND
M  V30 END CTAB
M  END
>  <Dataset>  (721) 
ChEMBL_Kinases

>  <Ligand_Instance>  (721) 
nan

>  <PDB_ID>  (721) 
nan

>  <Standardized_SMILES>  (721) 
O=C(N1CCN(c2ncnc3[nH]nc(Br)c23)CC1)C1(c2ccc(Cl)cc2)CCNCC1

>  <Name>  (721) 
nan

>  <Pocket>  (721) 
nan

>  <ATP_Site>  (721) 
nan

>  <Peripheral>  (721) 
nan

>  <Num_H_Atoms_ProtBoundConf>  (721) 
nan

>  <Num_Resolved_Atoms>  (721) 
nan

>  <Num_Not_Resolved_Atoms>  (721) 
nan

$$$$
CHEMBL4281351
     RDKit          3D

  0  0  0  0  0  0  0  0  0  0999 V3000
M  V30 BEGIN CTAB
M  V30 COUNTS 57 61 0 0 0
M  V30 BEGIN ATOM
M  V30 1 N 1.515412 -4.400720 4.841674 0
M  V30 2 C 1.838126 -3.469297 4.204629 0
M  V30 3 C 2.238914 -2.315863 3.431525 0
M  V30 4 C 2.974132 -1.378262 4.123392 0
M  V30 5 N 3.345826 -0.297926 3.409855 0
M  V30 6 C 3.002639 -0.171284 2.099786 0
M  V30 7 N 3.462707 0.992968 1.440239 0
M  V30 8 C 3.243445 2.376013 1.140432 0
M  V30 9 C 1.974454 2.681950 0.462570 0
M  V30 10 C 1.979306 2.932811 -0.909123 0
M  V30 11 C 0.783298 3.220414 -1.533525 0
M  V30 12 C -0.356005 3.250173 -0.795138 0
M  V30 13 C -0.352997 2.999544 0.568244 0
M  V30 14 C 0.820515 2.710873 1.214407 0
M  V30 15 Br 0.886509 2.355107 3.098315 0
M  V30 16 N 2.290493 -1.126888 1.515343 0
M  V30 17 C 1.863484 -2.251088 2.125500 0
M  V30 18 N 1.139960 -3.305778 1.466261 0
M  V30 19 C 0.714341 -3.243352 0.100378 0
M  V30 20 C -0.525201 -2.455028 -0.160058 0 CFG=2
M  V30 21 C -0.513254 -1.028416 0.239261 0
M  V30 22 C -1.871256 -0.435366 -0.127384 0 CFG=2
M  V30 23 C -3.018093 -1.142125 0.555178 0
M  V30 24 C -2.993336 -2.586826 0.129211 0 CFG=2
M  V30 25 C -1.656545 -3.160048 0.558182 0
M  V30 26 C -3.101531 -2.782263 -1.358547 0 CFG=1
M  V30 27 N -4.422554 -2.658906 -1.887523 0
M  V30 28 C -2.069522 -1.920977 -2.066307 0 CFG=1
M  V30 29 C -2.119003 -0.492768 -1.615637 0
M  V30 30 C -0.727831 -2.488735 -1.674116 0
M  V30 31 H 3.238024 -1.492363 5.167307 0
M  V30 32 H 4.327865 0.515294 1.047295 0
M  V30 33 H 4.095326 2.718913 0.502366 0
M  V30 34 H 3.221197 2.954589 2.104203 0
M  V30 35 H 2.855151 2.918497 -1.523735 0
M  V30 36 H 0.631448 3.436288 -2.596546 0
M  V30 37 H -1.331906 3.469122 -1.223530 0
M  V30 38 H -1.277007 3.028082 1.131783 0
M  V30 39 H 0.933201 -4.134088 2.037238 0
M  V30 40 H 1.531267 -2.844176 -0.553580 0
M  V30 41 H 0.539050 -4.277852 -0.262678 0
M  V30 42 H 0.240482 -0.402127 -0.251622 0
M  V30 43 H -0.465636 -0.900635 1.357497 0
M  V30 44 H -1.865697 0.612402 0.233268 0
M  V30 45 H -3.937754 -0.687501 0.146396 0
M  V30 46 H -2.977625 -1.111065 1.642997 0
M  V30 47 H -3.777888 -3.190722 0.640565 0
M  V30 48 H -1.626001 -4.256651 0.442819 0
M  V30 49 H -1.529169 -2.924698 1.634334 0
M  V30 50 H -2.762398 -3.842185 -1.546879 0
M  V30 51 H -4.797389 -3.539148 -2.301685 0
M  V30 52 H -4.536722 -1.817605 -2.471287 0
M  V30 53 H -2.164695 -1.980751 -3.152957 0
M  V30 54 H -3.085219 0.014385 -1.796596 0
M  V30 55 H -1.293481 0.031900 -2.123686 0
M  V30 56 H -0.496816 -3.464118 -2.106412 0
M  V30 57 H 0.027971 -1.755478 -2.082807 0
M  V30 END ATOM
M  V30 BEGIN BOND
M  V30 1 3 1 2
M  V30 2 1 2 3
M  V30 3 2 3 4
M  V30 4 1 4 5
M  V30 5 2 5 6
M  V30 6 1 6 7
M  V30 7 1 7 8
M  V30 8 1 8 9
M  V30 9 2 9 10
M  V30 10 1 10 11
M  V30 11 2 11 12
M  V30 12 1 12 13
M  V30 13 2 13 14
M  V30 14 1 14 15
M  V30 15 1 6 16
M  V30 16 2 16 17
M  V30 17 1 17 18
M  V30 18 1 18 19
M  V30 19 1 20 19 CFG=3
M  V30 20 1 20 21
M  V30 21 1 21 22
M  V30 22 1 22 23
M  V30 23 1 23 24
M  V30 24 1 24 25
M  V30 25 1 24 26
M  V30 26 1 26 27
M  V30 27 1 26 28
M  V30 28 1 28 29
M  V30 29 1 28 30
M  V30 30 1 17 3
M  V30 31 1 25 20
M  V30 32 1 14 9
M  V30 33 1 30 20
M  V30 34 1 29 22
M  V30 35 1 4 31
M  V30 36 1 7 32
M  V30 37 1 8 33
M  V30 38 1 8 34
M  V30 39 1 10 35
M  V30 40 1 11 36
M  V30 41 1 12 37
M  V30 42 1 13 38
M  V30 43 1 18 39
M  V30 44 1 19 40
M  V30 45 1 19 41
M  V30 46 1 21 42
M  V30 47 1 21 43
M  V30 48 1 22 44 CFG=1
M  V30 49 1 23 45
M  V30 50 1 23 46
M  V30 51 1 24 47 CFG=1
M  V30 52 1 25 48
M  V30 53 1 25 49
M  V30 54 1 26 50 CFG=1
M  V30 55 1 27 51
M  V30 56 1 27 52
M  V30 57 1 28 53 CFG=3
M  V30 58 1 29 54
M  V30 59 1 29 55
M  V30 60 1 30 56
M  V30 61 1 30 57
M  V30 END BOND
M  V30 END CTAB
M  END
>  <Dataset>  (722) 
ChEMBL_Kinases

>  <Ligand_Instance>  (722) 
nan

>  <PDB_ID>  (722) 
nan

>  <Standardized_SMILES>  (722) 
N#Cc1cnc(NCc2ccccc2Br)nc1NC[C@]12C[C@@H]3C[C@H](C1)[C@@H](N)[C@@H](C3)C2

>  <Name>  (722) 
nan

>  <Pocket>  (722) 
nan

>  <ATP_Site>  (722) 
nan

>  <Peripheral>  (722) 
nan

>  <Num_H_Atoms_ProtBoundConf>  (722) 
nan

>  <Num_Resolved_Atoms>  (722) 
nan

>  <Num_Not_Resolved_Atoms>  (722) 
nan

$$$$
CHEMBL4760981
     RDKit          3D

  0  0  0  0  0  0  0  0  0  0999 V3000
M  V30 BEGIN CTAB
M  V30 COUNTS 44 47 0 0 0
M  V30 BEGIN ATOM
M  V30 1 C 2.216992 -5.243780 3.025266 0
M  V30 2 O 3.069291 -4.129290 3.111318 0
M  V30 3 C 3.098047 -3.127060 2.149968 0
M  V30 4 C 3.950679 -2.042002 2.265905 0
M  V30 5 C 4.026517 -1.014714 1.345791 0
M  V30 6 C 3.213832 -1.051322 0.238050 0
M  V30 7 N 3.256688 -0.014644 -0.737862 0
M  V30 8 N 4.270911 0.296956 -1.529893 0
M  V30 9 N 3.932370 1.324870 -2.307777 0
M  V30 10 C 2.665237 1.671779 -1.996133 0
M  V30 11 C 1.761098 2.622646 -2.421366 0
M  V30 12 N 0.519995 2.748510 -1.919163 0
M  V30 13 C 0.049729 1.930397 -0.931691 0
M  V30 14 N -1.233414 2.055174 -0.404959 0
M  V30 15 C -1.837789 1.256776 0.624736 0 CFG=2
M  V30 16 C -1.985624 -0.188936 0.362398 0
M  V30 17 C -3.374659 -0.597010 0.875728 0
M  V30 18 C -3.789870 0.557440 1.766945 0 CFG=1
M  V30 19 N -3.228155 0.437788 3.097693 0
M  V30 20 C -3.210331 1.724691 0.997911 0
M  V30 21 C 0.956486 0.980213 -0.508331 0
M  V30 22 C 2.235833 0.821511 -0.999366 0
M  V30 23 C 2.351967 -2.147509 0.120241 0
M  V30 24 C 2.280207 -3.167380 1.038683 0
M  V30 25 H 2.063884 -5.603790 4.083636 0
M  V30 26 H 2.692073 -6.089205 2.466842 0
M  V30 27 H 1.222944 -5.011990 2.609356 0
M  V30 28 H 4.585092 -2.027596 3.144811 0
M  V30 29 H 4.712574 -0.221492 1.518892 0
M  V30 30 H 2.072992 3.316898 -3.215925 0
M  V30 31 H -1.844846 2.830801 -0.807116 0
M  V30 32 H -1.179256 1.368224 1.533983 0
M  V30 33 H -1.978574 -0.449209 -0.705705 0
M  V30 34 H -1.287428 -0.829207 0.976935 0
M  V30 35 H -3.363425 -1.508945 1.477365 0
M  V30 36 H -4.095096 -0.756913 0.061929 0
M  V30 37 H -4.912508 0.650856 1.805593 0
M  V30 38 H -3.066666 1.419279 3.446019 0
M  V30 39 H -2.337701 -0.075738 3.099620 0
M  V30 40 H -3.205026 2.642786 1.618692 0
M  V30 41 H -3.858021 1.870982 0.115258 0
M  V30 42 H 0.702621 0.279163 0.265266 0
M  V30 43 H 1.695419 -2.192881 -0.758869 0
M  V30 44 H 1.582799 -3.987945 0.876912 0
M  V30 END ATOM
M  V30 BEGIN BOND
M  V30 1 1 1 2
M  V30 2 1 2 3
M  V30 3 2 3 4
M  V30 4 1 4 5
M  V30 5 2 5 6
M  V30 6 1 6 7
M  V30 7 1 7 8
M  V30 8 2 8 9
M  V30 9 1 9 10
M  V30 10 2 10 11
M  V30 11 1 11 12
M  V30 12 2 12 13
M  V30 13 1 13 14
M  V30 14 1 14 15
M  V30 15 1 15 16
M  V30 16 1 16 17
M  V30 17 1 17 18
M  V30 18 1 18 19
M  V30 19 1 18 20
M  V30 20 1 13 21
M  V30 21 2 21 22
M  V30 22 1 6 23
M  V30 23 2 23 24
M  V30 24 1 24 3
M  V30 25 1 22 7
M  V30 26 1 22 10
M  V30 27 1 20 15
M  V30 28 1 1 25
M  V30 29 1 1 26
M  V30 30 1 1 27
M  V30 31 1 4 28
M  V30 32 1 5 29
M  V30 33 1 11 30
M  V30 34 1 14 31
M  V30 35 1 15 32 CFG=1
M  V30 36 1 16 33
M  V30 37 1 16 34
M  V30 38 1 17 35
M  V30 39 1 17 36
M  V30 40 1 18 37 CFG=1
M  V30 41 1 19 38
M  V30 42 1 19 39
M  V30 43 1 20 40
M  V30 44 1 20 41
M  V30 45 1 21 42
M  V30 46 1 23 43
M  V30 47 1 24 44
M  V30 END BOND
M  V30 END CTAB
M  END
>  <Dataset>  (723) 
ChEMBL_Kinases

>  <Ligand_Instance>  (723) 
nan

>  <PDB_ID>  (723) 
nan

>  <Standardized_SMILES>  (723) 
COc1ccc(-n2nnc3cnc(N[C@@H]4CC[C@@H](N)C4)cc32)cc1

>  <Name>  (723) 
nan

>  <Pocket>  (723) 
nan

>  <ATP_Site>  (723) 
nan

>  <Peripheral>  (723) 
nan

>  <Num_H_Atoms_ProtBoundConf>  (723) 
nan

>  <Num_Resolved_Atoms>  (723) 
nan

>  <Num_Not_Resolved_Atoms>  (723) 
nan

$$$$
CHEMBL4281348
     RDKit          3D

  0  0  0  0  0  0  0  0  0  0999 V3000
M  V30 BEGIN CTAB
M  V30 COUNTS 48 50 0 0 0
M  V30 BEGIN ATOM
M  V30 1 C 4.403914 -3.288589 -2.198300 0
M  V30 2 C 5.076520 -3.757229 -0.927041 0
M  V30 3 N 4.424709 -4.885706 -0.310715 0
M  V30 4 C 3.088736 -4.845040 0.167814 0
M  V30 5 C 2.293097 -3.713303 0.104616 0
M  V30 6 C 0.967202 -3.646208 0.569381 0
M  V30 7 C 0.413788 -2.329992 0.387765 0
M  V30 8 C 1.114549 -1.338086 1.085669 0
M  V30 9 C 0.784747 0.000125 1.101331 0
M  V30 10 C -0.317619 0.396865 0.376597 0
M  V30 11 N -0.723046 1.763192 0.342951 0
M  V30 12 C -1.629423 2.190344 1.329791 0
M  V30 13 O -2.072764 1.414669 2.210666 0
M  V30 14 N -2.025977 3.557876 1.284019 0
M  V30 15 C -2.918860 4.259880 2.142758 0
M  V30 16 C -2.317475 4.849496 3.242024 0
M  V30 17 C -3.128056 5.549274 4.120162 0
M  V30 18 C -4.493727 5.656474 3.907461 0
M  V30 19 C -5.051610 5.044695 2.785417 0
M  V30 20 Cl -6.770776 5.184278 2.525090 0
M  V30 21 C -4.284239 4.338518 1.885018 0
M  V30 22 C -1.022667 -0.542247 -0.314823 0
M  V30 23 C -0.671830 -1.875205 -0.314692 0
M  V30 24 C -1.447041 -2.861788 -1.093684 0
M  V30 25 F -2.015479 -3.828672 -0.319132 0
M  V30 26 F -2.494750 -2.200863 -1.723205 0
M  V30 27 F -0.691025 -3.399414 -2.127984 0
M  V30 28 C 0.520479 -4.816930 1.101281 0
M  V30 29 C 1.275092 -5.963320 1.183707 0
M  V30 30 N 2.533305 -5.940461 0.714925 0
M  V30 31 H 3.476812 -3.850485 -2.436576 0
M  V30 32 H 5.169175 -3.420767 -3.015589 0
M  V30 33 H 4.202681 -2.197442 -2.196103 0
M  V30 34 H 5.079910 -2.861837 -0.236307 0
M  V30 35 H 6.160309 -3.976219 -1.076177 0
M  V30 36 H 4.961536 -5.776264 -0.211658 0
M  V30 37 H 2.828504 -2.865277 -0.354749 0
M  V30 38 H 2.009069 -1.546288 1.695166 0
M  V30 39 H 1.329741 0.748179 1.639754 0
M  V30 40 H -0.327657 2.383221 -0.413778 0
M  V30 41 H -1.660813 4.200100 0.556869 0
M  V30 42 H -1.269264 4.788431 3.438903 0
M  V30 43 H -2.703311 6.036310 5.007900 0
M  V30 44 H -5.070006 6.214363 4.627712 0
M  V30 45 H -4.687185 3.862459 1.020553 0
M  V30 46 H -1.901621 -0.263195 -0.899840 0
M  V30 47 H -0.468503 -4.791636 1.480242 0
M  V30 48 H 0.794874 -6.823500 1.629532 0
M  V30 END ATOM
M  V30 BEGIN BOND
M  V30 1 1 1 2
M  V30 2 1 2 3
M  V30 3 1 3 4
M  V30 4 2 4 5
M  V30 5 1 5 6
M  V30 6 1 6 7
M  V30 7 2 7 8
M  V30 8 1 8 9
M  V30 9 2 9 10
M  V30 10 1 10 11
M  V30 11 1 11 12
M  V30 12 2 12 13
M  V30 13 1 12 14
M  V30 14 1 14 15
M  V30 15 2 15 16
M  V30 16 1 16 17
M  V30 17 2 17 18
M  V30 18 1 18 19
M  V30 19 1 19 20
M  V30 20 2 19 21
M  V30 21 1 10 22
M  V30 22 2 22 23
M  V30 23 1 23 24
M  V30 24 1 24 25
M  V30 25 1 24 26
M  V30 26 1 24 27
M  V30 27 2 6 28
M  V30 28 1 28 29
M  V30 29 2 29 30
M  V30 30 1 30 4
M  V30 31 1 23 7
M  V30 32 1 21 15
M  V30 33 1 1 31
M  V30 34 1 1 32
M  V30 35 1 1 33
M  V30 36 1 2 34
M  V30 37 1 2 35
M  V30 38 1 3 36
M  V30 39 1 5 37
M  V30 40 1 8 38
M  V30 41 1 9 39
M  V30 42 1 11 40
M  V30 43 1 14 41
M  V30 44 1 16 42
M  V30 45 1 17 43
M  V30 46 1 18 44
M  V30 47 1 21 45
M  V30 48 1 22 46
M  V30 49 1 28 47
M  V30 50 1 29 48
M  V30 END BOND
M  V30 END CTAB
M  END
>  <Dataset>  (724) 
ChEMBL_Kinases

>  <Ligand_Instance>  (724) 
nan

>  <PDB_ID>  (724) 
nan

>  <Standardized_SMILES>  (724) 
CCNc1cc(-c2ccc(NC(=O)Nc3cccc(Cl)c3)cc2C(F)(F)F)ccn1

>  <Name>  (724) 
nan

>  <Pocket>  (724) 
nan

>  <ATP_Site>  (724) 
nan

>  <Peripheral>  (724) 
nan

>  <Num_H_Atoms_ProtBoundConf>  (724) 
nan

>  <Num_Resolved_Atoms>  (724) 
nan

>  <Num_Not_Resolved_Atoms>  (724) 
nan

$$$$
CHEMBL4281195
     RDKit          3D

  0  0  0  0  0  0  0  0  0  0999 V3000
M  V30 BEGIN CTAB
M  V30 COUNTS 42 45 0 0 0
M  V30 BEGIN ATOM
M  V30 1 C 2.595008 -5.012753 0.521381 0
M  V30 2 C 1.626998 -3.904551 0.772562 0
M  V30 3 C 0.228848 -4.175567 0.276667 0
M  V30 4 C 2.101341 -2.567484 0.196344 0
M  V30 5 C 1.157271 -1.650230 0.929127 0
M  V30 6 C 0.473931 -0.444561 0.876277 0
M  V30 7 C 0.570996 0.439959 -0.254272 0
M  V30 8 C -0.435548 0.821869 -1.094093 0
M  V30 9 C -0.277461 1.676249 -2.164496 0
M  V30 10 C 0.969840 2.178860 -2.407043 0
M  V30 11 O 1.087966 3.039292 -3.498904 0
M  V30 12 C 2.037193 1.824163 -1.582585 0
M  V30 13 C 1.837470 0.968236 -0.524055 0
M  V30 14 C -0.244068 -0.326480 2.058005 0
M  V30 15 C -1.099638 0.807002 2.396556 0
M  V30 16 C -0.759999 1.533791 3.519908 0
M  V30 17 C -1.489810 2.635246 3.953246 0
M  V30 18 C -2.576821 2.921782 3.151247 0
M  V30 19 C -2.951110 2.223415 2.022805 0
M  V30 20 N -2.180992 1.171526 1.683554 0
M  V30 21 N 0.015808 -1.447482 2.791533 0
M  V30 22 N 0.847441 -2.226085 2.114084 0
M  V30 23 C 1.536885 -3.517709 2.247667 0
M  V30 24 H 2.837415 -5.493713 1.501781 0
M  V30 25 H 2.115636 -5.802945 -0.092712 0
M  V30 26 H 3.534345 -4.628432 0.073913 0
M  V30 27 H 0.079971 -5.246469 -0.027853 0
M  V30 28 H -0.552734 -3.854280 1.012930 0
M  V30 29 H 0.040124 -3.552579 -0.632198 0
M  V30 30 H 3.104762 -2.334985 0.566888 0
M  V30 31 H 1.956091 -2.523726 -0.881510 0
M  V30 32 H -1.406206 0.426214 -0.899960 0
M  V30 33 H -1.126329 1.927784 -2.780069 0
M  V30 34 H 1.186387 4.035368 -3.249436 0
M  V30 35 H 2.965009 2.282616 -1.874235 0
M  V30 36 H 2.752859 0.773491 0.038982 0
M  V30 37 H 0.115495 1.258242 4.118688 0
M  V30 38 H -1.247851 3.223080 4.828130 0
M  V30 39 H -3.225988 3.770992 3.397330 0
M  V30 40 H -3.818512 2.506802 1.441493 0
M  V30 41 H 2.524965 -3.290020 2.672312 0
M  V30 42 H 0.957903 -4.238476 2.831726 0
M  V30 END ATOM
M  V30 BEGIN BOND
M  V30 1 1 1 2
M  V30 2 1 2 3
M  V30 3 1 2 4
M  V30 4 1 4 5
M  V30 5 2 5 6
M  V30 6 1 6 7
M  V30 7 2 7 8
M  V30 8 1 8 9
M  V30 9 2 9 10
M  V30 10 1 10 11
M  V30 11 1 10 12
M  V30 12 2 12 13
M  V30 13 1 6 14
M  V30 14 1 14 15
M  V30 15 2 15 16
M  V30 16 1 16 17
M  V30 17 2 17 18
M  V30 18 1 18 19
M  V30 19 2 19 20
M  V30 20 2 14 21
M  V30 21 1 21 22
M  V30 22 1 22 23
M  V30 23 1 23 2
M  V30 24 1 22 5
M  V30 25 1 13 7
M  V30 26 1 20 15
M  V30 27 1 1 24
M  V30 28 1 1 25
M  V30 29 1 1 26
M  V30 30 1 3 27
M  V30 31 1 3 28
M  V30 32 1 3 29
M  V30 33 1 4 30
M  V30 34 1 4 31
M  V30 35 1 8 32
M  V30 36 1 9 33
M  V30 37 1 11 34
M  V30 38 1 12 35
M  V30 39 1 13 36
M  V30 40 1 16 37
M  V30 41 1 17 38
M  V30 42 1 18 39
M  V30 43 1 19 40
M  V30 44 1 23 41
M  V30 45 1 23 42
M  V30 END BOND
M  V30 END CTAB
M  END
>  <Dataset>  (725) 
ChEMBL_Kinases

>  <Ligand_Instance>  (725) 
nan

>  <PDB_ID>  (725) 
nan

>  <Standardized_SMILES>  (725) 
CC1(C)Cc2c(-c3ccc(O)cc3)c(-c3ccccn3)nn2C1

>  <Name>  (725) 
nan

>  <Pocket>  (725) 
nan

>  <ATP_Site>  (725) 
nan

>  <Peripheral>  (725) 
nan

>  <Num_H_Atoms_ProtBoundConf>  (725) 
nan

>  <Num_Resolved_Atoms>  (725) 
nan

>  <Num_Not_Resolved_Atoms>  (725) 
nan

$$$$
CHEMBL4281174
     RDKit          3D

  0  0  0  0  0  0  0  0  0  0999 V3000
M  V30 BEGIN CTAB
M  V30 COUNTS 67 71 0 0 0
M  V30 BEGIN ATOM
M  V30 1 N -0.318166 -3.449061 5.921389 0
M  V30 2 C 0.452545 -3.054556 5.145888 0
M  V30 3 C 1.422350 -2.572834 4.200829 0
M  V30 4 C 2.547153 -2.019532 4.752197 0
M  V30 5 N 3.465764 -1.559577 3.872704 0
M  V30 6 C 3.232759 -1.666115 2.536236 0
M  V30 7 N 4.276173 -1.112543 1.764778 0
M  V30 8 C 4.992879 -0.066704 1.111014 0
M  V30 9 C 4.300836 0.693760 0.076404 0
M  V30 10 C 4.422053 0.280661 -1.255477 0
M  V30 11 C 3.809890 0.903856 -2.307168 0
M  V30 12 C 3.021529 2.016188 -2.012715 0
M  V30 13 C 2.901632 2.428419 -0.678904 0
M  V30 14 C 3.535378 1.780195 0.389725 0
M  V30 15 O 3.215415 2.429196 1.525083 0
M  V30 16 C 2.178890 2.327079 2.404728 0
M  V30 17 F 2.367355 3.290653 3.409264 0
M  V30 18 F 2.140681 1.123032 3.042121 0
M  V30 19 F 0.955615 2.617935 1.793334 0
M  V30 20 N 2.119461 -2.215014 2.073476 0
M  V30 21 C 1.136264 -2.706397 2.837117 0
M  V30 22 N -0.059687 -3.321226 2.397338 0
M  V30 23 C -0.599304 -3.578478 1.121651 0
M  V30 24 C -1.174361 -2.446624 0.343629 0 CFG=2
M  V30 25 C -0.201658 -1.365249 0.051209 0
M  V30 26 C -0.843699 -0.272759 -0.816957 0 CFG=2
M  V30 27 C -2.018025 0.254540 -0.022893 0
M  V30 28 C -3.027868 -0.843988 0.223521 0 CFG=2
M  V30 29 C -2.411783 -1.962492 1.059937 0
M  V30 30 C -3.493658 -1.358829 -1.102204 0 CFG=1
M  V30 31 N -4.063991 -0.332658 -1.899791 0
M  V30 32 C -5.301319 0.209419 -1.487086 0
M  V30 33 C -5.331385 1.042845 -0.291026 0
M  V30 34 O -6.499765 1.457468 0.017062 0
M  V30 35 O -5.355512 1.827393 0.835923 0
M  V30 36 C -2.285371 -1.919698 -1.836824 0 CFG=1
M  V30 37 C -1.238036 -0.890455 -2.107621 0
M  V30 38 C -1.683255 -3.009295 -0.998626 0
M  V30 39 H 2.699991 -1.950353 5.811035 0
M  V30 40 H 4.730379 -2.075797 1.639831 0
M  V30 41 H 5.330971 0.663483 1.916308 0
M  V30 42 H 5.907011 -0.502657 0.634638 0
M  V30 43 H 5.041989 -0.588971 -1.457604 0
M  V30 44 H 3.953101 0.527701 -3.293120 0
M  V30 45 H 2.565231 2.468219 -2.867875 0
M  V30 46 H 2.251589 3.303976 -0.659009 0
M  V30 47 H -0.681534 -3.655821 3.199183 0
M  V30 48 H 0.159521 -4.140057 0.504382 0
M  V30 49 H -1.425728 -4.345679 1.224714 0
M  V30 50 H 0.108506 -0.790398 0.953476 0
M  V30 51 H 0.673569 -1.758129 -0.455798 0
M  V30 52 H -0.102544 0.532691 -0.901194 0
M  V30 53 H -1.612427 0.579965 0.955298 0
M  V30 54 H -2.488983 1.106403 -0.502835 0
M  V30 55 H -3.871944 -0.444272 0.836352 0
M  V30 56 H -2.206413 -1.538970 2.042076 0
M  V30 57 H -3.142571 -2.781699 1.073827 0
M  V30 58 H -4.200799 -2.227951 -0.978059 0
M  V30 59 H -4.108878 -0.585712 -2.910742 0
M  V30 60 H -5.693270 0.809307 -2.371502 0
M  V30 61 H -6.037695 -0.646100 -1.412867 0
M  V30 62 H -4.547117 1.843518 1.464735 0
M  V30 63 H -2.591736 -2.356013 -2.801368 0
M  V30 64 H -0.339301 -1.460661 -2.486093 0
M  V30 65 H -1.498240 -0.180106 -2.905380 0
M  V30 66 H -2.541518 -3.683702 -0.710512 0
M  V30 67 H -0.908175 -3.580985 -1.526391 0
M  V30 END ATOM
M  V30 BEGIN BOND
M  V30 1 3 1 2
M  V30 2 1 2 3
M  V30 3 2 3 4
M  V30 4 1 4 5
M  V30 5 2 5 6
M  V30 6 1 6 7
M  V30 7 1 7 8
M  V30 8 1 8 9
M  V30 9 2 9 10
M  V30 10 1 10 11
M  V30 11 2 11 12
M  V30 12 1 12 13
M  V30 13 2 13 14
M  V30 14 1 14 15
M  V30 15 1 15 16
M  V30 16 1 16 17
M  V30 17 1 16 18
M  V30 18 1 16 19
M  V30 19 1 6 20
M  V30 20 2 20 21
M  V30 21 1 21 22
M  V30 22 1 22 23
M  V30 23 1 24 23 CFG=1
M  V30 24 1 24 25
M  V30 25 1 25 26
M  V30 26 1 26 27
M  V30 27 1 27 28
M  V30 28 1 28 29
M  V30 29 1 28 30
M  V30 30 1 30 31
M  V30 31 1 31 32
M  V30 32 1 32 33
M  V30 33 2 33 34
M  V30 34 1 33 35
M  V30 35 1 30 36
M  V30 36 1 36 37
M  V30 37 1 36 38
M  V30 38 1 21 3
M  V30 39 1 29 24
M  V30 40 1 14 9
M  V30 41 1 38 24
M  V30 42 1 37 26
M  V30 43 1 4 39
M  V30 44 1 7 40
M  V30 45 1 8 41
M  V30 46 1 8 42
M  V30 47 1 10 43
M  V30 48 1 11 44
M  V30 49 1 12 45
M  V30 50 1 13 46
M  V30 51 1 22 47
M  V30 52 1 23 48
M  V30 53 1 23 49
M  V30 54 1 25 50
M  V30 55 1 25 51
M  V30 56 1 26 52 CFG=3
M  V30 57 1 27 53
M  V30 58 1 27 54
M  V30 59 1 28 55 CFG=1
M  V30 60 1 29 56
M  V30 61 1 29 57
M  V30 62 1 30 58 CFG=1
M  V30 63 1 31 59
M  V30 64 1 32 60
M  V30 65 1 32 61
M  V30 66 1 35 62
M  V30 67 1 36 63 CFG=3
M  V30 68 1 37 64
M  V30 69 1 37 65
M  V30 70 1 38 66
M  V30 71 1 38 67
M  V30 END BOND
M  V30 END CTAB
M  END
>  <Dataset>  (726) 
ChEMBL_Kinases

>  <Ligand_Instance>  (726) 
nan

>  <PDB_ID>  (726) 
nan

>  <Standardized_SMILES>  (726) 
N#Cc1cnc(NCc2ccccc2OC(F)(F)F)nc1NC[C@]12C[C@@H]3C[C@H](C1)[C@@H](NCC(=O)O)[C@@H](C3)C2

>  <Name>  (726) 
nan

>  <Pocket>  (726) 
nan

>  <ATP_Site>  (726) 
nan

>  <Peripheral>  (726) 
nan

>  <Num_H_Atoms_ProtBoundConf>  (726) 
nan

>  <Num_Resolved_Atoms>  (726) 
nan

>  <Num_Not_Resolved_Atoms>  (726) 
nan

$$$$
CHEMBL476111
     RDKit          3D

  0  0  0  0  0  0  0  0  0  0999 V3000
M  V30 BEGIN CTAB
M  V30 COUNTS 58 61 0 0 0
M  V30 BEGIN ATOM
M  V30 1 C 8.638987 -1.829837 3.525046 0
M  V30 2 O 7.666329 -0.985071 4.088285 0
M  V30 3 C 6.811842 -0.162807 3.386480 0
M  V30 4 C 5.877828 0.642338 4.017322 0
M  V30 5 C 5.052473 1.443771 3.231841 0
M  V30 6 C 5.191115 1.410122 1.856308 0
M  V30 7 N 4.326176 2.248027 1.061379 0
M  V30 8 C 3.166303 1.508376 0.755980 0
M  V30 9 O 3.189802 0.331080 1.248884 0
M  V30 10 C 2.030000 2.009767 -0.043670 0
M  V30 11 C 1.984476 3.276227 -0.585256 0
M  V30 12 C 0.869507 3.634413 -1.315021 0
M  V30 13 C -0.178561 2.758892 -1.505397 0
M  V30 14 C -1.369196 3.165752 -2.294051 0
M  V30 15 C -0.140285 1.490302 -0.966742 0
M  V30 16 C -1.207721 0.503897 -1.122334 0
M  V30 17 C -1.527785 -0.146992 0.065174 0
M  V30 18 C -2.510270 -1.113988 0.126499 0
M  V30 19 C -3.211216 -1.463571 -1.012752 0
M  V30 20 C -4.274130 -2.455483 -1.135964 0
M  V30 21 O -4.886757 -2.741155 -2.198049 0
M  V30 22 N -4.677991 -3.179741 0.020720 0
M  V30 23 C -5.674627 -4.184578 0.163976 0
M  V30 24 C -5.205780 -5.479315 -0.037446 0
M  V30 25 C -6.046337 -6.590465 0.063352 0
M  V30 26 C -7.371898 -6.338900 0.374287 0
M  V30 27 C -7.846836 -5.064765 0.575496 0
M  V30 28 C -9.223160 -4.784849 0.899831 0
M  V30 29 N -10.333650 -4.557486 1.168147 0
M  V30 30 C -7.011424 -3.983028 0.473595 0
M  V30 31 C -2.886414 -0.812432 -2.185267 0
M  V30 32 C -1.906556 0.156013 -2.260448 0
M  V30 33 C 0.987240 1.150209 -0.237806 0
M  V30 34 C 6.133563 0.597696 1.219918 0
M  V30 35 C 6.950556 -0.196260 2.007068 0
M  V30 36 H 9.234827 -1.372113 2.728644 0
M  V30 37 H 9.332788 -2.150072 4.332265 0
M  V30 38 H 8.203027 -2.789713 3.138743 0
M  V30 39 H 5.813278 0.628524 5.097382 0
M  V30 40 H 4.303970 2.091099 3.705645 0
M  V30 41 H 4.383239 3.241732 0.685657 0
M  V30 42 H 2.819454 3.943565 -0.421216 0
M  V30 43 H 0.792187 4.618901 -1.757969 0
M  V30 44 H -2.304393 2.660341 -1.940750 0
M  V30 45 H -1.537944 4.245901 -2.038689 0
M  V30 46 H -1.191267 3.052998 -3.367438 0
M  V30 47 H -1.061254 0.024225 1.037093 0
M  V30 48 H -2.801505 -1.651342 1.016262 0
M  V30 49 H -4.274111 -3.061921 0.965429 0
M  V30 50 H -4.171136 -5.724461 -0.283784 0
M  V30 51 H -5.737203 -7.597910 -0.081104 0
M  V30 52 H -8.104673 -7.154201 0.473724 0
M  V30 53 H -7.259268 -2.939905 0.607273 0
M  V30 54 H -3.364565 -0.997343 -3.148501 0
M  V30 55 H -1.602255 0.700755 -3.133233 0
M  V30 56 H 1.017436 0.141504 0.190399 0
M  V30 57 H 6.182101 0.626224 0.137306 0
M  V30 58 H 7.686271 -0.830796 1.514746 0
M  V30 END ATOM
M  V30 BEGIN BOND
M  V30 1 1 1 2
M  V30 2 1 2 3
M  V30 3 2 3 4
M  V30 4 1 4 5
M  V30 5 2 5 6
M  V30 6 1 6 7
M  V30 7 1 7 8
M  V30 8 2 8 9
M  V30 9 1 8 10
M  V30 10 2 10 11
M  V30 11 1 11 12
M  V30 12 2 12 13
M  V30 13 1 13 14
M  V30 14 1 13 15
M  V30 15 1 15 16
M  V30 16 2 16 17
M  V30 17 1 17 18
M  V30 18 2 18 19
M  V30 19 1 19 20
M  V30 20 2 20 21
M  V30 21 1 20 22
M  V30 22 1 22 23
M  V30 23 2 23 24
M  V30 24 1 24 25
M  V30 25 2 25 26
M  V30 26 1 26 27
M  V30 27 1 27 28
M  V30 28 3 28 29
M  V30 29 2 27 30
M  V30 30 1 19 31
M  V30 31 2 31 32
M  V30 32 2 15 33
M  V30 33 1 6 34
M  V30 34 2 34 35
M  V30 35 1 35 3
M  V30 36 1 33 10
M  V30 37 1 32 16
M  V30 38 1 30 23
M  V30 39 1 1 36
M  V30 40 1 1 37
M  V30 41 1 1 38
M  V30 42 1 4 39
M  V30 43 1 5 40
M  V30 44 1 7 41
M  V30 45 1 11 42
M  V30 46 1 12 43
M  V30 47 1 14 44
M  V30 48 1 14 45
M  V30 49 1 14 46
M  V30 50 1 17 47
M  V30 51 1 18 48
M  V30 52 1 22 49
M  V30 53 1 24 50
M  V30 54 1 25 51
M  V30 55 1 26 52
M  V30 56 1 30 53
M  V30 57 1 31 54
M  V30 58 1 32 55
M  V30 59 1 33 56
M  V30 60 1 34 57
M  V30 61 1 35 58
M  V30 END BOND
M  V30 END CTAB
M  END
>  <Dataset>  (727) 
ChEMBL_Kinases

>  <Ligand_Instance>  (727) 
nan

>  <PDB_ID>  (727) 
nan

>  <Standardized_SMILES>  (727) 
COc1ccc(NC(=O)c2ccc(C)c(-c3ccc(C(=O)Nc4cccc(C#N)c4)cc3)c2)cc1

>  <Name>  (727) 
nan

>  <Pocket>  (727) 
nan

>  <ATP_Site>  (727) 
nan

>  <Peripheral>  (727) 
nan

>  <Num_H_Atoms_ProtBoundConf>  (727) 
nan

>  <Num_Resolved_Atoms>  (727) 
nan

>  <Num_Not_Resolved_Atoms>  (727) 
nan

$$$$
CHEMBL4281099
     RDKit          3D

  0  0  0  0  0  0  0  0  0  0999 V3000
M  V30 BEGIN CTAB
M  V30 COUNTS 54 58 0 0 0
M  V30 BEGIN ATOM
M  V30 1 O -0.209505 -4.143465 3.660162 0
M  V30 2 S -0.170116 -3.613747 2.271734 0
M  V30 3 O 0.419863 -4.606687 1.325434 0
M  V30 4 N 0.785888 -2.127970 2.246735 0
M  V30 5 C 1.158652 -1.759875 3.591319 0
M  V30 6 C 1.931597 -0.506965 3.745110 0
M  V30 7 N 3.136835 -0.337200 3.007381 0
M  V30 8 C 2.950653 0.124359 1.652089 0
M  V30 9 N 3.828114 1.155050 1.463703 0
M  V30 10 C 3.885587 1.802422 0.294749 0
M  V30 11 C 3.085694 1.489093 -0.785515 0
M  V30 12 C 2.206087 0.451457 -0.588073 0
M  V30 13 C 1.265076 -0.070890 -1.569232 0
M  V30 14 C -0.015052 0.371903 -1.371134 0
M  V30 15 C -0.849576 1.194301 -0.504531 0
M  V30 16 C -1.338349 2.421183 -0.920035 0
M  V30 17 C -2.144004 3.226464 -0.114268 0
M  V30 18 C -2.424202 2.710867 1.139209 0
M  V30 19 F -3.204503 3.480235 1.934910 0
M  V30 20 C -1.962328 1.496479 1.598964 0
M  V30 21 C -1.175361 0.749001 0.765707 0
M  V30 22 N -0.795133 -0.142410 -2.306711 0
M  V30 23 C -0.031874 -0.931794 -3.133391 0
M  V30 24 S 0.196635 -2.073119 -4.594023 0
M  V30 25 C 2.056613 -2.296711 -4.315498 0
M  V30 26 C 2.321040 -1.483465 -3.143169 0
M  V30 27 N 1.238558 -0.880414 -2.670061 0
M  V30 28 N 2.221643 -0.124842 0.598644 0
M  V30 29 C -1.794056 -3.227169 1.678002 0
M  V30 30 C -2.917684 -2.893083 2.400241 0
M  V30 31 C -4.094878 -2.607340 1.746067 0
M  V30 32 C -4.202921 -2.641154 0.378670 0
M  V30 33 O -5.401460 -2.349331 -0.271002 0
M  V30 34 C -3.116098 -2.968482 -0.387287 0
M  V30 35 C -1.934868 -3.253605 0.292626 0
M  V30 36 H 1.702352 -2.395336 1.729999 0
M  V30 37 H 1.758496 -2.591449 4.066011 0
M  V30 38 H 0.246019 -1.700732 4.248627 0
M  V30 39 H 2.240299 -0.356842 4.839555 0
M  V30 40 H 1.294207 0.414956 3.553726 0
M  V30 41 H 4.060629 -0.536674 3.399297 0
M  V30 42 H 4.566793 2.642176 0.078096 0
M  V30 43 H 3.080689 1.966585 -1.752777 0
M  V30 44 H -1.100196 2.796589 -1.905422 0
M  V30 45 H -2.528290 4.179157 -0.425239 0
M  V30 46 H -2.235562 1.185596 2.590346 0
M  V30 47 H -0.785919 -0.201137 1.058451 0
M  V30 48 H 2.730140 -2.940117 -4.970078 0
M  V30 49 H 3.364596 -1.558830 -2.920907 0
M  V30 50 H -2.750712 -2.892031 3.470829 0
M  V30 51 H -4.942070 -2.352658 2.341538 0
M  V30 52 H -5.472960 -2.300230 -1.276460 0
M  V30 53 H -3.154725 -3.006524 -1.470781 0
M  V30 54 H -1.089396 -3.509049 -0.363640 0
M  V30 END ATOM
M  V30 BEGIN BOND
M  V30 1 2 1 2
M  V30 2 2 2 3
M  V30 3 1 2 4
M  V30 4 1 4 5
M  V30 5 1 5 6
M  V30 6 1 6 7
M  V30 7 1 7 8
M  V30 8 2 8 9
M  V30 9 1 9 10
M  V30 10 2 10 11
M  V30 11 1 11 12
M  V30 12 1 12 13
M  V30 13 2 13 14
M  V30 14 1 14 15
M  V30 15 2 15 16
M  V30 16 1 16 17
M  V30 17 2 17 18
M  V30 18 1 18 19
M  V30 19 1 18 20
M  V30 20 2 20 21
M  V30 21 1 14 22
M  V30 22 2 22 23
M  V30 23 1 23 24
M  V30 24 1 24 25
M  V30 25 2 25 26
M  V30 26 1 26 27
M  V30 27 2 12 28
M  V30 28 1 2 29
M  V30 29 2 29 30
M  V30 30 1 30 31
M  V30 31 2 31 32
M  V30 32 1 32 33
M  V30 33 1 32 34
M  V30 34 2 34 35
M  V30 35 1 28 8
M  V30 36 1 35 29
M  V30 37 1 27 13
M  V30 38 1 21 15
M  V30 39 1 27 23
M  V30 40 1 4 36
M  V30 41 1 5 37
M  V30 42 1 5 38
M  V30 43 1 6 39
M  V30 44 1 6 40
M  V30 45 1 7 41
M  V30 46 1 10 42
M  V30 47 1 11 43
M  V30 48 1 16 44
M  V30 49 1 17 45
M  V30 50 1 20 46
M  V30 51 1 21 47
M  V30 52 1 25 48
M  V30 53 1 26 49
M  V30 54 1 30 50
M  V30 55 1 31 51
M  V30 56 1 33 52
M  V30 57 1 34 53
M  V30 58 1 35 54
M  V30 END BOND
M  V30 END CTAB
M  END
>  <Dataset>  (728) 
ChEMBL_Kinases

>  <Ligand_Instance>  (728) 
nan

>  <PDB_ID>  (728) 
nan

>  <Standardized_SMILES>  (728) 
O=S(=O)(NCCNc1nccc(-c2c(-c3ccc(F)cc3)nc3sccn23)n1)c1ccc(O)cc1

>  <Name>  (728) 
nan

>  <Pocket>  (728) 
nan

>  <ATP_Site>  (728) 
nan

>  <Peripheral>  (728) 
nan

>  <Num_H_Atoms_ProtBoundConf>  (728) 
nan

>  <Num_Resolved_Atoms>  (728) 
nan

>  <Num_Not_Resolved_Atoms>  (728) 
nan

$$$$
CHEMBL4761120
     RDKit          3D

  0  0  0  0  0  0  0  0  0  0999 V3000
M  V30 BEGIN CTAB
M  V30 COUNTS 46 49 0 0 0
M  V30 BEGIN ATOM
M  V30 1 O 0.659335 -1.292325 -0.120185 0
M  V30 2 C 1.888546 -1.421488 -0.329839 0
M  V30 3 C 2.196530 -1.005673 -1.690641 0
M  V30 4 C 1.014825 -0.561980 -2.431538 0
M  V30 5 C 0.303323 -1.518318 -3.164410 0
M  V30 6 C -0.826264 -1.247958 -3.908192 0
M  V30 7 N -1.285757 0.022446 -3.938212 0
M  V30 8 C -0.630991 0.981251 -3.245196 0
M  V30 9 C 0.495656 0.704601 -2.505118 0
M  V30 10 N 2.480568 -1.912454 0.821620 0
M  V30 11 C 3.009523 -2.411568 2.028937 0
M  V30 12 C 2.914719 -1.593813 3.256901 0
M  V30 13 C 1.639647 -1.285637 3.898525 0
M  V30 14 N 0.591766 -0.626172 3.228135 0
M  V30 15 C 0.394314 0.691794 3.048099 0
M  V30 16 O 1.308933 1.430838 3.494023 0
M  V30 17 C -0.694541 1.249214 2.435702 0
M  V30 18 C -0.773275 2.621255 2.315560 0
M  V30 19 C -1.910330 3.079226 1.682552 0
M  V30 20 F -2.038678 4.438506 1.536854 0
M  V30 21 C -2.927034 2.288597 1.184893 0
M  V30 22 C -2.789642 0.907126 1.336881 0
M  V30 23 C -1.673840 0.408520 1.960896 0
M  V30 24 N -1.502115 -0.899562 2.126608 0
M  V30 25 C -2.278234 -1.931604 1.771181 0
M  V30 26 S -3.712896 -2.047452 1.012362 0
M  V30 27 N -1.703879 -3.088759 2.143088 0
M  V30 28 N -0.560252 -2.770893 2.735071 0
M  V30 29 C -0.417487 -1.410566 2.734132 0
M  V30 30 H 2.993761 -0.208857 -1.671269 0
M  V30 31 H 2.672352 -1.833254 -2.273758 0
M  V30 32 H 0.621323 -2.572977 -3.184812 0
M  V30 33 H -1.337624 -2.026295 -4.456185 0
M  V30 34 H -1.028040 1.991715 -3.291645 0
M  V30 35 H 1.022259 1.466601 -1.949799 0
M  V30 36 H 3.442703 -1.864009 0.301767 0
M  V30 37 H 4.035756 -2.862933 1.907083 0
M  V30 38 H 2.418985 -3.390178 2.281317 0
M  V30 39 H 3.523907 -2.169598 4.036850 0
M  V30 40 H 3.564144 -0.669122 3.138922 0
M  V30 41 H 1.860813 -0.713362 4.877169 0
M  V30 42 H 1.240201 -2.260045 4.345004 0
M  V30 43 H -0.020298 3.306920 2.678434 0
M  V30 44 H -3.789394 2.731028 0.699504 0
M  V30 45 H -3.593304 0.346659 0.940080 0
M  V30 46 H -1.911717 -4.115916 2.090554 0
M  V30 END ATOM
M  V30 BEGIN BOND
M  V30 1 2 1 2
M  V30 2 1 2 3
M  V30 3 1 3 4
M  V30 4 2 4 5
M  V30 5 1 5 6
M  V30 6 2 6 7
M  V30 7 1 7 8
M  V30 8 2 8 9
M  V30 9 1 2 10
M  V30 10 1 10 11
M  V30 11 1 11 12
M  V30 12 1 12 13
M  V30 13 1 13 14
M  V30 14 1 14 15
M  V30 15 2 15 16
M  V30 16 1 15 17
M  V30 17 2 17 18
M  V30 18 1 18 19
M  V30 19 1 19 20
M  V30 20 2 19 21
M  V30 21 1 21 22
M  V30 22 2 22 23
M  V30 23 1 23 24
M  V30 24 1 24 25
M  V30 25 2 25 26
M  V30 26 1 25 27
M  V30 27 1 27 28
M  V30 28 2 28 29
M  V30 29 1 9 4
M  V30 30 1 29 14
M  V30 31 1 23 17
M  V30 32 1 29 24
M  V30 33 1 3 30
M  V30 34 1 3 31
M  V30 35 1 5 32
M  V30 36 1 6 33
M  V30 37 1 8 34
M  V30 38 1 9 35
M  V30 39 1 10 36
M  V30 40 1 11 37
M  V30 41 1 11 38
M  V30 42 1 12 39
M  V30 43 1 12 40
M  V30 44 1 13 41
M  V30 45 1 13 42
M  V30 46 1 18 43
M  V30 47 1 21 44
M  V30 48 1 22 45
M  V30 49 1 27 46
M  V30 END BOND
M  V30 END CTAB
M  END
>  <Dataset>  (729) 
ChEMBL_Kinases

>  <Ligand_Instance>  (729) 
nan

>  <PDB_ID>  (729) 
nan

>  <Standardized_SMILES>  (729) 
O=C(Cc1ccncc1)NCCCn1c(=O)c2cc(F)ccc2n2c(=S)[nH]nc12

>  <Name>  (729) 
nan

>  <Pocket>  (729) 
nan

>  <ATP_Site>  (729) 
nan

>  <Peripheral>  (729) 
nan

>  <Num_H_Atoms_ProtBoundConf>  (729) 
nan

>  <Num_Resolved_Atoms>  (729) 
nan

>  <Num_Not_Resolved_Atoms>  (729) 
nan

$$$$
CHEMBL4760440
     RDKit          3D

  0  0  0  0  0  0  0  0  0  0999 V3000
M  V30 BEGIN CTAB
M  V30 COUNTS 49 53 0 0 0
M  V30 BEGIN ATOM
M  V30 1 C -0.073093 -8.645398 3.319797 0
M  V30 2 O 1.031381 -8.058168 2.656764 0
M  V30 3 C 0.823386 -7.021981 1.756747 0
M  V30 4 C 2.019293 -6.568666 1.201947 0
M  V30 5 C 2.030178 -5.539499 0.280822 0
M  V30 6 C 0.834324 -4.930310 -0.113945 0
M  V30 7 N 0.807986 -3.868591 -1.059530 0
M  V30 8 N 1.102705 -3.977724 -2.348594 0
M  V30 9 N 0.968737 -2.789107 -2.911439 0
M  V30 10 C 0.582709 -1.886987 -1.988699 0
M  V30 11 C 0.313847 -0.526878 -2.084191 0
M  V30 12 N -0.063133 0.118609 -0.945656 0
M  V30 13 C -0.160289 -0.576526 0.216707 0
M  V30 14 N -0.557761 0.161885 1.358418 0
M  V30 15 C -0.831933 1.556959 1.251320 0 CFG=1
M  V30 16 C -1.244834 2.174722 2.589621 0
M  V30 17 C -0.521081 3.525288 2.628978 0
M  V30 18 N -0.169203 3.713530 1.233506 0
M  V30 19 C -0.331020 4.869086 0.416632 0
M  V30 20 C -0.898629 5.978271 1.008029 0
M  V30 21 C -1.042821 7.081929 0.192943 0
M  V30 22 N -0.656343 7.091479 -1.107976 0
M  V30 23 C -0.107223 5.971308 -1.624755 0
M  V30 24 C 0.087122 4.799148 -0.896576 0
M  V30 25 C 0.385403 2.405342 0.918334 0
M  V30 26 N 0.103723 -1.904612 0.302948 0
M  V30 27 C 0.481456 -2.591142 -0.797799 0
M  V30 28 C -0.333739 -5.397717 0.449963 0
M  V30 29 C -0.358600 -6.424800 1.370974 0
M  V30 30 H -0.327032 -8.058372 4.236593 0
M  V30 31 H -0.943916 -8.705492 2.629282 0
M  V30 32 H 0.135193 -9.700323 3.605795 0
M  V30 33 H 3.012265 -6.961367 1.428639 0
M  V30 34 H 2.936191 -5.160752 -0.171051 0
M  V30 35 H 0.408879 -0.030963 -3.035511 0
M  V30 36 H -0.651056 -0.300707 2.268801 0
M  V30 37 H -1.595752 1.785205 0.454256 0
M  V30 38 H -2.327547 2.361578 2.582458 0
M  V30 39 H -0.951013 1.530967 3.438189 0
M  V30 40 H -1.136067 4.306591 3.063006 0
M  V30 41 H 0.390810 3.439866 3.272312 0
M  V30 42 H -1.226465 6.053235 2.014032 0
M  V30 43 H -1.487994 8.006452 0.592620 0
M  V30 44 H 0.203660 5.969903 -2.660483 0
M  V30 45 H 0.528454 3.916833 -1.333034 0
M  V30 46 H 1.193237 2.223560 1.659717 0
M  V30 47 H 0.710729 2.290956 -0.115242 0
M  V30 48 H -1.277044 -4.973204 0.188633 0
M  V30 49 H -1.225178 -6.840868 1.851296 0
M  V30 END ATOM
M  V30 BEGIN BOND
M  V30 1 1 1 2
M  V30 2 1 2 3
M  V30 3 2 3 4
M  V30 4 1 4 5
M  V30 5 2 5 6
M  V30 6 1 6 7
M  V30 7 1 7 8
M  V30 8 2 8 9
M  V30 9 1 9 10
M  V30 10 2 10 11
M  V30 11 1 11 12
M  V30 12 2 12 13
M  V30 13 1 13 14
M  V30 14 1 14 15
M  V30 15 1 15 16
M  V30 16 1 16 17
M  V30 17 1 17 18
M  V30 18 1 18 19
M  V30 19 2 19 20
M  V30 20 1 20 21
M  V30 21 2 21 22
M  V30 22 1 22 23
M  V30 23 2 23 24
M  V30 24 1 18 25
M  V30 25 1 13 26
M  V30 26 2 26 27
M  V30 27 1 6 28
M  V30 28 2 28 29
M  V30 29 1 29 3
M  V30 30 1 27 7
M  V30 31 1 27 10
M  V30 32 1 25 15
M  V30 33 1 24 19
M  V30 34 1 1 30
M  V30 35 1 1 31
M  V30 36 1 1 32
M  V30 37 1 4 33
M  V30 38 1 5 34
M  V30 39 1 11 35
M  V30 40 1 14 36
M  V30 41 1 15 37 CFG=3
M  V30 42 1 16 38
M  V30 43 1 16 39
M  V30 44 1 17 40
M  V30 45 1 17 41
M  V30 46 1 20 42
M  V30 47 1 21 43
M  V30 48 1 23 44
M  V30 49 1 24 45
M  V30 50 1 25 46
M  V30 51 1 25 47
M  V30 52 1 28 48
M  V30 53 1 29 49
M  V30 END BOND
M  V30 END CTAB
M  END
>  <Dataset>  (730) 
ChEMBL_Kinases

>  <Ligand_Instance>  (730) 
nan

>  <PDB_ID>  (730) 
nan

>  <Standardized_SMILES>  (730) 
COc1ccc(-n2nnc3cnc(N[C@H]4CCN(c5ccncc5)C4)nc32)cc1

>  <Name>  (730) 
nan

>  <Pocket>  (730) 
nan

>  <ATP_Site>  (730) 
nan

>  <Peripheral>  (730) 
nan

>  <Num_H_Atoms_ProtBoundConf>  (730) 
nan

>  <Num_Resolved_Atoms>  (730) 
nan

>  <Num_Not_Resolved_Atoms>  (730) 
nan

$$$$
CHEMBL4761123
     RDKit          3D

  0  0  0  0  0  0  0  0  0  0999 V3000
M  V30 BEGIN CTAB
M  V30 COUNTS 40 42 0 0 0
M  V30 BEGIN ATOM
M  V30 1 C -2.911280 -3.329724 4.318961 0
M  V30 2 C -2.387102 -3.402926 3.221728 0
M  V30 3 C -1.757764 -3.467674 1.932572 0
M  V30 4 N -0.423740 -3.324986 1.773109 0
M  V30 5 C 0.157376 -3.387210 0.561273 0
M  V30 6 N 1.567266 -3.211888 0.613616 0
M  V30 7 C 2.321525 -2.009529 0.518739 0
M  V30 8 C 3.700406 -2.058802 0.605375 0
M  V30 9 C 4.374468 -0.852552 0.504394 0
M  V30 10 C 3.732240 0.375132 0.323696 0
M  V30 11 C 2.345705 0.394323 0.240100 0
M  V30 12 C 1.616872 1.675284 0.047457 0
M  V30 13 C 1.249602 2.327648 1.327041 0
M  V30 14 O 1.414723 2.041911 2.562902 0
M  V30 15 N 0.560338 3.540253 0.958777 0
M  V30 16 C 0.201331 4.166954 -0.321953 0
M  V30 17 C 0.053239 4.438320 1.983420 0
M  V30 18 C 1.673733 -0.813756 0.341422 0
M  V30 19 N -0.619629 -3.600116 -0.538023 0
M  V30 20 C -1.948671 -3.745431 -0.408196 0
M  V30 21 N -2.875229 -3.959884 -1.359366 0
M  V30 22 C -4.081045 -4.036701 -0.736956 0
M  V30 23 N -3.880992 -3.867006 0.602856 0
M  V30 24 C -2.575128 -3.686948 0.819003 0
M  V30 25 H -3.376111 -3.277496 5.287246 0
M  V30 26 H 2.038225 -4.134679 0.739885 0
M  V30 27 H 4.213770 -2.994125 0.744379 0
M  V30 28 H 5.462666 -0.859697 0.569182 0
M  V30 29 H 4.321170 1.272513 0.253718 0
M  V30 30 H 0.716299 1.483577 -0.587815 0
M  V30 31 H 2.247823 2.356713 -0.589336 0
M  V30 32 H -0.895933 4.315224 -0.403407 0
M  V30 33 H 0.540077 3.588705 -1.180099 0
M  V30 34 H 0.630391 5.198988 -0.392204 0
M  V30 35 H 0.668448 5.379472 1.921812 0
M  V30 36 H 0.294679 4.011257 2.989184 0
M  V30 37 H -1.032877 4.645066 1.863513 0
M  V30 38 H 0.595394 -0.777497 0.273834 0
M  V30 39 H -2.725145 -4.054059 -2.390779 0
M  V30 40 H -5.003639 -4.207102 -1.285233 0
M  V30 END ATOM
M  V30 BEGIN BOND
M  V30 1 3 1 2
M  V30 2 1 2 3
M  V30 3 2 3 4
M  V30 4 1 4 5
M  V30 5 1 5 6
M  V30 6 1 6 7
M  V30 7 2 7 8
M  V30 8 1 8 9
M  V30 9 2 9 10
M  V30 10 1 10 11
M  V30 11 1 11 12
M  V30 12 1 12 13
M  V30 13 2 13 14
M  V30 14 1 13 15
M  V30 15 1 15 16
M  V30 16 1 15 17
M  V30 17 2 11 18
M  V30 18 2 5 19
M  V30 19 1 19 20
M  V30 20 1 20 21
M  V30 21 1 21 22
M  V30 22 2 22 23
M  V30 23 1 23 24
M  V30 24 1 24 3
M  V30 25 1 18 7
M  V30 26 2 24 20
M  V30 27 1 1 25
M  V30 28 1 6 26
M  V30 29 1 8 27
M  V30 30 1 9 28
M  V30 31 1 10 29
M  V30 32 1 12 30
M  V30 33 1 12 31
M  V30 34 1 16 32
M  V30 35 1 16 33
M  V30 36 1 16 34
M  V30 37 1 17 35
M  V30 38 1 17 36
M  V30 39 1 17 37
M  V30 40 1 18 38
M  V30 41 1 21 39
M  V30 42 1 22 40
M  V30 END BOND
M  V30 END CTAB
M  END
>  <Dataset>  (731) 
ChEMBL_Kinases

>  <Ligand_Instance>  (731) 
nan

>  <PDB_ID>  (731) 
nan

>  <Standardized_SMILES>  (731) 
C#Cc1nc(Nc2cccc(CC(=O)N(C)C)c2)nc2[nH]cnc12

>  <Name>  (731) 
nan

>  <Pocket>  (731) 
nan

>  <ATP_Site>  (731) 
nan

>  <Peripheral>  (731) 
nan

>  <Num_H_Atoms_ProtBoundConf>  (731) 
nan

>  <Num_Resolved_Atoms>  (731) 
nan

>  <Num_Not_Resolved_Atoms>  (731) 
nan

$$$$
CHEMBL4761146
     RDKit          3D

  0  0  0  0  0  0  0  0  0  0999 V3000
M  V30 BEGIN CTAB
M  V30 COUNTS 37 40 0 0 0
M  V30 BEGIN ATOM
M  V30 1 O -0.661947 -1.692401 3.407851 0
M  V30 2 C 0.150429 -1.376254 2.522597 0
M  V30 3 C 1.138572 -2.259832 2.145326 0
M  V30 4 C 1.199231 -3.492342 2.771949 0
M  V30 5 C 2.209395 -4.375866 2.375297 0
M  V30 6 C 3.136517 -4.074816 1.398037 0
M  V30 7 C 3.053009 -2.836174 0.788028 0
M  V30 8 C 2.073304 -1.980680 1.173497 0
M  V30 9 N 1.967129 -0.778626 0.603547 0
M  V30 10 C 2.682613 -0.174258 -0.352220 0
M  V30 11 S 3.972704 -0.642045 -1.221076 0
M  V30 12 N 2.181362 1.035429 -0.578530 0
M  V30 13 N 1.152351 1.248466 0.202261 0
M  V30 14 C 1.018604 0.109439 0.943650 0
M  V30 15 N 0.097227 -0.180301 1.909452 0
M  V30 16 C -0.958336 0.710014 2.334562 0
M  V30 17 C -2.235729 0.522300 1.562213 0
M  V30 18 C -1.966552 0.774030 0.127577 0
M  V30 19 C -2.055605 2.000942 -0.486174 0
M  V30 20 C -1.780110 2.098731 -1.850169 0
M  V30 21 C -1.418653 1.003792 -2.614676 0
M  V30 22 C -1.327699 -0.232944 -2.001536 0
M  V30 23 C -1.606057 -0.320059 -0.633158 0
M  V30 24 H 0.502694 -3.780854 3.540536 0
M  V30 25 H 2.250697 -5.337235 2.869325 0
M  V30 26 H 3.892449 -4.814654 1.144602 0
M  V30 27 H 3.805150 -2.678225 0.042747 0
M  V30 28 H 2.434696 1.825569 -1.232959 0
M  V30 29 H -1.119918 0.685384 3.431267 0
M  V30 30 H -0.618569 1.753830 2.126436 0
M  V30 31 H -2.993051 1.217992 1.971766 0
M  V30 32 H -2.612240 -0.533195 1.697166 0
M  V30 33 H -2.338290 2.851415 0.116612 0
M  V30 34 H -1.845509 3.054054 -2.346449 0
M  V30 35 H -1.212714 1.112632 -3.664231 0
M  V30 36 H -1.051021 -1.092513 -2.568720 0
M  V30 37 H -1.518486 -1.307167 -0.213433 0
M  V30 END ATOM
M  V30 BEGIN BOND
M  V30 1 2 1 2
M  V30 2 1 2 3
M  V30 3 2 3 4
M  V30 4 1 4 5
M  V30 5 2 5 6
M  V30 6 1 6 7
M  V30 7 2 7 8
M  V30 8 1 8 9
M  V30 9 1 9 10
M  V30 10 2 10 11
M  V30 11 1 10 12
M  V30 12 1 12 13
M  V30 13 2 13 14
M  V30 14 1 14 15
M  V30 15 1 15 16
M  V30 16 1 16 17
M  V30 17 1 17 18
M  V30 18 2 18 19
M  V30 19 1 19 20
M  V30 20 2 20 21
M  V30 21 1 21 22
M  V30 22 2 22 23
M  V30 23 1 15 2
M  V30 24 1 23 18
M  V30 25 1 8 3
M  V30 26 1 14 9
M  V30 27 1 4 24
M  V30 28 1 5 25
M  V30 29 1 6 26
M  V30 30 1 7 27
M  V30 31 1 12 28
M  V30 32 1 16 29
M  V30 33 1 16 30
M  V30 34 1 17 31
M  V30 35 1 17 32
M  V30 36 1 19 33
M  V30 37 1 20 34
M  V30 38 1 21 35
M  V30 39 1 22 36
M  V30 40 1 23 37
M  V30 END BOND
M  V30 END CTAB
M  END
>  <Dataset>  (732) 
ChEMBL_Kinases

>  <Ligand_Instance>  (732) 
nan

>  <PDB_ID>  (732) 
nan

>  <Standardized_SMILES>  (732) 
O=c1c2ccccc2n2c(=S)[nH]nc2n1CCc1ccccc1

>  <Name>  (732) 
nan

>  <Pocket>  (732) 
nan

>  <ATP_Site>  (732) 
nan

>  <Peripheral>  (732) 
nan

>  <Num_H_Atoms_ProtBoundConf>  (732) 
nan

>  <Num_Resolved_Atoms>  (732) 
nan

>  <Num_Not_Resolved_Atoms>  (732) 
nan

$$$$
CHEMBL4280876
     RDKit          3D

  0  0  0  0  0  0  0  0  0  0999 V3000
M  V30 BEGIN CTAB
M  V30 COUNTS 42 45 0 0 0
M  V30 BEGIN ATOM
M  V30 1 C 0.527975 -4.530995 1.230498 0
M  V30 2 C -0.821611 -4.177423 1.778633 0
M  V30 3 N -1.574847 -3.513207 0.740626 0
M  V30 4 C -1.151149 -2.310596 0.129083 0
M  V30 5 N -0.021599 -1.865991 0.567509 0
M  V30 6 N 0.525217 -0.681511 0.053662 0
M  V30 7 C -0.020097 0.044052 -0.862248 0
M  V30 8 C 0.804161 1.209494 -1.172363 0
M  V30 9 C 0.440672 2.161200 -2.133403 0
M  V30 10 C 1.168146 3.277019 -2.471956 0
M  V30 11 C 2.360025 3.487688 -1.815360 0
M  V30 12 N 3.304715 4.452521 -1.892170 0
M  V30 13 C 4.267950 4.163114 -1.017234 0
M  V30 14 O 5.294961 4.847968 -0.828187 0
M  V30 15 N 3.990606 3.009041 -0.342680 0
M  V30 16 C 2.809421 2.610784 -0.851651 0
M  V30 17 C 2.022124 1.526207 -0.577355 0
M  V30 18 C -1.284178 -0.046714 -1.657115 0
M  V30 19 S -2.156300 -1.544980 -1.131449 0
M  V30 20 C -0.736005 -3.433018 3.034077 0
M  V30 21 C 0.372112 -3.217927 3.828101 0
M  V30 22 C 0.348289 -2.500755 4.996672 0
M  V30 23 C -0.866940 -1.957260 5.406085 0
M  V30 24 C -1.994888 -2.148593 4.643176 0
M  V30 25 C -1.940285 -2.883055 3.458453 0
M  V30 26 H 0.852772 -5.541215 1.565435 0
M  V30 27 H 0.439384 -4.635382 0.110974 0
M  V30 28 H 1.323848 -3.814793 1.432182 0
M  V30 29 H -1.325873 -5.146464 2.008723 0
M  V30 30 H -2.495871 -3.920209 0.396183 0
M  V30 31 H -0.500898 2.018067 -2.669606 0
M  V30 32 H 0.809540 3.954490 -3.224257 0
M  V30 33 H 3.289210 5.282819 -2.524383 0
M  V30 34 H 4.544108 2.524404 0.398435 0
M  V30 35 H 2.377193 0.832068 0.184914 0
M  V30 36 H -1.954056 0.799644 -1.422391 0
M  V30 37 H -1.029634 -0.073972 -2.731730 0
M  V30 38 H 1.282479 -3.658798 3.465624 0
M  V30 39 H 1.244544 -2.359570 5.585165 0
M  V30 40 H -0.861154 -1.397197 6.328543 0
M  V30 41 H -2.881561 -1.687236 5.048433 0
M  V30 42 H -2.917615 -2.946265 2.966067 0
M  V30 END ATOM
M  V30 BEGIN BOND
M  V30 1 1 1 2
M  V30 2 1 2 3
M  V30 3 1 3 4
M  V30 4 2 4 5
M  V30 5 1 5 6
M  V30 6 2 6 7
M  V30 7 1 7 8
M  V30 8 2 8 9
M  V30 9 1 9 10
M  V30 10 2 10 11
M  V30 11 1 11 12
M  V30 12 1 12 13
M  V30 13 2 13 14
M  V30 14 1 13 15
M  V30 15 1 15 16
M  V30 16 2 16 17
M  V30 17 1 7 18
M  V30 18 1 18 19
M  V30 19 1 2 20
M  V30 20 2 20 21
M  V30 21 1 21 22
M  V30 22 2 22 23
M  V30 23 1 23 24
M  V30 24 2 24 25
M  V30 25 1 19 4
M  V30 26 1 25 20
M  V30 27 1 17 8
M  V30 28 1 16 11
M  V30 29 1 1 26
M  V30 30 1 1 27
M  V30 31 1 1 28
M  V30 32 1 2 29
M  V30 33 1 3 30
M  V30 34 1 9 31
M  V30 35 1 10 32
M  V30 36 1 12 33
M  V30 37 1 15 34
M  V30 38 1 17 35
M  V30 39 1 18 36
M  V30 40 1 18 37
M  V30 41 1 21 38
M  V30 42 1 22 39
M  V30 43 1 23 40
M  V30 44 1 24 41
M  V30 45 1 25 42
M  V30 END BOND
M  V30 END CTAB
M  END
>  <Dataset>  (733) 
ChEMBL_Kinases

>  <Ligand_Instance>  (733) 
nan

>  <PDB_ID>  (733) 
nan

>  <Standardized_SMILES>  (733) 
CC(NC1=NN=C(c2ccc3[nH]c(=O)[nH]c3c2)CS1)c1ccccc1

>  <Name>  (733) 
nan

>  <Pocket>  (733) 
nan

>  <ATP_Site>  (733) 
nan

>  <Peripheral>  (733) 
nan

>  <Num_H_Atoms_ProtBoundConf>  (733) 
nan

>  <Num_Resolved_Atoms>  (733) 
nan

>  <Num_Not_Resolved_Atoms>  (733) 
nan

$$$$
CHEMBL4761177
     RDKit          3D

  0  0  0  0  0  0  0  0  0  0999 V3000
M  V30 BEGIN CTAB
M  V30 COUNTS 54 57 0 0 0
M  V30 BEGIN ATOM
M  V30 1 N 0.165749 -4.572692 4.462178 0
M  V30 2 C 0.469588 -3.338011 3.785008 0
M  V30 3 N 1.484979 -2.599568 4.260385 0
M  V30 4 C 1.865355 -1.433509 3.719644 0
M  V30 5 C 1.093009 -1.102533 2.636572 0
M  V30 6 C 1.386688 0.194871 1.898350 0
M  V30 7 C 2.390829 1.109524 2.220015 0
M  V30 8 N 2.521846 2.186178 1.488557 0
M  V30 9 C 1.855461 2.496167 0.534222 0
M  V30 10 C 1.727049 3.564916 -0.465136 0
M  V30 11 C 2.945081 3.703447 -1.349501 0
M  V30 12 C 2.763132 5.022834 -2.095056 0
M  V30 13 N 3.114380 6.136217 -1.239492 0
M  V30 14 C 2.687314 5.803204 0.101696 0
M  V30 15 C 1.450775 4.932096 0.123680 0
M  V30 16 S 0.641492 1.000961 0.459958 0
M  V30 17 C 0.038322 -1.794325 2.081854 0
M  V30 18 C -0.285845 -2.971963 2.691280 0
M  V30 19 O -1.330464 -3.757120 2.222576 0
M  V30 20 C -2.063621 -3.334586 1.106668 0
M  V30 21 C -3.171165 -4.272769 0.694677 0
M  V30 22 C -2.686761 -5.633674 0.336068 0
M  V30 23 C -2.109381 -5.782310 -1.029422 0
M  V30 24 C -2.625383 -4.805860 -2.045132 0
M  V30 25 C -3.983971 -4.283344 -1.694556 0
M  V30 26 C -4.002610 -3.598383 -0.347662 0
M  V30 27 H 0.644604 -5.331201 3.906800 0
M  V30 28 H -0.414895 -4.599626 5.315377 0
M  V30 29 H 2.652683 -0.770444 4.015088 0
M  V30 30 H 3.079386 0.976999 3.054468 0
M  V30 31 H 0.883718 3.366739 -1.190726 0
M  V30 32 H 2.936187 2.921581 -2.153289 0
M  V30 33 H 3.901401 3.648294 -0.829118 0
M  V30 34 H 1.683310 5.133371 -2.325257 0
M  V30 35 H 3.295463 5.031780 -3.059780 0
M  V30 36 H 2.625567 6.993563 -1.569589 0
M  V30 37 H 3.519333 5.314346 0.663465 0
M  V30 38 H 2.414288 6.722775 0.678653 0
M  V30 39 H 1.155152 4.835234 1.191050 0
M  V30 40 H 0.651821 5.485525 -0.426865 0
M  V30 41 H -0.510759 -1.462546 1.233610 0
M  V30 42 H -2.484626 -2.330455 1.316436 0
M  V30 43 H -1.357983 -3.156905 0.254633 0
M  V30 44 H -3.830841 -4.396547 1.598754 0
M  V30 45 H -1.961647 -5.944569 1.113454 0
M  V30 46 H -3.558169 -6.345474 0.436278 0
M  V30 47 H -1.005723 -5.767928 -0.958347 0
M  V30 48 H -2.350930 -6.812680 -1.418205 0
M  V30 49 H -2.712246 -5.295693 -3.045973 0
M  V30 50 H -1.933958 -3.966320 -2.186755 0
M  V30 51 H -4.762126 -5.074378 -1.716458 0
M  V30 52 H -4.271186 -3.541790 -2.479668 0
M  V30 53 H -5.078242 -3.473206 -0.035171 0
M  V30 54 H -3.660468 -2.553667 -0.531599 0
M  V30 END ATOM
M  V30 BEGIN BOND
M  V30 1 1 1 2
M  V30 2 2 2 3
M  V30 3 1 3 4
M  V30 4 2 4 5
M  V30 5 1 5 6
M  V30 6 2 6 7
M  V30 7 1 7 8
M  V30 8 2 8 9
M  V30 9 1 9 10
M  V30 10 1 10 11
M  V30 11 1 11 12
M  V30 12 1 12 13
M  V30 13 1 13 14
M  V30 14 1 14 15
M  V30 15 1 9 16
M  V30 16 1 5 17
M  V30 17 2 17 18
M  V30 18 1 18 19
M  V30 19 1 19 20
M  V30 20 1 20 21
M  V30 21 1 21 22
M  V30 22 1 22 23
M  V30 23 1 23 24
M  V30 24 1 24 25
M  V30 25 1 25 26
M  V30 26 1 18 2
M  V30 27 1 26 21
M  V30 28 1 16 6
M  V30 29 1 15 10
M  V30 30 1 1 27
M  V30 31 1 1 28
M  V30 32 1 4 29
M  V30 33 1 7 30
M  V30 34 1 10 31
M  V30 35 1 11 32
M  V30 36 1 11 33
M  V30 37 1 12 34
M  V30 38 1 12 35
M  V30 39 1 13 36
M  V30 40 1 14 37
M  V30 41 1 14 38
M  V30 42 1 15 39
M  V30 43 1 15 40
M  V30 44 1 17 41
M  V30 45 1 20 42
M  V30 46 1 20 43
M  V30 47 1 21 44
M  V30 48 1 22 45
M  V30 49 1 22 46
M  V30 50 1 23 47
M  V30 51 1 23 48
M  V30 52 1 24 49
M  V30 53 1 24 50
M  V30 54 1 25 51
M  V30 55 1 25 52
M  V30 56 1 26 53
M  V30 57 1 26 54
M  V30 END BOND
M  V30 END CTAB
M  END
>  <Dataset>  (734) 
ChEMBL_Kinases

>  <Ligand_Instance>  (734) 
nan

>  <PDB_ID>  (734) 
nan

>  <Standardized_SMILES>  (734) 
Nc1ncc(-c2cnc(C3CCNCC3)s2)cc1OCC1CCCCC1

>  <Name>  (734) 
nan

>  <Pocket>  (734) 
nan

>  <ATP_Site>  (734) 
nan

>  <Peripheral>  (734) 
nan

>  <Num_H_Atoms_ProtBoundConf>  (734) 
nan

>  <Num_Resolved_Atoms>  (734) 
nan

>  <Num_Not_Resolved_Atoms>  (734) 
nan

$$$$
CHEMBL4280731
     RDKit          3D

  0  0  0  0  0  0  0  0  0  0999 V3000
M  V30 BEGIN CTAB
M  V30 COUNTS 44 47 0 0 0
M  V30 BEGIN ATOM
M  V30 1 H -5.281204 0.270011 1.895230 0 MASS=2
M  V30 2 C -5.149318 -0.725097 1.377801 0
M  V30 3 H -6.163177 -1.182208 1.284195 0 MASS=2
M  V30 4 H -4.537503 -1.336820 2.076735 0 MASS=2
M  V30 5 O -4.464190 -0.619976 0.158125 0
M  V30 6 C -3.118020 -0.764656 -0.042612 0
M  V30 7 C -2.736575 -0.602185 -1.370065 0
M  V30 8 C -1.410588 -0.717620 -1.737013 0
M  V30 9 C -0.477027 -0.996428 -0.761571 0
M  V30 10 C 0.966683 -1.164757 -0.893884 0
M  V30 11 C 1.970895 -0.419492 -0.305916 0
M  V30 12 C 1.705571 0.709994 0.584329 0
M  V30 13 C 1.055361 1.845308 0.186912 0
M  V30 14 C 0.810525 2.915781 1.053892 0
M  V30 15 N 1.253249 2.780790 2.333084 0
M  V30 16 C 1.893628 1.655076 2.712454 0
M  V30 17 N 2.290914 1.684271 4.101711 0
M  V30 18 C 1.174091 1.120948 4.819703 0
M  V30 19 C 1.014380 0.897917 6.285526 0
M  V30 20 O 0.190535 0.767674 4.084237 0
M  V30 21 C 2.156625 0.575983 1.892983 0
M  V30 22 N 3.176864 -0.886436 -0.673757 0
M  V30 23 C 2.991850 -1.944946 -1.508535 0
M  V30 24 C 3.837967 -2.801666 -2.183811 0
M  V30 25 C 3.314576 -3.820771 -2.987579 0
M  V30 26 C 1.942971 -3.950171 -3.090031 0
M  V30 27 N 1.122863 -3.106405 -2.424875 0
M  V30 28 C 1.631009 -2.114344 -1.642523 0
M  V30 29 N -0.891708 -1.145164 0.507630 0
M  V30 30 C -2.161516 -1.041981 0.904828 0
M  V30 31 H -3.380457 -0.379938 -2.229478 0
M  V30 32 H -0.983246 -0.615684 -2.724981 0
M  V30 33 H 0.707428 1.932937 -0.846275 0
M  V30 34 H 0.295051 3.791590 0.699533 0
M  V30 35 H 3.075014 1.958791 4.759830 0
M  V30 36 H 0.455219 -0.060087 6.410824 0
M  V30 37 H 1.964583 0.916458 6.835892 0
M  V30 38 H 0.347599 1.676469 6.724186 0
M  V30 39 H 2.679794 -0.266332 2.324950 0
M  V30 40 H 4.126877 -0.535312 -0.396552 0
M  V30 41 H 4.907253 -2.618280 -2.039079 0
M  V30 42 H 4.045984 -4.447737 -3.482052 0
M  V30 43 H 1.557972 -4.747230 -3.718307 0
M  V30 44 H -2.510914 -1.159094 1.921896 0
M  V30 END ATOM
M  V30 BEGIN BOND
M  V30 1 1 1 2
M  V30 2 1 2 3
M  V30 3 1 2 4
M  V30 4 1 2 5
M  V30 5 1 5 6
M  V30 6 2 6 7
M  V30 7 1 7 8
M  V30 8 2 8 9
M  V30 9 1 9 10
M  V30 10 2 10 11
M  V30 11 1 11 12
M  V30 12 2 12 13
M  V30 13 1 13 14
M  V30 14 2 14 15
M  V30 15 1 15 16
M  V30 16 1 16 17
M  V30 17 1 17 18
M  V30 18 1 18 19
M  V30 19 2 18 20
M  V30 20 2 16 21
M  V30 21 1 11 22
M  V30 22 1 22 23
M  V30 23 2 23 24
M  V30 24 1 24 25
M  V30 25 2 25 26
M  V30 26 1 26 27
M  V30 27 2 27 28
M  V30 28 1 9 29
M  V30 29 2 29 30
M  V30 30 1 30 6
M  V30 31 1 28 10
M  V30 32 1 21 12
M  V30 33 1 28 23
M  V30 34 1 7 31
M  V30 35 1 8 32
M  V30 36 1 13 33
M  V30 37 1 14 34
M  V30 38 1 17 35
M  V30 39 1 19 36
M  V30 40 1 19 37
M  V30 41 1 19 38
M  V30 42 1 21 39
M  V30 43 1 22 40
M  V30 44 1 24 41
M  V30 45 1 25 42
M  V30 46 1 26 43
M  V30 47 1 30 44
M  V30 END BOND
M  V30 END CTAB
M  END
>  <Dataset>  (735) 
ChEMBL_Kinases

>  <Ligand_Instance>  (735) 
nan

>  <PDB_ID>  (735) 
nan

>  <Standardized_SMILES>  (735) 
[2H]C([2H])([2H])Oc1ccc(-c2c(-c3ccnc(NC(C)=O)c3)[nH]c3cccnc23)nc1

>  <Name>  (735) 
nan

>  <Pocket>  (735) 
nan

>  <ATP_Site>  (735) 
nan

>  <Peripheral>  (735) 
nan

>  <Num_H_Atoms_ProtBoundConf>  (735) 
nan

>  <Num_Resolved_Atoms>  (735) 
nan

>  <Num_Not_Resolved_Atoms>  (735) 
nan

$$$$
CHEMBL4761239
     RDKit          3D

  0  0  0  0  0  0  0  0  0  0999 V3000
M  V30 BEGIN CTAB
M  V30 COUNTS 80 85 0 0 0
M  V30 BEGIN ATOM
M  V30 1 C 0.995630 -5.634426 4.666790 0
M  V30 2 C 1.675631 -5.774919 3.322225 0
M  V30 3 N 1.831200 -4.467691 2.665457 0
M  V30 4 C 2.594803 -3.489789 3.351834 0
M  V30 5 O 3.091868 -3.806787 4.485161 0
M  V30 6 C 2.727755 -2.280155 2.722781 0
M  V30 7 S 1.987583 -1.812482 1.038646 0
M  V30 8 C 2.666989 -0.095739 1.036428 0
M  V30 9 C 2.513402 0.936062 0.017446 0
M  V30 10 C 3.103505 2.158272 0.202757 0
M  V30 11 C 2.916562 3.087735 -0.795888 0
M  V30 12 N 2.182592 2.783417 -1.894582 0
M  V30 13 C 1.620740 1.560399 -2.029251 0
M  V30 14 N 0.882555 1.400510 -3.232840 0
M  V30 15 C -0.444060 1.798358 -2.924123 0
M  V30 16 O -0.885037 2.211389 -1.806832 0
M  V30 17 C -1.693640 1.859892 -3.765135 0
M  V30 18 N -2.718478 2.349719 -2.853576 0
M  V30 19 C -3.995682 2.481418 -3.478244 0
M  V30 20 C -4.623384 1.182792 -3.862552 0
M  V30 21 N -4.847040 0.272786 -2.762268 0
M  V30 22 C -4.102226 -0.409252 -1.798115 0
M  V30 23 C -3.684893 -1.659769 -2.242541 0
M  V30 24 C -2.927020 -2.510120 -1.438866 0
M  V30 25 N -2.595179 -2.092636 -0.191738 0
M  V30 26 C -2.976449 -0.898835 0.272453 0
M  V30 27 C -2.664511 -0.432447 1.535259 0
M  V30 28 C -3.101376 0.829638 1.955619 0
M  V30 29 C -3.860887 1.652381 1.119325 0
M  V30 30 C -4.168850 1.184783 -0.136383 0
M  V30 31 C -3.722540 -0.059651 -0.515567 0
M  V30 32 C -2.497123 -3.854172 -1.959650 0
M  V30 33 C -1.887769 -3.632883 -3.315661 0
M  V30 34 C -2.625826 -2.665620 -4.179191 0
M  V30 35 C -3.963074 -2.266369 -3.575575 0
M  V30 36 C 1.760280 0.564579 -1.067756 0
M  V30 37 N 3.407143 0.069399 2.263808 0
M  V30 38 C 3.371646 -1.010972 2.978494 0
M  V30 39 O 3.989243 -1.088105 4.160766 0
M  V30 40 C 4.745019 -0.353356 4.996885 0
M  V30 41 C 6.077744 0.150700 4.575404 0
M  V30 42 C 6.368259 1.053954 3.470761 0
M  V30 43 C 6.369784 1.613178 4.858678 0
M  V30 44 H 0.933815 -4.553132 4.968861 0
M  V30 45 H 1.628774 -6.112243 5.472006 0
M  V30 46 H 0.008903 -6.114733 4.704930 0
M  V30 47 H 1.148292 -6.462377 2.660681 0
M  V30 48 H 2.700314 -6.155672 3.475223 0
M  V30 49 H 1.380545 -4.320377 1.739032 0
M  V30 50 H 3.667266 2.310679 1.104849 0
M  V30 51 H 3.393482 4.046583 -0.626321 0
M  V30 52 H 0.949888 1.112857 -4.213092 0
M  V30 53 H -1.911141 0.882521 -4.202328 0
M  V30 54 H -1.502931 2.645647 -4.523024 0
M  V30 55 H -2.400925 3.288560 -2.525220 0
M  V30 56 H -4.670105 3.044104 -2.796955 0
M  V30 57 H -3.934140 3.143430 -4.397215 0
M  V30 58 H -5.613323 1.379145 -4.360899 0
M  V30 59 H -4.022513 0.699708 -4.688783 0
M  V30 60 H -5.821346 -0.048037 -2.511430 0
M  V30 61 H -2.082763 -1.064741 2.174637 0
M  V30 62 H -2.792484 1.084741 2.971136 0
M  V30 63 H -4.149211 2.607536 1.537298 0
M  V30 64 H -4.753195 1.818721 -0.769010 0
M  V30 65 H -1.725306 -4.278432 -1.308840 0
M  V30 66 H -3.391142 -4.531456 -2.029536 0
M  V30 67 H -1.807684 -4.623034 -3.838378 0
M  V30 68 H -0.828933 -3.300220 -3.160857 0
M  V30 69 H -2.022422 -1.758079 -4.307030 0
M  V30 70 H -2.784827 -3.110812 -5.201618 0
M  V30 71 H -4.536871 -1.607210 -4.228546 0
M  V30 72 H -4.500873 -3.212887 -3.396787 0
M  V30 73 H 1.295446 -0.382437 -1.226054 0
M  V30 74 H 4.936738 -0.992274 5.927696 0
M  V30 75 H 4.172670 0.520188 5.478782 0
M  V30 76 H 6.962945 -0.510756 4.895668 0
M  V30 77 H 7.412719 1.005154 3.030038 0
M  V30 78 H 5.670120 1.445044 2.721041 0
M  V30 79 H 5.538130 2.262357 5.213026 0
M  V30 80 H 7.328613 1.908198 5.330186 0
M  V30 END ATOM
M  V30 BEGIN BOND
M  V30 1 1 1 2
M  V30 2 1 2 3
M  V30 3 1 3 4
M  V30 4 2 4 5
M  V30 5 1 4 6
M  V30 6 1 6 7
M  V30 7 1 7 8
M  V30 8 1 8 9
M  V30 9 2 9 10
M  V30 10 1 10 11
M  V30 11 2 11 12
M  V30 12 1 12 13
M  V30 13 1 13 14
M  V30 14 1 14 15
M  V30 15 2 15 16
M  V30 16 1 15 17
M  V30 17 1 17 18
M  V30 18 1 18 19
M  V30 19 1 19 20
M  V30 20 1 20 21
M  V30 21 1 21 22
M  V30 22 2 22 23
M  V30 23 1 23 24
M  V30 24 2 24 25
M  V30 25 1 25 26
M  V30 26 2 26 27
M  V30 27 1 27 28
M  V30 28 2 28 29
M  V30 29 1 29 30
M  V30 30 2 30 31
M  V30 31 1 24 32
M  V30 32 1 32 33
M  V30 33 1 33 34
M  V30 34 1 34 35
M  V30 35 2 13 36
M  V30 36 2 8 37
M  V30 37 1 37 38
M  V30 38 1 38 39
M  V30 39 1 39 40
M  V30 40 1 40 41
M  V30 41 1 41 42
M  V30 42 1 42 43
M  V30 43 2 38 6
M  V30 44 1 43 41
M  V30 45 1 36 9
M  V30 46 1 31 22
M  V30 47 1 35 23
M  V30 48 1 31 26
M  V30 49 1 1 44
M  V30 50 1 1 45
M  V30 51 1 1 46
M  V30 52 1 2 47
M  V30 53 1 2 48
M  V30 54 1 3 49
M  V30 55 1 10 50
M  V30 56 1 11 51
M  V30 57 1 14 52
M  V30 58 1 17 53
M  V30 59 1 17 54
M  V30 60 1 18 55
M  V30 61 1 19 56
M  V30 62 1 19 57
M  V30 63 1 20 58
M  V30 64 1 20 59
M  V30 65 1 21 60
M  V30 66 1 27 61
M  V30 67 1 28 62
M  V30 68 1 29 63
M  V30 69 1 30 64
M  V30 70 1 32 65
M  V30 71 1 32 66
M  V30 72 1 33 67
M  V30 73 1 33 68
M  V30 74 1 34 69
M  V30 75 1 34 70
M  V30 76 1 35 71
M  V30 77 1 35 72
M  V30 78 1 36 73
M  V30 79 1 40 74
M  V30 80 1 40 75
M  V30 81 1 41 76
M  V30 82 1 42 77
M  V30 83 1 42 78
M  V30 84 1 43 79
M  V30 85 1 43 80
M  V30 END BOND
M  V30 END CTAB
M  END
>  <Dataset>  (736) 
ChEMBL_Kinases

>  <Ligand_Instance>  (736) 
nan

>  <PDB_ID>  (736) 
nan

>  <Standardized_SMILES>  (736) 
CCNC(=O)c1sc(-c2ccnc(NC(=O)CNCCNc3c4c(nc5ccccc35)CCCC4)c2)nc1OCC1CC1

>  <Name>  (736) 
nan

>  <Pocket>  (736) 
nan

>  <ATP_Site>  (736) 
nan

>  <Peripheral>  (736) 
nan

>  <Num_H_Atoms_ProtBoundConf>  (736) 
nan

>  <Num_Resolved_Atoms>  (736) 
nan

>  <Num_Not_Resolved_Atoms>  (736) 
nan

$$$$
CHEMBL4280695
     RDKit          3D

  0  0  0  0  0  0  0  0  0  0999 V3000
M  V30 BEGIN CTAB
M  V30 COUNTS 49 53 0 0 0
M  V30 BEGIN ATOM
M  V30 1 C -0.845490 -5.157219 1.662444 0
M  V30 2 N -0.411739 -5.641781 0.367417 0
M  V30 3 C -1.139438 -5.002853 -0.682607 0
M  V30 4 C -0.260941 -3.991957 -1.408193 0
M  V30 5 N 0.462149 -3.259423 -0.386994 0
M  V30 6 C 0.271000 -1.917969 0.014890 0
M  V30 7 C 1.034804 -1.278035 0.967725 0
M  V30 8 C 0.781839 0.034229 1.308998 0
M  V30 9 C -0.229657 0.776216 0.732069 0
M  V30 10 C -0.380050 2.152411 1.194803 0
M  V30 11 C 0.539163 3.146139 1.074720 0
M  V30 12 C 1.794035 2.829989 0.427738 0
M  V30 13 C 2.030280 2.426408 -0.866168 0
M  V30 14 N 3.363527 2.251494 -1.004008 0
M  V30 15 N 3.971285 2.527218 0.144110 0
M  V30 16 C 3.031078 2.885361 1.041414 0
M  V30 17 C 0.243626 4.402257 1.567817 0
M  V30 18 N -0.942136 4.659589 2.166628 0
M  V30 19 C -1.856138 3.669889 2.285481 0
M  V30 20 N -3.086955 3.668680 2.829337 0
M  V30 21 C -3.639791 2.446869 2.721210 0
M  V30 22 C -2.749517 1.608276 2.085560 0
M  V30 23 C -1.618118 2.378983 1.807859 0
M  V30 24 C -0.990096 0.130146 -0.220693 0
M  V30 25 C -0.738266 -1.183112 -0.563345 0
M  V30 26 C 1.490886 -4.097822 0.249895 0
M  V30 27 C 1.026958 -5.550391 0.215248 0
M  V30 28 H -0.114302 -5.338549 2.466725 0
M  V30 29 H -0.980773 -4.037654 1.632179 0
M  V30 30 H -1.841473 -5.586190 1.876083 0
M  V30 31 H -1.567635 -5.742586 -1.405383 0
M  V30 32 H -1.960473 -4.406752 -0.231508 0
M  V30 33 H 0.491129 -4.550951 -2.036348 0
M  V30 34 H -0.897711 -3.350388 -2.050633 0
M  V30 35 H 1.841138 -1.810525 1.452032 0
M  V30 36 H 1.424071 0.472097 2.066733 0
M  V30 37 H 1.211894 2.302033 -1.571782 0
M  V30 38 H 5.010413 2.479427 0.338341 0
M  V30 39 H 3.230185 3.170640 2.081639 0
M  V30 40 H 1.040442 5.146456 1.430106 0
M  V30 41 H -3.620819 4.431045 3.285209 0
M  V30 42 H -4.598587 2.032329 3.025553 0
M  V30 43 H -2.843959 0.553497 1.822924 0
M  V30 44 H -1.781390 0.745413 -0.656908 0
M  V30 45 H -1.410379 -1.533719 -1.309491 0
M  V30 46 H 2.421851 -4.055124 -0.358366 0
M  V30 47 H 1.606068 -3.820678 1.298571 0
M  V30 48 H 1.485790 -6.056967 1.078708 0
M  V30 49 H 1.295120 -6.063897 -0.722139 0
M  V30 END ATOM
M  V30 BEGIN BOND
M  V30 1 1 1 2
M  V30 2 1 2 3
M  V30 3 1 3 4
M  V30 4 1 4 5
M  V30 5 1 5 6
M  V30 6 2 6 7
M  V30 7 1 7 8
M  V30 8 2 8 9
M  V30 9 1 9 10
M  V30 10 1 10 11
M  V30 11 1 11 12
M  V30 12 1 12 13
M  V30 13 2 13 14
M  V30 14 1 14 15
M  V30 15 1 15 16
M  V30 16 2 11 17
M  V30 17 1 17 18
M  V30 18 2 18 19
M  V30 19 1 19 20
M  V30 20 1 20 21
M  V30 21 2 21 22
M  V30 22 1 22 23
M  V30 23 1 9 24
M  V30 24 2 24 25
M  V30 25 1 5 26
M  V30 26 1 26 27
M  V30 27 1 27 2
M  V30 28 1 25 6
M  V30 29 2 23 10
M  V30 30 2 16 12
M  V30 31 1 23 19
M  V30 32 1 1 28
M  V30 33 1 1 29
M  V30 34 1 1 30
M  V30 35 1 3 31
M  V30 36 1 3 32
M  V30 37 1 4 33
M  V30 38 1 4 34
M  V30 39 1 7 35
M  V30 40 1 8 36
M  V30 41 1 13 37
M  V30 42 1 15 38
M  V30 43 1 16 39
M  V30 44 1 17 40
M  V30 45 1 20 41
M  V30 46 1 21 42
M  V30 47 1 22 43
M  V30 48 1 24 44
M  V30 49 1 25 45
M  V30 50 1 26 46
M  V30 51 1 26 47
M  V30 52 1 27 48
M  V30 53 1 27 49
M  V30 END BOND
M  V30 END CTAB
M  END
>  <Dataset>  (737) 
ChEMBL_Kinases

>  <Ligand_Instance>  (737) 
nan

>  <PDB_ID>  (737) 
nan

>  <Standardized_SMILES>  (737) 
CN1CCN(c2ccc(-c3c(-c4cn[nH]c4)cnc4[nH]ccc34)cc2)CC1

>  <Name>  (737) 
nan

>  <Pocket>  (737) 
nan

>  <ATP_Site>  (737) 
nan

>  <Peripheral>  (737) 
nan

>  <Num_H_Atoms_ProtBoundConf>  (737) 
nan

>  <Num_Resolved_Atoms>  (737) 
nan

>  <Num_Not_Resolved_Atoms>  (737) 
nan

$$$$
CHEMBL4280665
     RDKit          3D

  0  0  0  0  0  0  0  0  0  0999 V3000
M  V30 BEGIN CTAB
M  V30 COUNTS 35 36 0 0 0
M  V30 BEGIN ATOM
M  V30 1 C -1.033116 -1.938119 5.161456 0
M  V30 2 C 0.346894 -2.268460 4.722605 0
M  V30 3 O 1.220193 -2.849141 5.421670 0
M  V30 4 N 0.721599 -1.900163 3.399676 0
M  V30 5 N 1.919974 -2.135654 2.883603 0
M  V30 6 C 1.984170 -1.677988 1.619896 0
M  V30 7 C 3.137681 -1.730181 0.664519 0
M  V30 8 C 0.759706 -1.111683 1.291185 0
M  V30 9 C 0.303165 -0.470558 0.038530 0
M  V30 10 C -0.275484 -1.382935 -0.852404 0
M  V30 11 C -0.724333 -0.826453 -2.054113 0
M  V30 12 C -0.622446 0.512311 -2.373101 0
M  V30 13 C -1.119974 1.039978 -3.669136 0
M  V30 14 C -0.044437 1.357046 -1.456236 0
M  V30 15 C 0.093321 2.810918 -1.743643 0
M  V30 16 C 0.418099 0.873334 -0.254127 0
M  V30 17 C 0.011264 -1.279030 2.439910 0
M  V30 18 N -1.333241 -0.850656 2.587391 0
M  V30 19 H -1.219168 -2.203968 6.212274 0
M  V30 20 H -1.747895 -2.489911 4.485311 0
M  V30 21 H -1.276439 -0.873450 5.046666 0
M  V30 22 H 4.051132 -1.562245 1.299411 0
M  V30 23 H 3.108422 -0.884562 -0.039264 0
M  V30 24 H 3.168520 -2.722871 0.187623 0
M  V30 25 H -0.376687 -2.439365 -0.645956 0
M  V30 26 H -1.186742 -1.467950 -2.801455 0
M  V30 27 H -0.247103 1.395930 -4.263829 0
M  V30 28 H -1.625068 0.239126 -4.240519 0
M  V30 29 H -1.882761 1.836246 -3.533382 0
M  V30 30 H 0.259609 3.361200 -0.793473 0
M  V30 31 H -0.850822 3.234919 -2.167850 0
M  V30 32 H 0.949653 3.035135 -2.410770 0
M  V30 33 H 0.873134 1.477491 0.492251 0
M  V30 34 H -2.325470 -1.141660 2.574244 0
M  V30 35 H -1.541186 0.161913 2.800327 0
M  V30 END ATOM
M  V30 BEGIN BOND
M  V30 1 1 1 2
M  V30 2 2 2 3
M  V30 3 1 2 4
M  V30 4 1 4 5
M  V30 5 2 5 6
M  V30 6 1 6 7
M  V30 7 1 6 8
M  V30 8 1 8 9
M  V30 9 2 9 10
M  V30 10 1 10 11
M  V30 11 2 11 12
M  V30 12 1 12 13
M  V30 13 1 12 14
M  V30 14 1 14 15
M  V30 15 2 14 16
M  V30 16 2 8 17
M  V30 17 1 17 18
M  V30 18 1 17 4
M  V30 19 1 16 9
M  V30 20 1 1 19
M  V30 21 1 1 20
M  V30 22 1 1 21
M  V30 23 1 7 22
M  V30 24 1 7 23
M  V30 25 1 7 24
M  V30 26 1 10 25
M  V30 27 1 11 26
M  V30 28 1 13 27
M  V30 29 1 13 28
M  V30 30 1 13 29
M  V30 31 1 15 30
M  V30 32 1 15 31
M  V30 33 1 15 32
M  V30 34 1 16 33
M  V30 35 1 18 34
M  V30 36 1 18 35
M  V30 END BOND
M  V30 END CTAB
M  END
>  <Dataset>  (738) 
ChEMBL_Kinases

>  <Ligand_Instance>  (738) 
nan

>  <PDB_ID>  (738) 
nan

>  <Standardized_SMILES>  (738) 
CC(=O)n1nc(C)c(-c2ccc(C)c(C)c2)c1N

>  <Name>  (738) 
nan

>  <Pocket>  (738) 
nan

>  <ATP_Site>  (738) 
nan

>  <Peripheral>  (738) 
nan

>  <Num_H_Atoms_ProtBoundConf>  (738) 
nan

>  <Num_Resolved_Atoms>  (738) 
nan

>  <Num_Not_Resolved_Atoms>  (738) 
nan

$$$$
CHEMBL4280660
     RDKit          3D

  0  0  0  0  0  0  0  0  0  0999 V3000
M  V30 BEGIN CTAB
M  V30 COUNTS 40 43 0 0 0
M  V30 BEGIN ATOM
M  V30 1 C 1.987225 -5.142387 2.966599 0
M  V30 2 C 1.356590 -4.326496 1.875698 0
M  V30 3 O 0.421300 -3.525270 2.216797 0
M  V30 4 N 1.666541 -4.322101 0.468361 0
M  V30 5 C 0.758612 -3.355823 -0.102142 0
M  V30 6 C 1.114499 -2.032275 -0.197154 0
M  V30 7 C 0.218558 -1.158318 -0.745669 0
M  V30 8 C 0.477310 0.269865 -0.899266 0
M  V30 9 N 1.038803 1.079943 -1.807537 0
M  V30 10 C 0.977639 2.358582 -1.362530 0
M  V30 11 C 1.441337 3.500216 -1.992531 0
M  V30 12 C 1.235557 4.669675 -1.288260 0
M  V30 13 C 0.622678 4.742259 -0.054628 0
M  V30 14 N 0.202668 3.585611 0.485070 0
M  V30 15 C 0.352819 2.387437 -0.116401 0
M  V30 16 C 0.044232 1.072525 0.162546 0
M  V30 17 C -0.638388 0.760867 1.437646 0
M  V30 18 C -0.015941 -0.036335 2.375948 0
M  V30 19 C -0.648282 -0.339170 3.581808 0
M  V30 20 C -1.904361 0.186650 3.789715 0
M  V30 21 Cl -2.689430 -0.193533 5.296760 0
M  V30 22 C -2.527586 0.992143 2.836088 0
M  V30 23 N -1.868848 1.248764 1.694084 0
M  V30 24 C -0.991671 -1.676063 -1.168784 0
M  V30 25 C -1.361228 -3.005598 -1.078492 0
M  V30 26 N -0.438655 -3.844887 -0.525012 0
M  V30 27 H 2.735864 -4.550506 3.522273 0
M  V30 28 H 2.379737 -6.090177 2.597181 0
M  V30 29 H 1.173509 -5.380071 3.689778 0
M  V30 30 H 2.443183 -4.997459 0.233289 0
M  V30 31 H 2.060846 -1.667090 0.141382 0
M  V30 32 H 1.417201 0.636764 -2.670601 0
M  V30 33 H 1.922842 3.459159 -2.956586 0
M  V30 34 H 1.577163 5.613700 -1.726754 0
M  V30 35 H 0.462134 5.653134 0.493465 0
M  V30 36 H 0.960709 -0.454138 2.232178 0
M  V30 37 H -0.157354 -0.955791 4.296441 0
M  V30 38 H -3.517541 1.379494 3.051818 0
M  V30 39 H -1.763136 -1.033337 -1.620604 0
M  V30 40 H -2.323655 -3.358408 -1.426150 0
M  V30 END ATOM
M  V30 BEGIN BOND
M  V30 1 1 1 2
M  V30 2 2 2 3
M  V30 3 1 2 4
M  V30 4 1 4 5
M  V30 5 2 5 6
M  V30 6 1 6 7
M  V30 7 1 7 8
M  V30 8 1 8 9
M  V30 9 1 9 10
M  V30 10 2 10 11
M  V30 11 1 11 12
M  V30 12 2 12 13
M  V30 13 1 13 14
M  V30 14 2 14 15
M  V30 15 1 15 16
M  V30 16 1 16 17
M  V30 17 2 17 18
M  V30 18 1 18 19
M  V30 19 2 19 20
M  V30 20 1 20 21
M  V30 21 1 20 22
M  V30 22 2 22 23
M  V30 23 2 7 24
M  V30 24 1 24 25
M  V30 25 2 25 26
M  V30 26 1 26 5
M  V30 27 2 16 8
M  V30 28 1 23 17
M  V30 29 1 15 10
M  V30 30 1 1 27
M  V30 31 1 1 28
M  V30 32 1 1 29
M  V30 33 1 4 30
M  V30 34 1 6 31
M  V30 35 1 9 32
M  V30 36 1 11 33
M  V30 37 1 12 34
M  V30 38 1 13 35
M  V30 39 1 18 36
M  V30 40 1 19 37
M  V30 41 1 22 38
M  V30 42 1 24 39
M  V30 43 1 25 40
M  V30 END BOND
M  V30 END CTAB
M  END
>  <Dataset>  (739) 
ChEMBL_Kinases

>  <Ligand_Instance>  (739) 
nan

>  <PDB_ID>  (739) 
nan

>  <Standardized_SMILES>  (739) 
CC(=O)Nc1cc(-c2[nH]c3cccnc3c2-c2ccc(Cl)cn2)ccn1

>  <Name>  (739) 
nan

>  <Pocket>  (739) 
nan

>  <ATP_Site>  (739) 
nan

>  <Peripheral>  (739) 
nan

>  <Num_H_Atoms_ProtBoundConf>  (739) 
nan

>  <Num_Resolved_Atoms>  (739) 
nan

>  <Num_Not_Resolved_Atoms>  (739) 
nan

$$$$
CHEMBL4761242
     RDKit          3D

  0  0  0  0  0  0  0  0  0  0999 V3000
M  V30 BEGIN CTAB
M  V30 COUNTS 93 98 0 0 0
M  V30 BEGIN ATOM
M  V30 1 N -2.061250 -6.721084 0.954944 0
M  V30 2 C -1.896300 -7.104223 -0.400986 0
M  V30 3 C -0.891604 -6.778214 -1.283724 0
M  V30 4 C 0.240957 -5.928544 -0.945727 0
M  V30 5 O 0.257046 -5.467839 0.223008 0
M  V30 6 N 1.284372 -5.631484 -1.889095 0
M  V30 7 C 2.438612 -4.800080 -1.629194 0
M  V30 8 C 2.071680 -3.368056 -1.673253 0
M  V30 9 C 2.168514 -2.683409 -2.880148 0
M  V30 10 C 1.870741 -1.337312 -3.098929 0
M  V30 11 C 1.436165 -0.616857 -2.003447 0
M  V30 12 C 1.157124 0.774091 -2.273455 0
M  V30 13 O 1.421652 1.279455 -3.391098 0
M  V30 14 N 0.578858 1.630375 -1.306692 0
M  V30 15 C 0.155217 2.994541 -1.132969 0 CFG=1
M  V30 16 C -1.354719 3.115676 -1.204473 0
M  V30 17 C -2.083583 2.314108 -0.180920 0
M  V30 18 C -3.600335 2.519494 -0.352692 0
M  V30 19 C -3.937725 2.066529 -1.729310 0
M  V30 20 C -5.191326 1.244752 -1.830286 0
M  V30 21 C -4.951799 0.061505 -0.880265 0
M  V30 22 C -5.151761 0.687629 0.488296 0
M  V30 23 C -4.279598 1.848301 0.776709 0
M  V30 24 C 0.701961 3.621840 0.074091 0
M  V30 25 O 0.218120 4.805786 0.069044 0
M  V30 26 N 1.444541 3.713792 1.246304 0
M  V30 27 C 1.422515 4.966031 1.972360 0
M  V30 28 C 2.742198 5.137110 2.710658 0
M  V30 29 N 3.857686 4.545186 1.996526 0
M  V30 30 C 5.039174 5.187176 1.548342 0
M  V30 31 C 6.009755 4.543937 0.822512 0
M  V30 32 C 7.136112 5.199296 0.409972 0
M  V30 33 C 7.389402 6.533404 0.681403 0
M  V30 34 Br 8.938894 7.467424 0.123060 0
M  V30 35 C 6.423897 7.196997 1.410953 0
M  V30 36 C 5.279112 6.512525 1.824331 0
M  V30 37 C 3.692115 3.147971 1.746452 0
M  V30 38 C 2.258124 2.663757 1.827219 0
M  V30 39 C 1.321121 -1.244219 -0.783869 0
M  V30 40 C 1.632665 -2.577469 -0.638807 0
M  V30 41 C -1.262565 -7.435032 -2.437908 0
M  V30 42 N -2.411322 -8.115811 -2.278488 0
M  V30 43 N -2.800675 -7.909781 -1.019697 0
M  V30 44 C -4.010075 -8.505155 -0.505029 0
M  V30 45 C -3.726965 -9.500838 0.407020 0
M  V30 46 C -4.765769 -10.192236 1.013074 0
M  V30 47 C -6.082690 -9.887711 0.706971 0
M  V30 48 C -6.330150 -8.893047 -0.203247 0
M  V30 49 C -5.318813 -8.188567 -0.821794 0
M  V30 50 H -1.661631 -7.070915 1.875946 0
M  V30 51 H -2.726832 -5.920170 1.009490 0
M  V30 52 H 1.128046 -6.087442 -2.816993 0
M  V30 53 H 3.186861 -5.057578 -2.409261 0
M  V30 54 H 2.887179 -5.041215 -0.640502 0
M  V30 55 H 2.514250 -3.259755 -3.750874 0
M  V30 56 H 1.992890 -0.940810 -4.089321 0
M  V30 57 H 0.354556 1.195139 -0.383148 0
M  V30 58 H 0.508478 3.527664 -2.073724 0
M  V30 59 H -1.586474 4.198394 -1.033749 0
M  V30 60 H -1.691610 2.868984 -2.208438 0
M  V30 61 H -1.854162 2.662017 0.852409 0
M  V30 62 H -1.841780 1.232169 -0.214458 0
M  V30 63 H -3.738415 3.621245 -0.298943 0
M  V30 64 H -3.133154 1.446833 -2.177813 0
M  V30 65 H -4.070286 2.936461 -2.423172 0
M  V30 66 H -5.297390 0.874342 -2.853361 0
M  V30 67 H -6.077107 1.790575 -1.467867 0
M  V30 68 H -5.675850 -0.740903 -1.008012 0
M  V30 69 H -3.893141 -0.240812 -1.000353 0
M  V30 70 H -6.233166 1.013284 0.483943 0
M  V30 71 H -5.048315 -0.133776 1.235689 0
M  V30 72 H -4.907064 2.607894 1.335855 0
M  V30 73 H -3.544901 1.532085 1.564308 0
M  V30 74 H 0.616625 4.869110 2.742951 0
M  V30 75 H 1.172336 5.836349 1.363879 0
M  V30 76 H 2.853873 6.223571 2.885687 0
M  V30 77 H 2.681649 4.696238 3.746975 0
M  V30 78 H 5.924222 3.520786 0.556166 0
M  V30 79 H 7.903153 4.678617 -0.168385 0
M  V30 80 H 6.576812 8.257757 1.652852 0
M  V30 81 H 4.594092 7.130151 2.387859 0
M  V30 82 H 3.984833 2.949985 0.673058 0
M  V30 83 H 4.343011 2.521856 2.401438 0
M  V30 84 H 2.176248 1.721007 1.245673 0
M  V30 85 H 1.922306 2.502328 2.893186 0
M  V30 86 H 0.981083 -0.668423 0.062507 0
M  V30 87 H 1.542115 -3.062066 0.328421 0
M  V30 88 H -0.644238 -7.365536 -3.348255 0
M  V30 89 H -2.731296 -9.823845 0.723390 0
M  V30 90 H -4.644111 -10.987206 1.738810 0
M  V30 91 H -6.908595 -10.422031 1.174303 0
M  V30 92 H -7.322039 -8.585088 -0.504879 0
M  V30 93 H -5.373933 -7.398131 -1.541217 0
M  V30 END ATOM
M  V30 BEGIN BOND
M  V30 1 1 1 2
M  V30 2 2 2 3
M  V30 3 1 3 4
M  V30 4 2 4 5
M  V30 5 1 4 6
M  V30 6 1 6 7
M  V30 7 1 7 8
M  V30 8 2 8 9
M  V30 9 1 9 10
M  V30 10 2 10 11
M  V30 11 1 11 12
M  V30 12 2 12 13
M  V30 13 1 12 14
M  V30 14 1 14 15
M  V30 15 1 15 16
M  V30 16 1 16 17
M  V30 17 1 17 18
M  V30 18 1 18 19
M  V30 19 1 19 20
M  V30 20 1 20 21
M  V30 21 1 21 22
M  V30 22 1 22 23
M  V30 23 1 15 24
M  V30 24 2 24 25
M  V30 25 1 24 26
M  V30 26 1 26 27
M  V30 27 1 27 28
M  V30 28 1 28 29
M  V30 29 1 29 30
M  V30 30 2 30 31
M  V30 31 1 31 32
M  V30 32 2 32 33
M  V30 33 1 33 34
M  V30 34 1 33 35
M  V30 35 2 35 36
M  V30 36 1 29 37
M  V30 37 1 37 38
M  V30 38 1 11 39
M  V30 39 2 39 40
M  V30 40 1 3 41
M  V30 41 2 41 42
M  V30 42 1 42 43
M  V30 43 1 43 44
M  V30 44 2 44 45
M  V30 45 1 45 46
M  V30 46 2 46 47
M  V30 47 1 47 48
M  V30 48 2 48 49
M  V30 49 1 43 2
M  V30 50 1 49 44
M  V30 51 1 40 8
M  V30 52 1 23 18
M  V30 53 1 38 26
M  V30 54 1 36 30
M  V30 55 1 1 50
M  V30 56 1 1 51
M  V30 57 1 6 52
M  V30 58 1 7 53
M  V30 59 1 7 54
M  V30 60 1 9 55
M  V30 61 1 10 56
M  V30 62 1 14 57
M  V30 63 1 15 58 CFG=3
M  V30 64 1 16 59
M  V30 65 1 16 60
M  V30 66 1 17 61
M  V30 67 1 17 62
M  V30 68 1 18 63
M  V30 69 1 19 64
M  V30 70 1 19 65
M  V30 71 1 20 66
M  V30 72 1 20 67
M  V30 73 1 21 68
M  V30 74 1 21 69
M  V30 75 1 22 70
M  V30 76 1 22 71
M  V30 77 1 23 72
M  V30 78 1 23 73
M  V30 79 1 27 74
M  V30 80 1 27 75
M  V30 81 1 28 76
M  V30 82 1 28 77
M  V30 83 1 31 78
M  V30 84 1 32 79
M  V30 85 1 35 80
M  V30 86 1 36 81
M  V30 87 1 37 82
M  V30 88 1 37 83
M  V30 89 1 38 84
M  V30 90 1 38 85
M  V30 91 1 39 86
M  V30 92 1 40 87
M  V30 93 1 41 88
M  V30 94 1 45 89
M  V30 95 1 46 90
M  V30 96 1 47 91
M  V30 97 1 48 92
M  V30 98 1 49 93
M  V30 END BOND
M  V30 END CTAB
M  END
>  <Dataset>  (740) 
ChEMBL_Kinases

>  <Ligand_Instance>  (740) 
nan

>  <PDB_ID>  (740) 
nan

>  <Standardized_SMILES>  (740) 
Nc1c(C(=O)NCc2ccc(C(=O)N[C@@H](CCC3CCCCC3)C(=O)N3CCN(c4ccc(Br)cc4)CC3)cc2)cnn1-c1ccccc1

>  <Name>  (740) 
nan

>  <Pocket>  (740) 
nan

>  <ATP_Site>  (740) 
nan

>  <Peripheral>  (740) 
nan

>  <Num_H_Atoms_ProtBoundConf>  (740) 
nan

>  <Num_Resolved_Atoms>  (740) 
nan

>  <Num_Not_Resolved_Atoms>  (740) 
nan

$$$$
CHEMBL4280599
     RDKit          3D

  0  0  0  0  0  0  0  0  0  0999 V3000
M  V30 BEGIN CTAB
M  V30 COUNTS 59 64 0 0 0
M  V30 BEGIN ATOM
M  V30 1 C 5.249099 1.616714 3.959419 0
M  V30 2 C 4.704723 0.234936 3.725771 0 CFG=2
M  V30 3 C 5.604405 -0.870242 4.209243 0
M  V30 4 N 6.692528 -1.190719 3.347573 0
M  V30 5 C 6.804695 -0.338314 2.197125 0
M  V30 6 C 5.507062 -0.176694 1.452467 0 CFG=2
M  V30 7 C 5.660116 1.036703 0.558574 0
M  V30 8 N 4.372118 0.003650 2.336754 0
M  V30 9 C 3.079590 -0.064127 1.753479 0
M  V30 10 C 3.002125 -0.289959 0.395831 0
M  V30 11 C 1.740652 -0.362358 -0.209448 0
M  V30 12 C 0.560837 -0.217497 0.492304 0
M  V30 13 C -0.744658 -0.297089 -0.160726 0
M  V30 14 C -1.789899 -0.802120 0.622381 0
M  V30 15 N -3.021839 -0.888557 0.040764 0
M  V30 16 C -3.256194 -0.512399 -1.230816 0
M  V30 17 C -4.437688 -0.543061 -1.943656 0
M  V30 18 C -5.757989 -0.993579 -1.511151 0
M  V30 19 C -6.682639 -0.155456 -0.926985 0
M  V30 20 C -7.896489 -0.650943 -0.549462 0
M  V30 21 N -8.278972 -1.950248 -0.709413 0
M  V30 22 C -7.355828 -2.741910 -1.281629 0
M  V30 23 C -7.664800 -4.074681 -1.480161 0
M  V30 24 C -6.744408 -4.919378 -2.064418 0
M  V30 25 C -5.496993 -4.491469 -2.472197 0
M  V30 26 C -5.176728 -3.153859 -2.277042 0
M  V30 27 C -6.105967 -2.331954 -1.694816 0
M  V30 28 C -4.085796 -0.041543 -3.187576 0
M  V30 29 N -2.762305 0.258041 -3.173663 0
M  V30 30 N -2.246352 -0.025363 -1.984650 0
M  V30 31 C -1.003225 0.083614 -1.462198 0
M  V30 32 C 0.646515 0.008352 1.851070 0
M  V30 33 C 1.893793 0.078375 2.440243 0
M  V30 34 H 6.274728 1.662649 4.328449 0
M  V30 35 H 5.072446 2.191069 3.009065 0
M  V30 36 H 4.624795 2.152803 4.716429 0
M  V30 37 H 3.756552 0.119091 4.321186 0
M  V30 38 H 4.965670 -1.785204 4.311207 0
M  V30 39 H 5.985970 -0.658944 5.233397 0
M  V30 40 H 6.728427 -2.198743 3.086927 0
M  V30 41 H 7.532788 -0.854992 1.505993 0
M  V30 42 H 7.278703 0.640669 2.406609 0
M  V30 43 H 5.400468 -1.083269 0.820647 0
M  V30 44 H 6.056943 0.768674 -0.447247 0
M  V30 45 H 6.444354 1.722392 0.988847 0
M  V30 46 H 4.754196 1.656406 0.484842 0
M  V30 47 H 3.822097 -0.422471 -0.283413 0
M  V30 48 H 1.627979 -0.537958 -1.272168 0
M  V30 49 H -1.698812 -1.127625 1.647010 0
M  V30 50 H -6.443460 0.883057 -0.771856 0
M  V30 51 H -8.615834 0.024030 -0.089379 0
M  V30 52 H -8.654299 -4.431890 -1.161164 0
M  V30 53 H -6.995852 -5.947152 -2.212135 0
M  V30 54 H -4.804141 -5.172945 -2.923214 0
M  V30 55 H -4.201870 -2.801976 -2.591514 0
M  V30 56 H -4.727930 0.101108 -4.046497 0
M  V30 57 H -0.185260 0.467690 -2.042265 0
M  V30 58 H -0.256221 0.126529 2.431868 0
M  V30 59 H 1.916942 0.255200 3.494933 0
M  V30 END ATOM
M  V30 BEGIN BOND
M  V30 1 1 1 2
M  V30 2 1 2 3
M  V30 3 1 3 4
M  V30 4 1 4 5
M  V30 5 1 5 6
M  V30 6 1 6 7
M  V30 7 1 6 8
M  V30 8 1 8 9
M  V30 9 2 9 10
M  V30 10 1 10 11
M  V30 11 2 11 12
M  V30 12 1 12 13
M  V30 13 1 13 14
M  V30 14 2 14 15
M  V30 15 1 15 16
M  V30 16 2 16 17
M  V30 17 1 17 18
M  V30 18 2 18 19
M  V30 19 1 19 20
M  V30 20 2 20 21
M  V30 21 1 21 22
M  V30 22 2 22 23
M  V30 23 1 23 24
M  V30 24 2 24 25
M  V30 25 1 25 26
M  V30 26 2 26 27
M  V30 27 1 17 28
M  V30 28 2 28 29
M  V30 29 1 29 30
M  V30 30 1 30 31
M  V30 31 1 12 32
M  V30 32 2 32 33
M  V30 33 1 8 2
M  V30 34 1 33 9
M  V30 35 2 31 13
M  V30 36 1 30 16
M  V30 37 1 27 18
M  V30 38 1 27 22
M  V30 39 1 1 34
M  V30 40 1 1 35
M  V30 41 1 1 36
M  V30 42 1 2 37 CFG=1
M  V30 43 1 3 38
M  V30 44 1 3 39
M  V30 45 1 4 40
M  V30 46 1 5 41
M  V30 47 1 5 42
M  V30 48 1 6 43 CFG=3
M  V30 49 1 7 44
M  V30 50 1 7 45
M  V30 51 1 7 46
M  V30 52 1 10 47
M  V30 53 1 11 48
M  V30 54 1 14 49
M  V30 55 1 19 50
M  V30 56 1 20 51
M  V30 57 1 23 52
M  V30 58 1 24 53
M  V30 59 1 25 54
M  V30 60 1 26 55
M  V30 61 1 28 56
M  V30 62 1 31 57
M  V30 63 1 32 58
M  V30 64 1 33 59
M  V30 END BOND
M  V30 END CTAB
M  END
>  <Dataset>  (741) 
ChEMBL_Kinases

>  <Ligand_Instance>  (741) 
nan

>  <PDB_ID>  (741) 
nan

>  <Standardized_SMILES>  (741) 
C[C@@H]1CNC[C@H](C)N1c1ccc(-c2cnc3c(-c4ccnc5ccccc45)cnn3c2)cc1

>  <Name>  (741) 
nan

>  <Pocket>  (741) 
nan

>  <ATP_Site>  (741) 
nan

>  <Peripheral>  (741) 
nan

>  <Num_H_Atoms_ProtBoundConf>  (741) 
nan

>  <Num_Resolved_Atoms>  (741) 
nan

>  <Num_Not_Resolved_Atoms>  (741) 
nan

$$$$
CHEMBL428042
     RDKit          3D

  0  0  0  0  0  0  0  0  0  0999 V3000
M  V30 BEGIN CTAB
M  V30 COUNTS 59 63 0 0 0
M  V30 BEGIN ATOM
M  V30 1 C 3.888614 -3.266436 2.465610 0
M  V30 2 N 4.399386 -1.999840 1.935773 0
M  V30 3 C 5.800484 -1.899958 1.550010 0
M  V30 4 C 3.564696 -0.865223 1.787641 0
M  V30 5 O 2.972533 -1.856569 2.251119 0
M  V30 6 C 3.939433 0.420334 1.285965 0
M  V30 7 O 5.166300 0.459992 0.964244 0
M  V30 8 C 3.082277 1.571222 1.137393 0
M  V30 9 C 3.552531 2.788511 0.633893 0
M  V30 10 N 2.537323 3.663014 0.612620 0
M  V30 11 C 2.672367 5.045815 0.141097 0
M  V30 12 C 1.390498 3.134980 1.068280 0
M  V30 13 C 0.093083 3.555605 1.261490 0
M  V30 14 C -0.845754 2.683661 1.773452 0
M  V30 15 Cl -2.486836 3.242580 2.009321 0
M  V30 16 C -0.507703 1.385767 2.099066 0
M  V30 17 C -1.486646 0.450075 2.640666 0
M  V30 18 O -1.614336 0.409444 3.904357 0
M  V30 19 N -2.258346 -0.377635 1.747818 0
M  V30 20 C -2.044358 -0.263210 0.315498 0
M  V30 21 C -3.221657 -0.947426 -0.348086 0
M  V30 22 C -3.229092 -2.345328 0.142986 0
M  V30 23 C -3.230894 -2.556460 1.506776 0
M  V30 24 C -3.238369 -3.939813 1.716673 0
M  V30 25 N -3.240793 -4.513715 0.480363 0
M  V30 26 N -3.235232 -3.558289 -0.442531 0
M  V30 27 C -3.235592 -3.803659 -1.845953 0
M  V30 28 C -2.009337 -3.457366 -2.414632 0
M  V30 29 C -1.791579 -3.617349 -3.782754 0
M  V30 30 C -2.841410 -4.127668 -4.519362 0
M  V30 31 C -4.062109 -4.477772 -3.984031 0
M  V30 32 C -4.252656 -4.310154 -2.628773 0
M  V30 33 Cl -5.725801 -4.694313 -1.763244 0
M  V30 34 C -3.224408 -1.298450 2.313539 0
M  V30 35 C 0.794249 1.001507 1.893246 0
M  V30 36 C 1.755651 1.845072 1.384567 0
M  V30 37 H 4.720832 -4.025827 2.465170 0
M  V30 38 H 3.083805 -3.687560 1.850560 0
M  V30 39 H 3.518954 -3.148470 3.503836 0
M  V30 40 H 5.939605 -1.669326 0.477531 0
M  V30 41 H 6.263578 -1.148784 2.220029 0
M  V30 42 H 6.261744 -2.898069 1.784389 0
M  V30 43 H 4.570206 2.962487 0.322752 0
M  V30 44 H 1.749671 5.286996 -0.406339 0
M  V30 45 H 3.505380 5.112583 -0.559962 0
M  V30 46 H 2.749851 5.739282 0.999529 0
M  V30 47 H -0.114071 4.587101 0.987209 0
M  V30 48 H -2.086679 0.808320 0.039541 0
M  V30 49 H -1.106267 -0.751746 -0.024726 0
M  V30 50 H -4.129636 -0.454674 0.108530 0
M  V30 51 H -3.212718 -0.867044 -1.433505 0
M  V30 52 H -3.241046 -4.347470 2.718712 0
M  V30 53 H -1.149257 -3.052599 -1.887280 0
M  V30 54 H -0.842362 -3.354808 -4.254604 0
M  V30 55 H -2.699429 -4.262667 -5.587015 0
M  V30 56 H -4.889200 -4.874807 -4.535651 0
M  V30 57 H -2.855676 -1.573227 3.323320 0
M  V30 58 H -4.229476 -0.864010 2.450113 0
M  V30 59 H 1.034543 -0.011566 2.153310 0
M  V30 END ATOM
M  V30 BEGIN BOND
M  V30 1 1 1 2
M  V30 2 1 2 3
M  V30 3 1 2 4
M  V30 4 2 4 5
M  V30 5 1 4 6
M  V30 6 2 6 7
M  V30 7 1 6 8
M  V30 8 2 8 9
M  V30 9 1 9 10
M  V30 10 1 10 11
M  V30 11 1 10 12
M  V30 12 2 12 13
M  V30 13 1 13 14
M  V30 14 1 14 15
M  V30 15 2 14 16
M  V30 16 1 16 17
M  V30 17 2 17 18
M  V30 18 1 17 19
M  V30 19 1 19 20
M  V30 20 1 20 21
M  V30 21 1 21 22
M  V30 22 2 22 23
M  V30 23 1 23 24
M  V30 24 2 24 25
M  V30 25 1 25 26
M  V30 26 1 26 27
M  V30 27 2 27 28
M  V30 28 1 28 29
M  V30 29 2 29 30
M  V30 30 1 30 31
M  V30 31 2 31 32
M  V30 32 1 32 33
M  V30 33 1 23 34
M  V30 34 1 16 35
M  V30 35 2 35 36
M  V30 36 1 36 8
M  V30 37 1 36 12
M  V30 38 1 34 19
M  V30 39 1 26 22
M  V30 40 1 32 27
M  V30 41 1 1 37
M  V30 42 1 1 38
M  V30 43 1 1 39
M  V30 44 1 3 40
M  V30 45 1 3 41
M  V30 46 1 3 42
M  V30 47 1 9 43
M  V30 48 1 11 44
M  V30 49 1 11 45
M  V30 50 1 11 46
M  V30 51 1 13 47
M  V30 52 1 20 48
M  V30 53 1 20 49
M  V30 54 1 21 50
M  V30 55 1 21 51
M  V30 56 1 24 52
M  V30 57 1 28 53
M  V30 58 1 29 54
M  V30 59 1 30 55
M  V30 60 1 31 56
M  V30 61 1 34 57
M  V30 62 1 34 58
M  V30 63 1 35 59
M  V30 END BOND
M  V30 END CTAB
M  END
>  <Dataset>  (742) 
ChEMBL_Kinases

>  <Ligand_Instance>  (742) 
nan

>  <PDB_ID>  (742) 
nan

>  <Standardized_SMILES>  (742) 
CN(C)C(=O)C(=O)c1cn(C)c2cc(Cl)c(C(=O)N3CCc4c(cnn4-c4ccccc4Cl)C3)cc12

>  <Name>  (742) 
nan

>  <Pocket>  (742) 
nan

>  <ATP_Site>  (742) 
nan

>  <Peripheral>  (742) 
nan

>  <Num_H_Atoms_ProtBoundConf>  (742) 
nan

>  <Num_Resolved_Atoms>  (742) 
nan

>  <Num_Not_Resolved_Atoms>  (742) 
nan

$$$$
CHEMBL4281030
     RDKit          3D

  0  0  0  0  0  0  0  0  0  0999 V3000
M  V30 BEGIN CTAB
M  V30 COUNTS 49 52 0 0 0
M  V30 BEGIN ATOM
M  V30 1 C 3.364936 -6.194548 0.524095 0
M  V30 2 C 2.268897 -5.263008 0.938367 0
M  V30 3 C 2.219263 -4.077003 0.034762 0
M  V30 4 C 3.059039 -3.857077 -1.033210 0
M  V30 5 C 2.937677 -2.719309 -1.819722 0
M  V30 6 C 1.958929 -1.789843 -1.529042 0
M  V30 7 C 1.120049 -2.021100 -0.452996 0
M  V30 8 C 0.052634 -1.111012 -0.050345 0
M  V30 9 N -1.180768 -1.226617 -0.610700 0
M  V30 10 N -1.987284 -0.308002 -0.105955 0
M  V30 11 C -1.324087 0.440456 0.796895 0
M  V30 12 C -0.018169 -0.063229 0.841524 0
M  V30 13 C 1.108506 0.340676 1.616378 0
M  V30 14 C 1.738083 1.574727 1.580099 0
M  V30 15 C 2.818299 1.953880 2.327745 0
M  V30 16 N 3.316454 1.045405 3.177224 0
M  V30 17 C 2.760840 -0.166332 3.266327 0
M  V30 18 C 1.668477 -0.551754 2.511187 0
M  V30 19 C -2.210532 1.469621 1.370139 0
M  V30 20 C -1.573478 2.803495 1.551123 0
M  V30 21 C -3.421664 1.420207 0.512465 0
M  V30 22 C -3.603229 2.593105 -0.411997 0
M  V30 23 C -4.717701 1.330432 1.330985 0
M  V30 24 C -3.370055 0.104836 -0.260031 0
M  V30 25 N 1.286653 -3.148934 0.277568 0
M  V30 26 H 3.117449 -6.737546 -0.416831 0
M  V30 27 H 4.325354 -5.651937 0.440450 0
M  V30 28 H 3.489327 -6.977494 1.303104 0
M  V30 29 H 2.422345 -4.987998 2.000863 0
M  V30 30 H 1.316529 -5.834391 0.899699 0
M  V30 31 H 3.811344 -4.603567 -1.231540 0
M  V30 32 H 3.604833 -2.559748 -2.656055 0
M  V30 33 H 1.813112 -0.890267 -2.098466 0
M  V30 34 H 1.323417 2.311237 0.882109 0
M  V30 35 H 3.233452 2.943945 2.221824 0
M  V30 36 H 3.285329 -0.788751 4.004323 0
M  V30 37 H 1.299739 -1.555536 2.663161 0
M  V30 38 H -2.559346 1.193448 2.410884 0
M  V30 39 H -2.363384 3.454389 2.025501 0
M  V30 40 H -0.819146 2.691322 2.362193 0
M  V30 41 H -1.237402 3.321709 0.660589 0
M  V30 42 H -2.678940 3.051742 -0.774227 0
M  V30 43 H -4.288115 3.347688 0.065846 0
M  V30 44 H -4.143757 2.208910 -1.313638 0
M  V30 45 H -4.642924 0.335217 1.839257 0
M  V30 46 H -4.762570 2.088200 2.121811 0
M  V30 47 H -5.560309 1.310544 0.643491 0
M  V30 48 H -4.035631 -0.665364 0.141183 0
M  V30 49 H -3.629575 0.307724 -1.332815 0
M  V30 END ATOM
M  V30 BEGIN BOND
M  V30 1 1 1 2
M  V30 2 1 2 3
M  V30 3 2 3 4
M  V30 4 1 4 5
M  V30 5 2 5 6
M  V30 6 1 6 7
M  V30 7 1 7 8
M  V30 8 2 8 9
M  V30 9 1 9 10
M  V30 10 1 10 11
M  V30 11 2 11 12
M  V30 12 1 12 13
M  V30 13 2 13 14
M  V30 14 1 14 15
M  V30 15 2 15 16
M  V30 16 1 16 17
M  V30 17 2 17 18
M  V30 18 1 11 19
M  V30 19 1 19 20
M  V30 20 1 19 21
M  V30 21 1 21 22
M  V30 22 1 21 23
M  V30 23 1 21 24
M  V30 24 2 7 25
M  V30 25 1 25 3
M  V30 26 1 12 8
M  V30 27 1 18 13
M  V30 28 1 24 10
M  V30 29 1 1 26
M  V30 30 1 1 27
M  V30 31 1 1 28
M  V30 32 1 2 29
M  V30 33 1 2 30
M  V30 34 1 4 31
M  V30 35 1 5 32
M  V30 36 1 6 33
M  V30 37 1 14 34
M  V30 38 1 15 35
M  V30 39 1 17 36
M  V30 40 1 18 37
M  V30 41 1 19 38
M  V30 42 1 20 39
M  V30 43 1 20 40
M  V30 44 1 20 41
M  V30 45 1 22 42
M  V30 46 1 22 43
M  V30 47 1 22 44
M  V30 48 1 23 45
M  V30 49 1 23 46
M  V30 50 1 23 47
M  V30 51 1 24 48
M  V30 52 1 24 49
M  V30 END BOND
M  V30 END CTAB
M  END
>  <Dataset>  (743) 
ChEMBL_Kinases

>  <Ligand_Instance>  (743) 
nan

>  <PDB_ID>  (743) 
nan

>  <Standardized_SMILES>  (743) 
CCc1cccc(-c2nn3c(c2-c2ccncc2)C(C)C(C)(C)C3)n1

>  <Name>  (743) 
nan

>  <Pocket>  (743) 
nan

>  <ATP_Site>  (743) 
nan

>  <Peripheral>  (743) 
nan

>  <Num_H_Atoms_ProtBoundConf>  (743) 
nan

>  <Num_Resolved_Atoms>  (743) 
nan

>  <Num_Not_Resolved_Atoms>  (743) 
nan

$$$$
CHEMBL4760447
     RDKit          3D

  0  0  0  0  0  0  0  0  0  0999 V3000
M  V30 BEGIN CTAB
M  V30 COUNTS 54 58 0 0 0
M  V30 BEGIN ATOM
M  V30 1 C -0.700173 3.128027 4.882234 0
M  V30 2 O 0.355345 2.755537 4.009070 0
M  V30 3 C 1.582683 2.325582 4.479921 0
M  V30 4 C 2.014173 2.176774 5.781618 0
M  V30 5 C 3.272011 1.735663 6.045604 0
M  V30 6 C 4.156590 1.422966 5.029429 0
M  V30 7 C 3.737152 1.567502 3.704306 0
M  V30 8 F 4.657861 1.242212 2.764185 0
M  V30 9 C 2.439687 2.022490 3.429243 0
M  V30 10 C 2.184438 2.108979 2.003933 0
M  V30 11 C 1.676059 1.086580 1.253405 0
M  V30 12 C 1.427044 1.156196 -0.111514 0
M  V30 13 C 1.730456 2.361546 -0.704189 0
M  V30 14 C 2.245238 3.411905 0.029429 0
M  V30 15 N 2.468504 3.284762 1.366415 0
M  V30 16 C 1.397752 2.178104 -2.044602 0
M  V30 17 N 0.930923 0.931467 -2.195712 0
M  V30 18 N 0.940141 0.291144 -1.030106 0
M  V30 19 C 0.554877 -1.027202 -0.649126 0
M  V30 20 C 1.393903 -1.853328 0.072614 0
M  V30 21 C 1.031390 -3.151132 0.455130 0
M  V30 22 C -0.232311 -3.636649 0.093932 0
M  V30 23 C -1.030831 -2.774227 -0.624922 0
M  V30 24 N -2.328814 -3.184291 -1.033161 0
M  V30 25 C -2.956799 -4.464964 -0.780469 0
M  V30 26 C -3.522595 -4.971500 -2.103848 0
M  V30 27 N -2.955560 -4.241021 -3.189301 0
M  V30 28 C -2.916947 -4.895397 -4.449481 0
M  V30 29 C -3.297522 -2.856529 -3.219166 0
M  V30 30 C -3.224358 -2.326855 -1.788822 0
M  V30 31 N -0.652872 -1.532634 -0.976962 0
M  V30 32 H -1.326145 2.288434 5.204801 0
M  V30 33 H -0.334097 3.638774 5.796582 0
M  V30 34 H -1.386506 3.858708 4.392532 0
M  V30 35 H 1.252899 2.445551 6.507630 0
M  V30 36 H 3.566833 1.634252 7.082728 0
M  V30 37 H 5.157614 1.072004 5.288598 0
M  V30 38 H 1.470793 0.188616 1.798774 0
M  V30 39 H 2.477723 4.356058 -0.460561 0
M  V30 40 H 1.511283 2.937419 -2.805476 0
M  V30 41 H 2.375758 -1.514081 0.369213 0
M  V30 42 H 1.743053 -3.758578 1.028168 0
M  V30 43 H -0.506352 -4.618465 0.383466 0
M  V30 44 H -2.333165 -5.201736 -0.283315 0
M  V30 45 H -3.838286 -4.302779 -0.115663 0
M  V30 46 H -3.311868 -6.050058 -2.260215 0
M  V30 47 H -4.626788 -4.871855 -2.148551 0
M  V30 48 H -2.675743 -5.966096 -4.265234 0
M  V30 49 H -2.020525 -4.493184 -4.996539 0
M  V30 50 H -3.838932 -4.869841 -5.046424 0
M  V30 51 H -4.295984 -2.660935 -3.669818 0
M  V30 52 H -2.520282 -2.284184 -3.791487 0
M  V30 53 H -4.243758 -2.328823 -1.329864 0
M  V30 54 H -2.784012 -1.294362 -1.769733 0
M  V30 END ATOM
M  V30 BEGIN BOND
M  V30 1 1 1 2
M  V30 2 1 2 3
M  V30 3 2 3 4
M  V30 4 1 4 5
M  V30 5 2 5 6
M  V30 6 1 6 7
M  V30 7 1 7 8
M  V30 8 2 7 9
M  V30 9 1 9 10
M  V30 10 2 10 11
M  V30 11 1 11 12
M  V30 12 2 12 13
M  V30 13 1 13 14
M  V30 14 2 14 15
M  V30 15 1 13 16
M  V30 16 2 16 17
M  V30 17 1 17 18
M  V30 18 1 18 19
M  V30 19 2 19 20
M  V30 20 1 20 21
M  V30 21 2 21 22
M  V30 22 1 22 23
M  V30 23 1 23 24
M  V30 24 1 24 25
M  V30 25 1 25 26
M  V30 26 1 26 27
M  V30 27 1 27 28
M  V30 28 1 27 29
M  V30 29 1 29 30
M  V30 30 2 23 31
M  V30 31 1 9 3
M  V30 32 1 15 10
M  V30 33 1 31 19
M  V30 34 1 18 12
M  V30 35 1 30 24
M  V30 36 1 1 32
M  V30 37 1 1 33
M  V30 38 1 1 34
M  V30 39 1 4 35
M  V30 40 1 5 36
M  V30 41 1 6 37
M  V30 42 1 11 38
M  V30 43 1 14 39
M  V30 44 1 16 40
M  V30 45 1 20 41
M  V30 46 1 21 42
M  V30 47 1 22 43
M  V30 48 1 25 44
M  V30 49 1 25 45
M  V30 50 1 26 46
M  V30 51 1 26 47
M  V30 52 1 28 48
M  V30 53 1 28 49
M  V30 54 1 28 50
M  V30 55 1 29 51
M  V30 56 1 29 52
M  V30 57 1 30 53
M  V30 58 1 30 54
M  V30 END BOND
M  V30 END CTAB
M  END
>  <Dataset>  (744) 
ChEMBL_Kinases

>  <Ligand_Instance>  (744) 
nan

>  <PDB_ID>  (744) 
nan

>  <Standardized_SMILES>  (744) 
COc1cccc(F)c1-c1cc2c(cn1)cnn2-c1cccc(N2CCN(C)CC2)n1

>  <Name>  (744) 
nan

>  <Pocket>  (744) 
nan

>  <ATP_Site>  (744) 
nan

>  <Peripheral>  (744) 
nan

>  <Num_H_Atoms_ProtBoundConf>  (744) 
nan

>  <Num_Resolved_Atoms>  (744) 
nan

>  <Num_Not_Resolved_Atoms>  (744) 
nan

$$$$
CHEMBL4282379
     RDKit          3D

  0  0  0  0  0  0  0  0  0  0999 V3000
M  V30 BEGIN CTAB
M  V30 COUNTS 42 45 0 0 0
M  V30 BEGIN ATOM
M  V30 1 O 2.064107 -7.527470 1.176879 0
M  V30 2 C 2.016224 -6.350164 1.587890 0
M  V30 3 N 2.103894 -5.826519 2.829034 0
M  V30 4 C 1.990890 -4.490762 2.727307 0
M  V30 5 C 2.006978 -3.465389 3.646192 0
M  V30 6 C 1.863510 -2.169324 3.213736 0
M  V30 7 C 1.698096 -1.789186 1.888742 0
M  V30 8 C 1.551217 -0.395801 1.470262 0
M  V30 9 N 1.410911 -0.293514 0.181101 0
M  V30 10 N 1.250709 0.912426 -0.501798 0
M  V30 11 C 1.232717 2.043016 0.144435 0
M  V30 12 N 1.059428 3.171298 -0.720860 0
M  V30 13 C 0.298340 3.227497 -1.928459 0
M  V30 14 C -1.169394 3.167366 -1.636677 0
M  V30 15 C -1.572192 1.942649 -0.923275 0
M  V30 16 C -1.690144 1.857189 0.446578 0
M  V30 17 C -2.059900 0.745763 1.173585 0
M  V30 18 C -2.343114 -0.404255 0.467789 0
M  V30 19 C -2.249150 -0.408166 -0.928589 0
M  V30 20 C -1.869309 0.753460 -1.591849 0
M  V30 21 S 1.414451 2.261965 1.930457 0
M  V30 22 C 1.595244 0.588602 2.605392 0
M  V30 23 C 1.691465 -2.881587 1.014612 0
M  V30 24 C 1.830763 -4.196844 1.391005 0
M  V30 25 N 1.847650 -5.348866 0.697331 0
M  V30 26 H 2.235721 -6.394685 3.691744 0
M  V30 27 H 2.134520 -3.724626 4.688429 0
M  V30 28 H 1.881025 -1.394215 3.965763 0
M  V30 29 H 1.562865 4.038800 -0.391052 0
M  V30 30 H 0.500735 4.210039 -2.418655 0
M  V30 31 H 0.571084 2.393848 -2.637319 0
M  V30 32 H -1.379129 4.012615 -0.925241 0
M  V30 33 H -1.786621 3.335549 -2.550830 0
M  V30 34 H -1.462827 2.775960 0.988948 0
M  V30 35 H -2.105231 0.845859 2.264302 0
M  V30 36 H -2.628681 -1.249222 1.082956 0
M  V30 37 H -2.482085 -1.332761 -1.426633 0
M  V30 38 H -1.806077 0.718566 -2.674310 0
M  V30 39 H 2.584003 0.492124 3.098741 0
M  V30 40 H 0.762374 0.425512 3.317651 0
M  V30 41 H 1.566501 -2.665514 -0.044861 0
M  V30 42 H 1.743325 -5.403779 -0.358740 0
M  V30 END ATOM
M  V30 BEGIN BOND
M  V30 1 2 1 2
M  V30 2 1 2 3
M  V30 3 1 3 4
M  V30 4 2 4 5
M  V30 5 1 5 6
M  V30 6 2 6 7
M  V30 7 1 7 8
M  V30 8 2 8 9
M  V30 9 1 9 10
M  V30 10 2 10 11
M  V30 11 1 11 12
M  V30 12 1 12 13
M  V30 13 1 13 14
M  V30 14 1 14 15
M  V30 15 2 15 16
M  V30 16 1 16 17
M  V30 17 2 17 18
M  V30 18 1 18 19
M  V30 19 2 19 20
M  V30 20 1 11 21
M  V30 21 1 21 22
M  V30 22 1 7 23
M  V30 23 2 23 24
M  V30 24 1 24 25
M  V30 25 1 25 2
M  V30 26 1 24 4
M  V30 27 1 22 8
M  V30 28 1 20 15
M  V30 29 1 3 26
M  V30 30 1 5 27
M  V30 31 1 6 28
M  V30 32 1 12 29
M  V30 33 1 13 30
M  V30 34 1 13 31
M  V30 35 1 14 32
M  V30 36 1 14 33
M  V30 37 1 16 34
M  V30 38 1 17 35
M  V30 39 1 18 36
M  V30 40 1 19 37
M  V30 41 1 20 38
M  V30 42 1 22 39
M  V30 43 1 22 40
M  V30 44 1 23 41
M  V30 45 1 25 42
M  V30 END BOND
M  V30 END CTAB
M  END
>  <Dataset>  (745) 
ChEMBL_Kinases

>  <Ligand_Instance>  (745) 
nan

>  <PDB_ID>  (745) 
nan

>  <Standardized_SMILES>  (745) 
O=c1[nH]c2ccc(C3=NN=C(NCCc4ccccc4)SC3)cc2[nH]1

>  <Name>  (745) 
nan

>  <Pocket>  (745) 
nan

>  <ATP_Site>  (745) 
nan

>  <Peripheral>  (745) 
nan

>  <Num_H_Atoms_ProtBoundConf>  (745) 
nan

>  <Num_Resolved_Atoms>  (745) 
nan

>  <Num_Not_Resolved_Atoms>  (745) 
nan

$$$$
CHEMBL4760494
     RDKit          3D

  0  0  0  0  0  0  0  0  0  0999 V3000
M  V30 BEGIN CTAB
M  V30 COUNTS 28 30 0 0 0
M  V30 BEGIN ATOM
M  V30 1 C -0.438012 -3.758027 3.968660 0
M  V30 2 N -0.081380 -2.387444 4.359381 0
M  V30 3 C 0.434498 -1.749608 3.190501 0
M  V30 4 N 1.795245 -1.755156 3.076265 0
M  V30 5 C 2.361109 -1.187497 1.995657 0
M  V30 6 C 1.533790 -0.623069 1.046446 0
M  V30 7 C 2.038442 -0.017328 -0.101141 0
M  V30 8 C 1.296141 0.570462 -1.101656 0
M  V30 9 C 1.976432 1.124860 -2.167145 0
M  V30 10 N 1.192414 1.697359 -3.130177 0
M  V30 11 C -0.148090 1.695653 -3.004734 0
M  V30 12 C -0.851080 1.136922 -1.929038 0
M  V30 13 C -0.071189 0.557551 -0.951962 0
M  V30 14 C -0.620892 -0.029046 0.164815 0
M  V30 15 N -2.005210 -0.061697 0.346678 0
M  V30 16 C 0.155079 -0.609316 1.149328 0
M  V30 17 N -0.366228 -1.196640 2.262472 0
M  V30 18 H 0.390486 -4.234435 3.393506 0
M  V30 19 H -0.679240 -4.343769 4.880782 0
M  V30 20 H -1.331779 -3.713709 3.289247 0
M  V30 21 H -0.192914 -1.972356 5.332466 0
M  V30 22 H 3.427291 -1.150880 1.833332 0
M  V30 23 H 3.112885 -0.023559 -0.185178 0
M  V30 24 H 3.053942 1.095187 -2.207968 0
M  V30 25 H -0.708978 2.160200 -3.793330 0
M  V30 26 H -1.923375 1.137677 -1.837922 0
M  V30 27 H -2.976054 -0.397477 0.258380 0
M  V30 28 H -2.167730 0.782156 0.964942 0
M  V30 END ATOM
M  V30 BEGIN BOND
M  V30 1 1 1 2
M  V30 2 1 2 3
M  V30 3 2 3 4
M  V30 4 1 4 5
M  V30 5 2 5 6
M  V30 6 1 6 7
M  V30 7 2 7 8
M  V30 8 1 8 9
M  V30 9 2 9 10
M  V30 10 1 10 11
M  V30 11 2 11 12
M  V30 12 1 12 13
M  V30 13 2 13 14
M  V30 14 1 14 15
M  V30 15 1 14 16
M  V30 16 2 16 17
M  V30 17 1 17 3
M  V30 18 1 16 6
M  V30 19 1 13 8
M  V30 20 1 1 18
M  V30 21 1 1 19
M  V30 22 1 1 20
M  V30 23 1 2 21
M  V30 24 1 5 22
M  V30 25 1 7 23
M  V30 26 1 9 24
M  V30 27 1 11 25
M  V30 28 1 12 26
M  V30 29 1 15 27
M  V30 30 1 15 28
M  V30 END BOND
M  V30 END CTAB
M  END
>  <Dataset>  (746) 
ChEMBL_Kinases

>  <Ligand_Instance>  (746) 
nan

>  <PDB_ID>  (746) 
nan

>  <Standardized_SMILES>  (746) 
CNc1ncc2cc3cnccc3c(N)c2n1

>  <Name>  (746) 
nan

>  <Pocket>  (746) 
nan

>  <ATP_Site>  (746) 
nan

>  <Peripheral>  (746) 
nan

>  <Num_H_Atoms_ProtBoundConf>  (746) 
nan

>  <Num_Resolved_Atoms>  (746) 
nan

>  <Num_Not_Resolved_Atoms>  (746) 
nan

$$$$
CHEMBL4760558
     RDKit          3D

  0  0  0  0  0  0  0  0  0  0999 V3000
M  V30 BEGIN CTAB
M  V30 COUNTS 55 59 0 0 0
M  V30 BEGIN ATOM
M  V30 1 C 0.355059 0.253361 5.203283 0
M  V30 2 S 0.382053 2.015471 4.886876 0
M  V30 3 O -0.303066 2.680985 6.026030 0
M  V30 4 O -0.425530 2.298380 3.656173 0
M  V30 5 N 2.004140 2.578589 4.728217 0
M  V30 6 C 2.847515 2.089360 3.697981 0
M  V30 7 C 4.148830 1.723739 3.953215 0
M  V30 8 C 4.991107 1.246016 2.972744 0
M  V30 9 C 6.362698 0.861550 3.246386 0
M  V30 10 N 7.456958 0.546128 3.483902 0
M  V30 11 C 4.511026 1.130216 1.687352 0
M  V30 12 C 3.191460 1.501213 1.429919 0
M  V30 13 C 2.812782 1.326450 0.019054 0
M  V30 14 C 3.585044 1.712405 -1.072249 0
M  V30 15 N 2.957157 1.414112 -2.226837 0
M  V30 16 C 1.779693 0.836006 -1.929230 0
M  V30 17 N 0.781882 0.353759 -2.713674 0
M  V30 18 C -0.308463 -0.184352 -2.098443 0
M  V30 19 C -0.444964 -0.261588 -0.717602 0
M  V30 20 C -1.663192 -0.861761 -0.180192 0
M  V30 21 C -2.146308 -0.404808 1.040938 0
M  V30 22 C -3.314559 -1.003251 1.522943 0
M  V30 23 C -3.951665 -2.009203 0.800054 0
M  V30 24 C -3.428135 -2.424219 -0.406920 0
M  V30 25 C -4.147335 -3.481662 -1.109975 0
M  V30 26 O -5.187400 -3.948040 -0.584169 0
M  V30 27 N -3.746344 -4.021552 -2.357233 0
M  V30 28 C -4.416619 -5.056903 -3.085089 0
M  V30 29 C -3.492024 -6.087803 -3.756929 0
M  V30 30 C -4.294400 -5.104351 -4.572102 0
M  V30 31 C -2.279749 -1.862991 -0.919961 0
M  V30 32 C 0.565448 0.226667 0.086458 0
M  V30 33 C 1.667733 0.770753 -0.545346 0
M  V30 34 C 2.345083 1.980181 2.410007 0
M  V30 35 H 1.177093 0.026456 5.938893 0
M  V30 36 H 0.629215 -0.327084 4.298802 0
M  V30 37 H -0.623373 -0.075341 5.563506 0
M  V30 38 H 2.438580 3.278052 5.350664 0
M  V30 39 H 4.585070 1.794125 4.955623 0
M  V30 40 H 5.187206 0.754293 0.936303 0
M  V30 41 H 4.545017 2.181950 -1.077106 0
M  V30 42 H 3.293883 1.586193 -3.199511 0
M  V30 43 H -1.064721 -0.549170 -2.792340 0
M  V30 44 H -1.608794 0.378970 1.556644 0
M  V30 45 H -3.652361 -0.611725 2.481339 0
M  V30 46 H -4.854291 -2.429168 1.234156 0
M  V30 47 H -2.895802 -3.656687 -2.811029 0
M  V30 48 H -5.342582 -5.498150 -2.656687 0
M  V30 49 H -3.800304 -7.149763 -3.725494 0
M  V30 50 H -2.388345 -5.919462 -3.655851 0
M  V30 51 H -3.688839 -4.330241 -5.105605 0
M  V30 52 H -5.131292 -5.468408 -5.192676 0
M  V30 53 H -1.867964 -2.177890 -1.852706 0
M  V30 54 H 0.475215 0.174422 1.161408 0
M  V30 55 H 1.336558 2.244835 2.123334 0
M  V30 END ATOM
M  V30 BEGIN BOND
M  V30 1 1 1 2
M  V30 2 2 2 3
M  V30 3 2 2 4
M  V30 4 1 2 5
M  V30 5 1 5 6
M  V30 6 2 6 7
M  V30 7 1 7 8
M  V30 8 1 8 9
M  V30 9 3 9 10
M  V30 10 2 8 11
M  V30 11 1 11 12
M  V30 12 1 12 13
M  V30 13 2 13 14
M  V30 14 1 14 15
M  V30 15 1 15 16
M  V30 16 2 16 17
M  V30 17 1 17 18
M  V30 18 2 18 19
M  V30 19 1 19 20
M  V30 20 2 20 21
M  V30 21 1 21 22
M  V30 22 2 22 23
M  V30 23 1 23 24
M  V30 24 1 24 25
M  V30 25 2 25 26
M  V30 26 1 25 27
M  V30 27 1 27 28
M  V30 28 1 28 29
M  V30 29 1 29 30
M  V30 30 2 24 31
M  V30 31 1 19 32
M  V30 32 2 32 33
M  V30 33 2 12 34
M  V30 34 1 34 6
M  V30 35 1 33 13
M  V30 36 1 33 16
M  V30 37 1 31 20
M  V30 38 1 30 28
M  V30 39 1 1 35
M  V30 40 1 1 36
M  V30 41 1 1 37
M  V30 42 1 5 38
M  V30 43 1 7 39
M  V30 44 1 11 40
M  V30 45 1 14 41
M  V30 46 1 15 42
M  V30 47 1 18 43
M  V30 48 1 21 44
M  V30 49 1 22 45
M  V30 50 1 23 46
M  V30 51 1 27 47
M  V30 52 1 28 48
M  V30 53 1 29 49
M  V30 54 1 29 50
M  V30 55 1 30 51
M  V30 56 1 30 52
M  V30 57 1 31 53
M  V30 58 1 32 54
M  V30 59 1 34 55
M  V30 END BOND
M  V30 END CTAB
M  END
>  <Dataset>  (747) 
ChEMBL_Kinases

>  <Ligand_Instance>  (747) 
nan

>  <PDB_ID>  (747) 
nan

>  <Standardized_SMILES>  (747) 
CS(=O)(=O)Nc1cc(C#N)cc(-c2c[nH]c3ncc(-c4cccc(C(=O)NC5CC5)c4)cc23)c1

>  <Name>  (747) 
nan

>  <Pocket>  (747) 
nan

>  <ATP_Site>  (747) 
nan

>  <Peripheral>  (747) 
nan

>  <Num_H_Atoms_ProtBoundConf>  (747) 
nan

>  <Num_Resolved_Atoms>  (747) 
nan

>  <Num_Not_Resolved_Atoms>  (747) 
nan

$$$$
CHEMBL4760562
     RDKit          3D

  0  0  0  0  0  0  0  0  0  0999 V3000
M  V30 BEGIN CTAB
M  V30 COUNTS 39 42 0 0 0
M  V30 BEGIN ATOM
M  V30 1 O 1.809492 -1.527307 2.904910 0
M  V30 2 C 1.223135 -2.170440 1.975838 0
M  V30 3 N 1.555096 -1.629592 0.683396 0
M  V30 4 C 2.454253 -0.527873 0.755597 0
M  V30 5 C 3.669897 -0.596234 1.360603 0
M  V30 6 N 4.140242 0.688697 1.172192 0
M  V30 7 N 3.273976 1.463963 0.504042 0
M  V30 8 C 2.165141 0.707117 0.214829 0
M  V30 9 C 1.038632 1.296932 -0.486381 0
M  V30 10 C 0.704265 0.863580 -1.780713 0
M  V30 11 C -0.352230 1.439828 -2.484207 0
M  V30 12 Cl -0.855737 1.028495 -4.096805 0
M  V30 13 C -1.068611 2.445366 -1.893087 0
M  V30 14 C -0.743270 2.875604 -0.620855 0
M  V30 15 C 0.304985 2.330570 0.127733 0
M  V30 16 O 0.742429 2.640645 1.390337 0
M  V30 17 C 0.066153 3.493289 2.239674 0
M  V30 18 F -1.338923 3.426726 2.004932 0
M  V30 19 F 0.413492 4.809943 2.088417 0
M  V30 20 C 0.297350 -3.340605 1.989246 0
M  V30 21 C 0.748708 -4.613487 2.309767 0
M  V30 22 N -0.211690 -5.583175 2.282858 0
M  V30 23 C -1.451899 -5.242221 1.965664 0
M  V30 24 C -1.953367 -4.021106 1.640415 0
M  V30 25 C -3.119242 -3.408801 1.282894 0
M  V30 26 N -2.903138 -2.094784 1.093149 0
M  V30 27 N -1.615002 -1.850689 1.318051 0
M  V30 28 C -0.996227 -2.991851 1.653243 0
M  V30 29 H 1.177174 -2.047699 -0.192104 0
M  V30 30 H 4.228539 -1.342441 1.888032 0
M  V30 31 H 5.043651 1.169238 1.446042 0
M  V30 32 H 1.230181 0.084760 -2.293907 0
M  V30 33 H -1.907035 2.964267 -2.365982 0
M  V30 34 H -1.292450 3.681513 -0.159661 0
M  V30 35 H 0.198871 3.133480 3.315868 0
M  V30 36 H 1.773466 -4.809057 2.554402 0
M  V30 37 H -2.212774 -6.038097 1.949712 0
M  V30 38 H -4.041780 -3.965350 1.192858 0
M  V30 39 H -3.608789 -1.384008 0.815114 0
M  V30 END ATOM
M  V30 BEGIN BOND
M  V30 1 2 1 2
M  V30 2 1 2 3
M  V30 3 1 3 4
M  V30 4 2 4 5
M  V30 5 1 5 6
M  V30 6 1 6 7
M  V30 7 2 7 8
M  V30 8 1 8 9
M  V30 9 2 9 10
M  V30 10 1 10 11
M  V30 11 1 11 12
M  V30 12 2 11 13
M  V30 13 1 13 14
M  V30 14 2 14 15
M  V30 15 1 15 16
M  V30 16 1 16 17
M  V30 17 1 17 18
M  V30 18 1 17 19
M  V30 19 1 2 20
M  V30 20 2 20 21
M  V30 21 1 21 22
M  V30 22 2 22 23
M  V30 23 1 23 24
M  V30 24 2 24 25
M  V30 25 1 25 26
M  V30 26 1 26 27
M  V30 27 2 27 28
M  V30 28 1 8 4
M  V30 29 1 15 9
M  V30 30 1 28 20
M  V30 31 1 28 24
M  V30 32 1 3 29
M  V30 33 1 5 30
M  V30 34 1 6 31
M  V30 35 1 10 32
M  V30 36 1 13 33
M  V30 37 1 14 34
M  V30 38 1 17 35
M  V30 39 1 21 36
M  V30 40 1 23 37
M  V30 41 1 25 38
M  V30 42 1 26 39
M  V30 END BOND
M  V30 END CTAB
M  END
>  <Dataset>  (748) 
ChEMBL_Kinases

>  <Ligand_Instance>  (748) 
nan

>  <PDB_ID>  (748) 
nan

>  <Standardized_SMILES>  (748) 
O=C(Nc1c[nH]nc1-c1cc(Cl)ccc1OC(F)F)c1cncc2c[nH]nc12

>  <Name>  (748) 
nan

>  <Pocket>  (748) 
nan

>  <ATP_Site>  (748) 
nan

>  <Peripheral>  (748) 
nan

>  <Num_H_Atoms_ProtBoundConf>  (748) 
nan

>  <Num_Resolved_Atoms>  (748) 
nan

>  <Num_Not_Resolved_Atoms>  (748) 
nan

$$$$
CHEMBL4282287
     RDKit          3D

  0  0  0  0  0  0  0  0  0  0999 V3000
M  V30 BEGIN CTAB
M  V30 COUNTS 47 50 0 0 0
M  V30 BEGIN ATOM
M  V30 1 C 3.469118 -5.437874 -0.005486 0
M  V30 2 C 3.385286 -3.971319 0.209014 0
M  V30 3 C 4.486488 -3.206224 0.520254 0
M  V30 4 C 4.390058 -1.836236 0.707752 0
M  V30 5 C 3.118456 -1.270767 0.565129 0
M  V30 6 C 1.963108 -2.028319 0.246211 0
M  V30 7 C 0.702404 -1.310308 0.121823 0
M  V30 8 N -0.102369 -1.320830 -0.982536 0
M  V30 9 N -1.179782 -0.573680 -0.779235 0
M  V30 10 C -1.106280 -0.057263 0.460629 0
M  V30 11 C 0.050780 -0.499686 1.036179 0
M  V30 12 C 0.660225 -0.280866 2.340059 0
M  V30 13 C 1.296773 0.853581 2.797490 0
M  V30 14 C 1.780272 0.806651 4.087130 0
M  V30 15 N 1.665811 -0.258567 4.896261 0
M  V30 16 C 1.043382 -1.402250 4.485250 0
M  V30 17 C 0.547767 -1.365317 3.176365 0
M  V30 18 C -2.255166 0.785901 0.777532 0
M  V30 19 C -1.975794 1.929632 1.692957 0
M  V30 20 O -3.195413 2.613981 1.880467 0
M  V30 21 C -2.690380 1.193956 -0.597145 0
M  V30 22 C -1.866220 2.255042 -1.245693 0
M  V30 23 C -4.176286 1.455332 -0.706252 0
M  V30 24 C -2.415630 -0.088262 -1.362022 0
M  V30 25 N 2.291462 -3.292387 0.115714 0
M  V30 26 H 2.401497 -5.807804 -0.046640 0
M  V30 27 H 3.972688 -5.634665 -0.975087 0
M  V30 28 H 3.986455 -5.889619 0.851392 0
M  V30 29 H 5.481605 -3.666772 0.629512 0
M  V30 30 H 5.225845 -1.175454 0.956335 0
M  V30 31 H 3.027108 -0.180857 0.712715 0
M  V30 32 H 1.347502 1.663702 2.085984 0
M  V30 33 H 2.277593 1.717121 4.420824 0
M  V30 34 H 0.953098 -2.251168 5.126908 0
M  V30 35 H 0.058873 -2.314777 2.905535 0
M  V30 36 H -3.104599 0.216872 1.208409 0
M  V30 37 H -1.641224 1.607130 2.683986 0
M  V30 38 H -1.279229 2.686286 1.344709 0
M  V30 39 H -3.890860 1.898324 1.913140 0
M  V30 40 H -0.986535 2.565442 -0.662953 0
M  V30 41 H -1.478326 1.985894 -2.253504 0
M  V30 42 H -2.493686 3.173895 -1.398349 0
M  V30 43 H -4.389226 2.469303 -0.369325 0
M  V30 44 H -4.742159 0.739861 -0.076337 0
M  V30 45 H -4.532682 1.318196 -1.748231 0
M  V30 46 H -3.184073 -0.845705 -1.172289 0
M  V30 47 H -2.307648 0.086604 -2.452987 0
M  V30 END ATOM
M  V30 BEGIN BOND
M  V30 1 1 1 2
M  V30 2 2 2 3
M  V30 3 1 3 4
M  V30 4 2 4 5
M  V30 5 1 5 6
M  V30 6 1 6 7
M  V30 7 2 7 8
M  V30 8 1 8 9
M  V30 9 1 9 10
M  V30 10 2 10 11
M  V30 11 1 11 12
M  V30 12 2 12 13
M  V30 13 1 13 14
M  V30 14 2 14 15
M  V30 15 1 15 16
M  V30 16 2 16 17
M  V30 17 1 10 18
M  V30 18 1 18 19
M  V30 19 1 19 20
M  V30 20 1 18 21
M  V30 21 1 21 22
M  V30 22 1 21 23
M  V30 23 1 21 24
M  V30 24 2 6 25
M  V30 25 1 25 2
M  V30 26 1 11 7
M  V30 27 1 17 12
M  V30 28 1 24 9
M  V30 29 1 1 26
M  V30 30 1 1 27
M  V30 31 1 1 28
M  V30 32 1 3 29
M  V30 33 1 4 30
M  V30 34 1 5 31
M  V30 35 1 13 32
M  V30 36 1 14 33
M  V30 37 1 16 34
M  V30 38 1 17 35
M  V30 39 1 18 36
M  V30 40 1 19 37
M  V30 41 1 19 38
M  V30 42 1 20 39
M  V30 43 1 22 40
M  V30 44 1 22 41
M  V30 45 1 22 42
M  V30 46 1 23 43
M  V30 47 1 23 44
M  V30 48 1 23 45
M  V30 49 1 24 46
M  V30 50 1 24 47
M  V30 END BOND
M  V30 END CTAB
M  END
>  <Dataset>  (749) 
ChEMBL_Kinases

>  <Ligand_Instance>  (749) 
nan

>  <PDB_ID>  (749) 
nan

>  <Standardized_SMILES>  (749) 
Cc1cccc(-c2nn3c(c2-c2ccncc2)C(CO)C(C)(C)C3)n1

>  <Name>  (749) 
nan

>  <Pocket>  (749) 
nan

>  <ATP_Site>  (749) 
nan

>  <Peripheral>  (749) 
nan

>  <Num_H_Atoms_ProtBoundConf>  (749) 
nan

>  <Num_Resolved_Atoms>  (749) 
nan

>  <Num_Not_Resolved_Atoms>  (749) 
nan

$$$$
CHEMBL4760601
     RDKit          3D

  0  0  0  0  0  0  0  0  0  0999 V3000
M  V30 BEGIN CTAB
M  V30 COUNTS 57 59 0 0 0
M  V30 BEGIN ATOM
M  V30 1 C 0.614967 -4.553447 1.791755 0
M  V30 2 C 2.054307 -4.245468 1.841947 0
M  V30 3 O 2.991846 -5.105577 1.922615 0
M  V30 4 N 2.506745 -2.876750 1.800194 0
M  V30 5 C 3.878393 -2.401754 1.839815 0 CFG=2
M  V30 6 C 4.164680 -1.581275 3.070645 0
M  V30 7 C 4.557744 -0.168866 2.774773 0
M  V30 8 C 3.603977 0.402142 1.762009 0
M  V30 9 C 3.798687 -0.314075 0.450885 0 CFG=2
M  V30 10 C 2.540183 -0.234826 -0.354222 0
M  V30 11 O 1.754720 -1.123084 -0.825696 0
M  V30 12 N 2.044123 1.050206 -0.713037 0
M  V30 13 C 0.846896 1.004573 -1.474932 0
M  V30 14 C -0.376475 1.016137 -0.828631 0
M  V30 15 C -1.659705 0.977321 -1.397148 0
M  V30 16 C -2.816095 1.029117 -0.523953 0
M  V30 17 C -2.813244 2.049285 0.407934 0
M  V30 18 N -3.943694 1.946571 1.119713 0
M  V30 19 C -4.643987 0.886247 0.648865 0
M  V30 20 C -5.953706 0.565629 1.271027 0
M  V30 21 N -3.924324 0.333094 -0.368287 0
M  V30 22 C -4.344924 -0.816291 -1.080510 0
M  V30 23 C -3.336207 -1.529805 -1.899807 0
M  V30 24 C -4.841620 -1.830328 -0.032864 0
M  V30 25 C -1.595481 0.921786 -2.786245 0
M  V30 26 C -0.403057 0.907952 -3.474058 0
M  V30 27 N 0.763218 0.948975 -2.811050 0
M  V30 28 C 4.303714 -1.709529 0.571790 0
M  V30 29 H 0.178563 -4.495234 2.809313 0
M  V30 30 H 0.496149 -5.609027 1.460296 0
M  V30 31 H 0.069830 -3.860991 1.128805 0
M  V30 32 H 1.766378 -2.130416 1.733448 0
M  V30 33 H 4.517992 -3.321539 1.909920 0
M  V30 34 H 4.933511 -2.065774 3.737691 0
M  V30 35 H 3.255074 -1.537065 3.709011 0
M  V30 36 H 5.607957 -0.154243 2.416677 0
M  V30 37 H 4.467053 0.407622 3.712683 0
M  V30 38 H 3.732343 1.489528 1.584601 0
M  V30 39 H 2.575241 0.230508 2.139372 0
M  V30 40 H 4.559037 0.261023 -0.128809 0
M  V30 41 H 2.505728 1.964718 -0.448945 0
M  V30 42 H -0.340118 1.061538 0.271881 0
M  V30 43 H -2.118818 2.850677 0.646589 0
M  V30 44 H -6.512506 1.547031 1.354545 0
M  V30 45 H -5.792081 0.162022 2.309902 0
M  V30 46 H -6.592072 -0.093693 0.677650 0
M  V30 47 H -5.200278 -0.542967 -1.752666 0
M  V30 48 H -3.595850 -2.638865 -1.862423 0
M  V30 49 H -2.328805 -1.496148 -1.452155 0
M  V30 50 H -3.369700 -1.318023 -2.990486 0
M  V30 51 H -4.671373 -1.488769 0.995984 0
M  V30 52 H -5.864878 -2.125995 -0.289237 0
M  V30 53 H -4.250742 -2.794515 -0.102266 0
M  V30 54 H -2.580070 0.899249 -3.263596 0
M  V30 55 H -0.451727 0.863416 -4.550125 0
M  V30 56 H 3.886731 -2.327188 -0.265372 0
M  V30 57 H 5.407767 -1.798594 0.495275 0
M  V30 END ATOM
M  V30 BEGIN BOND
M  V30 1 1 1 2
M  V30 2 2 2 3
M  V30 3 1 2 4
M  V30 4 1 4 5
M  V30 5 1 5 6
M  V30 6 1 6 7
M  V30 7 1 7 8
M  V30 8 1 8 9
M  V30 9 1 9 10
M  V30 10 2 10 11
M  V30 11 1 10 12
M  V30 12 1 12 13
M  V30 13 2 13 14
M  V30 14 1 14 15
M  V30 15 1 15 16
M  V30 16 2 16 17
M  V30 17 1 17 18
M  V30 18 2 18 19
M  V30 19 1 19 20
M  V30 20 1 19 21
M  V30 21 1 21 22
M  V30 22 1 22 23
M  V30 23 1 22 24
M  V30 24 2 15 25
M  V30 25 1 25 26
M  V30 26 2 26 27
M  V30 27 1 9 28
M  V30 28 1 28 5
M  V30 29 1 27 13
M  V30 30 1 21 16
M  V30 31 1 1 29
M  V30 32 1 1 30
M  V30 33 1 1 31
M  V30 34 1 4 32
M  V30 35 1 5 33 CFG=1
M  V30 36 1 6 34
M  V30 37 1 6 35
M  V30 38 1 7 36
M  V30 39 1 7 37
M  V30 40 1 8 38
M  V30 41 1 8 39
M  V30 42 1 9 40 CFG=3
M  V30 43 1 12 41
M  V30 44 1 14 42
M  V30 45 1 17 43
M  V30 46 1 20 44
M  V30 47 1 20 45
M  V30 48 1 20 46
M  V30 49 1 22 47
M  V30 50 1 23 48
M  V30 51 1 23 49
M  V30 52 1 23 50
M  V30 53 1 24 51
M  V30 54 1 24 52
M  V30 55 1 24 53
M  V30 56 1 25 54
M  V30 57 1 26 55
M  V30 58 1 28 56
M  V30 59 1 28 57
M  V30 END BOND
M  V30 END CTAB
M  END
>  <Dataset>  (750) 
ChEMBL_Kinases

>  <Ligand_Instance>  (750) 
nan

>  <PDB_ID>  (750) 
nan

>  <Standardized_SMILES>  (750) 
CC(=O)N[C@@H]1CCC[C@H](C(=O)Nc2cc(-c3cnc(C)n3C(C)C)ccn2)C1

>  <Name>  (750) 
nan

>  <Pocket>  (750) 
nan

>  <ATP_Site>  (750) 
nan

>  <Peripheral>  (750) 
nan

>  <Num_H_Atoms_ProtBoundConf>  (750) 
nan

>  <Num_Resolved_Atoms>  (750) 
nan

>  <Num_Not_Resolved_Atoms>  (750) 
nan

$$$$
CHEMBL4760714
     RDKit          3D

  0  0  0  0  0  0  0  0  0  0999 V3000
M  V30 BEGIN CTAB
M  V30 COUNTS 43 45 0 0 0
M  V30 BEGIN ATOM
M  V30 1 C -1.172314 -5.640185 -1.340560 0
M  V30 2 C 0.052205 -4.988495 -0.700358 0
M  V30 3 C 0.664553 -6.058053 0.185707 0
M  V30 4 C -0.384884 -3.789562 0.077090 0
M  V30 5 N 0.752107 -3.110011 0.723849 0
M  V30 6 C 0.434830 -1.928975 1.506712 0
M  V30 7 O -0.810409 -1.893200 1.346592 0
M  V30 8 C 1.696009 -1.399257 2.066721 0
M  V30 9 C 1.560361 -0.181978 2.916278 0
M  V30 10 N 1.001606 0.970290 2.269950 0
M  V30 11 C 1.953830 1.727577 1.649687 0
M  V30 12 O 3.186663 1.457534 1.625101 0
M  V30 13 C 1.605457 2.889768 0.980646 0
M  V30 14 C 2.553944 3.679883 0.340184 0
M  V30 15 C 2.141432 4.825029 -0.308395 0
M  V30 16 C 0.819419 5.234371 -0.356436 0
M  V30 17 C -0.121391 4.446092 0.281686 0
M  V30 18 C 0.296291 3.315939 0.920131 0
M  V30 19 N -0.598673 2.541800 1.542363 0
M  V30 20 C -1.909526 2.634437 1.697170 0
M  V30 21 S -3.005867 3.723063 1.195097 0
M  V30 22 N -2.381887 1.603685 2.417740 0
M  V30 23 N -1.330283 0.832494 2.728705 0
M  V30 24 C -0.258808 1.416999 2.189392 0
M  V30 25 H -1.607773 -6.355274 -0.608624 0
M  V30 26 H -1.927098 -4.871851 -1.522829 0
M  V30 27 H -0.906590 -6.153729 -2.286869 0
M  V30 28 H 0.799882 -4.708830 -1.456847 0
M  V30 29 H 0.831361 -6.950465 -0.451827 0
M  V30 30 H 1.634789 -5.728537 0.636285 0
M  V30 31 H -0.053491 -6.349195 1.000300 0
M  V30 32 H -0.826995 -3.068180 -0.631844 0
M  V30 33 H -1.093068 -4.084307 0.882415 0
M  V30 34 H 1.704207 -3.564451 0.546100 0
M  V30 35 H 2.465148 -1.278807 1.261454 0
M  V30 36 H 2.116403 -2.217918 2.710492 0
M  V30 37 H 2.538647 0.057809 3.424833 0
M  V30 38 H 0.909171 -0.486968 3.791523 0
M  V30 39 H 3.597256 3.371640 0.368889 0
M  V30 40 H 2.901810 5.415070 -0.794820 0
M  V30 41 H 0.604796 6.150290 -0.893239 0
M  V30 42 H -1.116592 4.825930 0.200771 0
M  V30 43 H -3.341561 1.309143 2.757575 0
M  V30 END ATOM
M  V30 BEGIN BOND
M  V30 1 1 1 2
M  V30 2 1 2 3
M  V30 3 1 2 4
M  V30 4 1 4 5
M  V30 5 1 5 6
M  V30 6 2 6 7
M  V30 7 1 6 8
M  V30 8 1 8 9
M  V30 9 1 9 10
M  V30 10 1 10 11
M  V30 11 2 11 12
M  V30 12 1 11 13
M  V30 13 2 13 14
M  V30 14 1 14 15
M  V30 15 2 15 16
M  V30 16 1 16 17
M  V30 17 2 17 18
M  V30 18 1 18 19
M  V30 19 1 19 20
M  V30 20 2 20 21
M  V30 21 1 20 22
M  V30 22 1 22 23
M  V30 23 2 23 24
M  V30 24 1 24 10
M  V30 25 1 18 13
M  V30 26 1 24 19
M  V30 27 1 1 25
M  V30 28 1 1 26
M  V30 29 1 1 27
M  V30 30 1 2 28
M  V30 31 1 3 29
M  V30 32 1 3 30
M  V30 33 1 3 31
M  V30 34 1 4 32
M  V30 35 1 4 33
M  V30 36 1 5 34
M  V30 37 1 8 35
M  V30 38 1 8 36
M  V30 39 1 9 37
M  V30 40 1 9 38
M  V30 41 1 14 39
M  V30 42 1 15 40
M  V30 43 1 16 41
M  V30 44 1 17 42
M  V30 45 1 22 43
M  V30 END BOND
M  V30 END CTAB
M  END
>  <Dataset>  (751) 
ChEMBL_Kinases

>  <Ligand_Instance>  (751) 
nan

>  <PDB_ID>  (751) 
nan

>  <Standardized_SMILES>  (751) 
CC(C)CNC(=O)CCn1c(=O)c2ccccc2n2c(=S)[nH]nc12

>  <Name>  (751) 
nan

>  <Pocket>  (751) 
nan

>  <ATP_Site>  (751) 
nan

>  <Peripheral>  (751) 
nan

>  <Num_H_Atoms_ProtBoundConf>  (751) 
nan

>  <Num_Resolved_Atoms>  (751) 
nan

>  <Num_Not_Resolved_Atoms>  (751) 
nan

$$$$
CHEMBL4282261
     RDKit          3D

  0  0  0  0  0  0  0  0  0  0999 V3000
M  V30 BEGIN CTAB
M  V30 COUNTS 29 31 0 0 0
M  V30 BEGIN ATOM
M  V30 1 N -0.495108 -4.837267 3.146826 0
M  V30 2 C 0.162851 -3.591109 3.417990 0
M  V30 3 C 0.604389 -3.350964 4.722584 0
M  V30 4 N 1.219648 -2.171136 4.946657 0
M  V30 5 C 1.419421 -1.243068 3.991996 0
M  V30 6 C 0.984499 -1.478263 2.704845 0
M  V30 7 C 1.212684 -0.452513 1.681308 0
M  V30 8 C 2.340429 0.360753 1.754689 0
M  V30 9 S 2.133938 1.463330 0.234779 0
M  V30 10 C 0.662150 0.739356 -0.267507 0
M  V30 11 C -0.061974 1.175014 -1.466337 0
M  V30 12 C 0.480664 2.208352 -2.201315 0
M  V30 13 C -0.229387 2.607425 -3.342636 0
M  V30 14 C -1.412379 1.961664 -3.670310 0
M  V30 15 N -1.903249 0.954512 -2.918640 0
M  V30 16 C -1.246348 0.535091 -1.802524 0
M  V30 17 C 0.392818 -0.212904 0.627401 0
M  V30 18 C 0.347722 -2.667146 2.411840 0
M  V30 19 H -0.228613 -5.836078 2.999913 0
M  V30 20 H -1.505594 -4.517804 3.111940 0
M  V30 21 H 0.442977 -4.099245 5.491748 0
M  V30 22 H 1.932235 -0.330616 4.310119 0
M  V30 23 H 3.148889 0.294269 2.588643 0
M  V30 24 H 1.396442 2.715832 -1.956636 0
M  V30 25 H 0.126298 3.403051 -3.966709 0
M  V30 26 H -2.023337 2.216605 -4.545005 0
M  V30 27 H -1.661968 -0.264272 -1.230539 0
M  V30 28 H -0.529436 -0.793889 0.466080 0
M  V30 29 H 0.012235 -2.841381 1.407493 0
M  V30 END ATOM
M  V30 BEGIN BOND
M  V30 1 1 1 2
M  V30 2 2 2 3
M  V30 3 1 3 4
M  V30 4 2 4 5
M  V30 5 1 5 6
M  V30 6 1 6 7
M  V30 7 2 7 8
M  V30 8 1 8 9
M  V30 9 1 9 10
M  V30 10 1 10 11
M  V30 11 2 11 12
M  V30 12 1 12 13
M  V30 13 2 13 14
M  V30 14 1 14 15
M  V30 15 2 15 16
M  V30 16 2 10 17
M  V30 17 2 6 18
M  V30 18 1 18 2
M  V30 19 1 17 7
M  V30 20 1 16 11
M  V30 21 1 1 19
M  V30 22 1 1 20
M  V30 23 1 3 21
M  V30 24 1 5 22
M  V30 25 1 8 23
M  V30 26 1 12 24
M  V30 27 1 13 25
M  V30 28 1 14 26
M  V30 29 1 16 27
M  V30 30 1 17 28
M  V30 31 1 18 29
M  V30 END BOND
M  V30 END CTAB
M  END
>  <Dataset>  (752) 
ChEMBL_Kinases

>  <Ligand_Instance>  (752) 
nan

>  <PDB_ID>  (752) 
nan

>  <Standardized_SMILES>  (752) 
Nc1cncc(-c2csc(-c3cccnc3)c2)c1

>  <Name>  (752) 
nan

>  <Pocket>  (752) 
nan

>  <ATP_Site>  (752) 
nan

>  <Peripheral>  (752) 
nan

>  <Num_H_Atoms_ProtBoundConf>  (752) 
nan

>  <Num_Resolved_Atoms>  (752) 
nan

>  <Num_Not_Resolved_Atoms>  (752) 
nan

$$$$
CHEMBL4282154
     RDKit          3D

  0  0  0  0  0  0  0  0  0  0999 V3000
M  V30 BEGIN CTAB
M  V30 COUNTS 69 74 0 0 0
M  V30 BEGIN ATOM
M  V30 1 C 2.962088 -2.444433 4.207372 0
M  V30 2 O 2.309252 -2.640577 2.993419 0
M  V30 3 C 2.131366 -1.641926 2.010780 0
M  V30 4 N 2.525022 -0.402442 2.046000 0
M  V30 5 C 2.430305 0.448015 1.325831 0
M  V30 6 C 2.691860 1.885878 0.972047 0
M  V30 7 C 2.304786 2.513375 -0.162694 0
M  V30 8 C 2.619441 3.842099 -0.362740 0
M  V30 9 N 3.312691 4.479916 0.595129 0
M  V30 10 C 3.698210 3.838780 1.735189 0
M  V30 11 N 4.414395 4.717377 2.591499 0
M  V30 12 C 5.800436 5.066372 2.726666 0
M  V30 13 O 6.690572 4.561935 1.995328 0
M  V30 14 C 6.078963 6.062247 3.790506 0
M  V30 15 C 5.036690 6.947119 4.310573 0
M  V30 16 C 5.408551 5.732321 5.126999 0
M  V30 17 C 3.401253 2.533066 1.955182 0
M  V30 18 S 1.483328 -0.491619 -0.024843 0
M  V30 19 C 1.466986 -1.992850 0.871319 0
M  V30 20 C 0.854937 -3.318934 0.435856 0
M  V30 21 O 0.868339 -4.381385 1.122174 0
M  V30 22 N 0.235654 -3.311931 -0.842810 0
M  V30 23 C -0.387432 -4.499266 -1.389575 0
M  V30 24 C -0.937306 -4.147039 -2.743742 0
M  V30 25 N -1.953693 -3.123377 -2.749238 0
M  V30 26 C -3.242461 -3.145982 -2.170537 0
M  V30 27 C -3.675449 -2.740544 -0.938717 0
M  V30 28 C -4.976234 -2.870837 -0.516475 0
M  V30 29 N -5.894500 -3.417699 -1.331274 0
M  V30 30 C -5.534729 -3.841509 -2.570933 0
M  V30 31 C -6.527091 -4.391334 -3.354025 0
M  V30 32 C -6.201324 -4.832069 -4.618090 0
M  V30 33 Cl -7.468048 -5.536509 -5.621770 0
M  V30 34 C -4.899869 -4.726600 -5.098381 0
M  V30 35 C -3.980132 -4.170508 -4.258603 0
M  V30 36 C -4.208076 -3.702278 -2.982186 0
M  V30 37 C -5.421244 -2.448339 0.816424 0
M  V30 38 C -4.595801 -1.364533 1.449745 0
M  V30 39 C -3.450886 -0.921564 0.601584 0
M  V30 40 C -2.693109 -2.098076 -0.035253 0
M  V30 41 H 3.145882 -3.459046 4.631487 0
M  V30 42 H 2.297400 -1.940958 4.935595 0
M  V30 43 H 3.946899 -1.954757 4.128841 0
M  V30 44 H 1.755564 1.952387 -0.885878 0
M  V30 45 H 2.272064 4.261317 -1.295524 0
M  V30 46 H 3.668157 5.110391 3.173286 0
M  V30 47 H 7.134954 6.331797 3.874396 0
M  V30 48 H 5.395414 7.922675 4.746127 0
M  V30 49 H 4.007223 6.960942 3.957338 0
M  V30 50 H 4.702636 4.886674 5.170091 0
M  V30 51 H 6.024763 5.838057 6.043790 0
M  V30 52 H 3.734766 2.081441 2.876910 0
M  V30 53 H 0.239800 -2.404724 -1.397225 0
M  V30 54 H 0.338480 -5.322430 -1.544760 0
M  V30 55 H -1.262835 -4.825535 -0.778232 0
M  V30 56 H -1.245284 -5.047584 -3.320178 0
M  V30 57 H -0.058832 -3.726774 -3.321281 0
M  V30 58 H -1.930048 -2.157104 -3.188814 0
M  V30 59 H -7.533075 -4.467485 -2.971955 0
M  V30 60 H -4.651988 -5.073475 -6.087895 0
M  V30 61 H -2.977921 -4.103431 -4.670100 0
M  V30 62 H -5.275187 -3.354657 1.482516 0
M  V30 63 H -6.513598 -2.208585 0.798777 0
M  V30 64 H -4.255867 -1.625405 2.482664 0
M  V30 65 H -5.291006 -0.479999 1.561801 0
M  V30 66 H -3.817000 -0.285565 -0.226993 0
M  V30 67 H -2.714489 -0.342500 1.180275 0
M  V30 68 H -1.913007 -1.613313 -0.672444 0
M  V30 69 H -2.292767 -2.782472 0.713978 0
M  V30 END ATOM
M  V30 BEGIN BOND
M  V30 1 1 1 2
M  V30 2 1 2 3
M  V30 3 1 3 4
M  V30 4 2 4 5
M  V30 5 1 5 6
M  V30 6 2 6 7
M  V30 7 1 7 8
M  V30 8 2 8 9
M  V30 9 1 9 10
M  V30 10 1 10 11
M  V30 11 1 11 12
M  V30 12 2 12 13
M  V30 13 1 12 14
M  V30 14 1 14 15
M  V30 15 1 15 16
M  V30 16 2 10 17
M  V30 17 1 5 18
M  V30 18 1 18 19
M  V30 19 1 19 20
M  V30 20 2 20 21
M  V30 21 1 20 22
M  V30 22 1 22 23
M  V30 23 1 23 24
M  V30 24 1 24 25
M  V30 25 1 25 26
M  V30 26 2 26 27
M  V30 27 1 27 28
M  V30 28 2 28 29
M  V30 29 1 29 30
M  V30 30 2 30 31
M  V30 31 1 31 32
M  V30 32 1 32 33
M  V30 33 2 32 34
M  V30 34 1 34 35
M  V30 35 2 35 36
M  V30 36 1 28 37
M  V30 37 1 37 38
M  V30 38 1 38 39
M  V30 39 1 39 40
M  V30 40 2 19 3
M  V30 41 1 36 26
M  V30 42 1 17 6
M  V30 43 1 40 27
M  V30 44 1 16 14
M  V30 45 1 36 30
M  V30 46 1 1 41
M  V30 47 1 1 42
M  V30 48 1 1 43
M  V30 49 1 7 44
M  V30 50 1 8 45
M  V30 51 1 11 46
M  V30 52 1 14 47
M  V30 53 1 15 48
M  V30 54 1 15 49
M  V30 55 1 16 50
M  V30 56 1 16 51
M  V30 57 1 17 52
M  V30 58 1 22 53
M  V30 59 1 23 54
M  V30 60 1 23 55
M  V30 61 1 24 56
M  V30 62 1 24 57
M  V30 63 1 25 58
M  V30 64 1 31 59
M  V30 65 1 34 60
M  V30 66 1 35 61
M  V30 67 1 37 62
M  V30 68 1 37 63
M  V30 69 1 38 64
M  V30 70 1 38 65
M  V30 71 1 39 66
M  V30 72 1 39 67
M  V30 73 1 40 68
M  V30 74 1 40 69
M  V30 END BOND
M  V30 END CTAB
M  END
>  <Dataset>  (753) 
ChEMBL_Kinases

>  <Ligand_Instance>  (753) 
nan

>  <PDB_ID>  (753) 
nan

>  <Standardized_SMILES>  (753) 
COc1nc(-c2ccnc(NC(=O)C3CC3)c2)sc1C(=O)NCCNc1c2c(nc3cc(Cl)ccc13)CCCC2

>  <Name>  (753) 
nan

>  <Pocket>  (753) 
nan

>  <ATP_Site>  (753) 
nan

>  <Peripheral>  (753) 
nan

>  <Num_H_Atoms_ProtBoundConf>  (753) 
nan

>  <Num_Resolved_Atoms>  (753) 
nan

>  <Num_Not_Resolved_Atoms>  (753) 
nan

$$$$
CHEMBL4760738
     RDKit          3D

  0  0  0  0  0  0  0  0  0  0999 V3000
M  V30 BEGIN CTAB
M  V30 COUNTS 56 59 0 0 0
M  V30 BEGIN ATOM
M  V30 1 C -7.210035 1.897176 2.919106 0
M  V30 2 C -7.439607 0.598522 2.742454 0
M  V30 3 C -6.414244 -0.324543 3.230400 0
M  V30 4 O -5.474835 0.334979 3.744634 0
M  V30 5 N -6.616779 -1.721571 3.063501 0
M  V30 6 C -5.531487 -2.551535 3.586096 0
M  V30 7 C -4.357977 -2.535468 2.699398 0
M  V30 8 C -4.280325 -3.487540 1.698411 0
M  V30 9 C -3.167282 -3.452773 0.876871 0
M  V30 10 C -2.206134 -2.485042 1.094541 0
M  V30 11 C -1.021340 -2.420985 0.243950 0
M  V30 12 C 0.157310 -1.964054 0.799818 0
M  V30 13 C 1.287950 -1.893377 0.011899 0
M  V30 14 C 1.334149 -2.251374 -1.318057 0
M  V30 15 C 2.563184 -2.159099 -2.160652 0 CFG=2
M  V30 16 C 3.770147 -2.744622 -1.522505 0
M  V30 17 C 2.784360 -0.754629 -2.665799 0
M  V30 18 O 2.815068 -0.522942 -3.923759 0
M  V30 19 N 2.971467 0.395140 -1.860533 0
M  V30 20 C 3.178476 1.711921 -2.338622 0
M  V30 21 C 3.259274 2.225842 -3.613537 0
M  V30 22 C 3.470739 3.588078 -3.602069 0
M  V30 23 C 3.616847 4.518368 -4.754163 0
M  V30 24 C 3.077022 5.912531 -4.640848 0
M  V30 25 C 4.562367 5.631432 -4.646725 0
M  V30 26 N 3.513755 3.871739 -2.284877 0
M  V30 27 N 3.346219 2.796452 -1.561657 0
M  V30 28 C 0.119201 -2.703292 -1.821713 0
M  V30 29 C -1.042881 -2.796201 -1.084280 0
M  V30 30 C -2.319403 -1.543983 2.111916 0
M  V30 31 N -3.420468 -1.592720 2.910513 0
M  V30 32 H -7.791756 2.768260 2.657770 0
M  V30 33 H -6.478782 2.580308 3.327416 0
M  V30 34 H -8.392887 0.476008 2.244855 0
M  V30 35 H -7.496065 -2.031118 2.596220 0
M  V30 36 H -5.299983 -2.189584 4.591126 0
M  V30 37 H -5.936535 -3.586823 3.687583 0
M  V30 38 H -5.034558 -4.242678 1.532369 0
M  V30 39 H -2.999049 -4.144504 0.063502 0
M  V30 40 H 0.184043 -1.664617 1.852421 0
M  V30 41 H 2.167072 -1.536442 0.510922 0
M  V30 42 H 2.322201 -2.760388 -3.081129 0
M  V30 43 H 3.659545 -2.918647 -0.432018 0
M  V30 44 H 4.589852 -2.004455 -1.618797 0
M  V30 45 H 4.079132 -3.652043 -2.068119 0
M  V30 46 H 2.953191 0.233450 -0.832328 0
M  V30 47 H 3.172989 1.665553 -4.530788 0
M  V30 48 H 3.551152 3.980843 -5.723243 0
M  V30 49 H 2.583185 6.197815 -3.689749 0
M  V30 50 H 2.608228 6.325371 -5.558321 0
M  V30 51 H 5.083105 5.986476 -5.564674 0
M  V30 52 H 5.069741 5.925895 -3.702170 0
M  V30 53 H 3.666442 4.857202 -1.920495 0
M  V30 54 H 0.085186 -3.002053 -2.862947 0
M  V30 55 H -1.966516 -3.154486 -1.521545 0
M  V30 56 H -1.584990 -0.766498 2.315030 0
M  V30 END ATOM
M  V30 BEGIN BOND
M  V30 1 2 1 2
M  V30 2 1 2 3
M  V30 3 2 3 4
M  V30 4 1 3 5
M  V30 5 1 5 6
M  V30 6 1 6 7
M  V30 7 2 7 8
M  V30 8 1 8 9
M  V30 9 2 9 10
M  V30 10 1 10 11
M  V30 11 2 11 12
M  V30 12 1 12 13
M  V30 13 2 13 14
M  V30 14 1 14 15
M  V30 15 1 15 16
M  V30 16 1 15 17
M  V30 17 2 17 18
M  V30 18 1 17 19
M  V30 19 1 19 20
M  V30 20 1 20 21
M  V30 21 2 21 22
M  V30 22 1 22 23
M  V30 23 1 23 24
M  V30 24 1 24 25
M  V30 25 1 22 26
M  V30 26 1 26 27
M  V30 27 1 14 28
M  V30 28 2 28 29
M  V30 29 1 10 30
M  V30 30 2 30 31
M  V30 31 1 31 7
M  V30 32 1 29 11
M  V30 33 2 27 20
M  V30 34 1 25 23
M  V30 35 1 1 32
M  V30 36 1 1 33
M  V30 37 1 2 34
M  V30 38 1 5 35
M  V30 39 1 6 36
M  V30 40 1 6 37
M  V30 41 1 8 38
M  V30 42 1 9 39
M  V30 43 1 12 40
M  V30 44 1 13 41
M  V30 45 1 15 42 CFG=3
M  V30 46 1 16 43
M  V30 47 1 16 44
M  V30 48 1 16 45
M  V30 49 1 19 46
M  V30 50 1 21 47
M  V30 51 1 23 48
M  V30 52 1 24 49
M  V30 53 1 24 50
M  V30 54 1 25 51
M  V30 55 1 25 52
M  V30 56 1 26 53
M  V30 57 1 28 54
M  V30 58 1 29 55
M  V30 59 1 30 56
M  V30 END BOND
M  V30 END CTAB
M  END
>  <Dataset>  (754) 
ChEMBL_Kinases

>  <Ligand_Instance>  (754) 
nan

>  <PDB_ID>  (754) 
nan

>  <Standardized_SMILES>  (754) 
C=CC(=O)NCc1ccc(-c2ccc([C@H](C)C(=O)Nc3cc(C4CC4)[nH]n3)cc2)cn1

>  <Name>  (754) 
nan

>  <Pocket>  (754) 
nan

>  <ATP_Site>  (754) 
nan

>  <Peripheral>  (754) 
nan

>  <Num_H_Atoms_ProtBoundConf>  (754) 
nan

>  <Num_Resolved_Atoms>  (754) 
nan

>  <Num_Not_Resolved_Atoms>  (754) 
nan

$$$$
CHEMBL4281706
     RDKit          3D

  0  0  0  0  0  0  0  0  0  0999 V3000
M  V30 BEGIN CTAB
M  V30 COUNTS 59 63 0 0 0
M  V30 BEGIN ATOM
M  V30 1 C 2.792074 0.341311 5.856696 0
M  V30 2 C 3.251832 -0.790971 4.960445 0 CFG=2
M  V30 3 C 4.424640 -1.453921 5.619336 0
M  V30 4 N 5.428592 -1.934334 4.726948 0
M  V30 5 C 5.930122 -0.965123 3.810377 0
M  V30 6 C 4.962665 0.162389 3.543862 0 CFG=2
M  V30 7 C 5.241746 1.397398 4.353654 0
M  V30 8 N 3.610407 -0.336325 3.629455 0
M  V30 9 C 2.666828 -0.415731 2.567463 0
M  V30 10 C 1.340897 -0.723358 2.786002 0
M  V30 11 C 0.413255 -0.812523 1.773005 0
M  V30 12 C 0.773537 -0.592484 0.457811 0
M  V30 13 C -0.185097 -0.679610 -0.638179 0
M  V30 14 C -1.541115 -0.355718 -0.493347 0
M  V30 15 N -2.362197 -0.454116 -1.553821 0
M  V30 16 C -1.910192 -0.864769 -2.776263 0
M  V30 17 C -2.537691 -1.047074 -4.015311 0
M  V30 18 C -3.945368 -0.805771 -4.222058 0
M  V30 19 C -4.397282 -0.087214 -5.310380 0
M  V30 20 C -5.780907 0.063634 -5.386794 0
M  V30 21 C -6.641806 -0.458268 -4.455755 0
M  V30 22 C -6.152563 -1.179915 -3.367027 0
M  V30 23 S -7.231154 -1.847833 -2.186767 0
M  V30 24 N -7.711626 -3.444969 -2.553476 0
M  V30 25 O -6.624365 -1.841627 -0.791727 0
M  V30 26 O -8.489373 -1.000797 -2.067988 0
M  V30 27 C -4.786205 -1.348043 -3.261154 0
M  V30 28 C -1.517078 -1.481084 -4.870380 0
M  V30 29 N -0.367626 -1.546663 -4.169698 0
M  V30 30 N -0.594877 -1.180183 -2.917816 0
M  V30 31 C 0.267763 -1.098328 -1.891612 0
M  V30 32 C 2.089843 -0.281373 0.185012 0
M  V30 33 C 2.976967 -0.206079 1.243194 0
M  V30 34 H 1.733415 0.235770 6.191004 0
M  V30 35 H 3.378811 0.417371 6.795875 0
M  V30 36 H 2.817252 1.322575 5.306189 0
M  V30 37 H 2.382558 -1.515997 4.942959 0
M  V30 38 H 4.043203 -2.360007 6.168936 0
M  V30 39 H 4.902864 -0.847156 6.417728 0
M  V30 40 H 6.168302 -2.396258 5.283455 0
M  V30 41 H 6.941469 -0.561070 4.109615 0
M  V30 42 H 6.104241 -1.485945 2.839710 0
M  V30 43 H 5.112808 0.504000 2.479330 0
M  V30 44 H 5.215026 1.283329 5.430748 0
M  V30 45 H 4.687645 2.236357 3.923972 0
M  V30 46 H 6.325079 1.632346 4.114537 0
M  V30 47 H 0.927050 -0.909314 3.740312 0
M  V30 48 H -0.628695 -1.052574 1.924132 0
M  V30 49 H -1.891991 -0.031596 0.477701 0
M  V30 50 H -3.720966 0.323003 -6.042245 0
M  V30 51 H -6.113745 0.631794 -6.249759 0
M  V30 52 H -7.690134 -0.286581 -4.605946 0
M  V30 53 H -7.228757 -4.165094 -1.985760 0
M  V30 54 H -7.626258 -3.704157 -3.551686 0
M  V30 55 H -4.401919 -1.905695 -2.418485 0
M  V30 56 H -1.833533 -1.674169 -5.892104 0
M  V30 57 H 1.320952 -1.365332 -2.059457 0
M  V30 58 H 2.374195 -0.109146 -0.844471 0
M  V30 59 H 3.975349 0.038082 0.929552 0
M  V30 END ATOM
M  V30 BEGIN BOND
M  V30 1 1 1 2
M  V30 2 1 2 3
M  V30 3 1 3 4
M  V30 4 1 4 5
M  V30 5 1 5 6
M  V30 6 1 6 7
M  V30 7 1 6 8
M  V30 8 1 8 9
M  V30 9 2 9 10
M  V30 10 1 10 11
M  V30 11 2 11 12
M  V30 12 1 12 13
M  V30 13 1 13 14
M  V30 14 2 14 15
M  V30 15 1 15 16
M  V30 16 2 16 17
M  V30 17 1 17 18
M  V30 18 2 18 19
M  V30 19 1 19 20
M  V30 20 2 20 21
M  V30 21 1 21 22
M  V30 22 1 22 23
M  V30 23 1 23 24
M  V30 24 2 23 25
M  V30 25 2 23 26
M  V30 26 2 22 27
M  V30 27 1 17 28
M  V30 28 2 28 29
M  V30 29 1 29 30
M  V30 30 1 30 31
M  V30 31 1 12 32
M  V30 32 2 32 33
M  V30 33 1 8 2
M  V30 34 1 33 9
M  V30 35 2 31 13
M  V30 36 1 30 16
M  V30 37 1 27 18
M  V30 38 1 1 34
M  V30 39 1 1 35
M  V30 40 1 1 36
M  V30 41 1 2 37 CFG=3
M  V30 42 1 3 38
M  V30 43 1 3 39
M  V30 44 1 4 40
M  V30 45 1 5 41
M  V30 46 1 5 42
M  V30 47 1 6 43 CFG=3
M  V30 48 1 7 44
M  V30 49 1 7 45
M  V30 50 1 7 46
M  V30 51 1 10 47
M  V30 52 1 11 48
M  V30 53 1 14 49
M  V30 54 1 19 50
M  V30 55 1 20 51
M  V30 56 1 21 52
M  V30 57 1 24 53
M  V30 58 1 24 54
M  V30 59 1 27 55
M  V30 60 1 28 56
M  V30 61 1 31 57
M  V30 62 1 32 58
M  V30 63 1 33 59
M  V30 END BOND
M  V30 END CTAB
M  END
>  <Dataset>  (755) 
ChEMBL_Kinases

>  <Ligand_Instance>  (755) 
nan

>  <PDB_ID>  (755) 
nan

>  <Standardized_SMILES>  (755) 
C[C@@H]1CNC[C@H](C)N1c1ccc(-c2cnc3c(-c4cccc(S(N)(=O)=O)c4)cnn3c2)cc1

>  <Name>  (755) 
nan

>  <Pocket>  (755) 
nan

>  <ATP_Site>  (755) 
nan

>  <Peripheral>  (755) 
nan

>  <Num_H_Atoms_ProtBoundConf>  (755) 
nan

>  <Num_Resolved_Atoms>  (755) 
nan

>  <Num_Not_Resolved_Atoms>  (755) 
nan

$$$$
CHEMBL4282090
     RDKit          3D

  0  0  0  0  0  0  0  0  0  0999 V3000
M  V30 BEGIN CTAB
M  V30 COUNTS 42 45 0 0 0
M  V30 BEGIN ATOM
M  V30 1 O 3.651447 -8.010095 2.108604 0
M  V30 2 C 3.212526 -6.845267 1.946154 0
M  V30 3 N 3.204422 -5.901578 2.895428 0
M  V30 4 C 2.664755 -4.794616 2.359767 0
M  V30 5 C 2.421864 -3.549890 2.889392 0
M  V30 6 C 1.844976 -2.612534 2.062957 0
M  V30 7 C 1.482314 -2.808300 0.732940 0
M  V30 8 C 0.865912 -1.765090 -0.111398 0
M  V30 9 N 0.721693 -0.670660 0.558984 0
M  V30 10 N 0.159820 0.475708 -0.010147 0
M  V30 11 C -0.241937 0.492419 -1.234294 0
M  V30 12 N -0.794380 1.709757 -1.703232 0
M  V30 13 C -0.412868 3.016690 -1.208397 0
M  V30 14 C -0.658479 3.098363 0.250079 0
M  V30 15 C 0.425670 3.011904 1.121652 0
M  V30 16 C 0.368854 3.074203 2.516203 0
M  V30 17 C -0.876627 3.236178 3.075044 0
M  V30 18 C -1.954832 3.323743 2.247653 0
M  V30 19 C -1.878135 3.259324 0.855316 0
M  V30 20 C -3.070995 3.358886 0.015570 0
M  V30 21 F -3.031801 4.420185 -0.868038 0
M  V30 22 F -4.158571 3.634995 0.860279 0
M  V30 23 F -3.416718 2.236922 -0.670338 0
M  V30 24 S -0.171076 -0.867420 -2.386391 0
M  V30 25 C 0.581793 -2.232521 -1.474824 0
M  V30 26 C 1.770800 -4.097154 0.299572 0
M  V30 27 C 2.343421 -5.091080 1.054372 0
M  V30 28 N 2.681164 -6.364497 0.789882 0
M  V30 29 H 3.537171 -5.951746 3.878962 0
M  V30 30 H 2.670199 -3.307324 3.913288 0
M  V30 31 H 1.666621 -1.641881 2.509868 0
M  V30 32 H -1.529937 1.634083 -2.470201 0
M  V30 33 H -1.005129 3.794106 -1.733690 0
M  V30 34 H 0.678285 3.165786 -1.398138 0
M  V30 35 H 1.421989 2.882624 0.680864 0
M  V30 36 H 1.275155 2.995003 3.077314 0
M  V30 37 H -0.933703 3.285403 4.145853 0
M  V30 38 H -2.948854 3.453599 2.701287 0
M  V30 39 H -0.231483 -3.010384 -1.379265 0
M  V30 40 H 1.470570 -2.647125 -1.988848 0
M  V30 41 H 1.516278 -4.337682 -0.740859 0
M  V30 42 H 2.542718 -6.845579 -0.137511 0
M  V30 END ATOM
M  V30 BEGIN BOND
M  V30 1 2 1 2
M  V30 2 1 2 3
M  V30 3 1 3 4
M  V30 4 2 4 5
M  V30 5 1 5 6
M  V30 6 2 6 7
M  V30 7 1 7 8
M  V30 8 2 8 9
M  V30 9 1 9 10
M  V30 10 2 10 11
M  V30 11 1 11 12
M  V30 12 1 12 13
M  V30 13 1 13 14
M  V30 14 2 14 15
M  V30 15 1 15 16
M  V30 16 2 16 17
M  V30 17 1 17 18
M  V30 18 2 18 19
M  V30 19 1 19 20
M  V30 20 1 20 21
M  V30 21 1 20 22
M  V30 22 1 20 23
M  V30 23 1 11 24
M  V30 24 1 24 25
M  V30 25 1 7 26
M  V30 26 2 26 27
M  V30 27 1 27 28
M  V30 28 1 28 2
M  V30 29 1 27 4
M  V30 30 1 25 8
M  V30 31 1 19 14
M  V30 32 1 3 29
M  V30 33 1 5 30
M  V30 34 1 6 31
M  V30 35 1 12 32
M  V30 36 1 13 33
M  V30 37 1 13 34
M  V30 38 1 15 35
M  V30 39 1 16 36
M  V30 40 1 17 37
M  V30 41 1 18 38
M  V30 42 1 25 39
M  V30 43 1 25 40
M  V30 44 1 26 41
M  V30 45 1 28 42
M  V30 END BOND
M  V30 END CTAB
M  END
>  <Dataset>  (756) 
ChEMBL_Kinases

>  <Ligand_Instance>  (756) 
nan

>  <PDB_ID>  (756) 
nan

>  <Standardized_SMILES>  (756) 
O=c1[nH]c2ccc(C3=NN=C(NCc4ccccc4C(F)(F)F)SC3)cc2[nH]1

>  <Name>  (756) 
nan

>  <Pocket>  (756) 
nan

>  <ATP_Site>  (756) 
nan

>  <Peripheral>  (756) 
nan

>  <Num_H_Atoms_ProtBoundConf>  (756) 
nan

>  <Num_Resolved_Atoms>  (756) 
nan

>  <Num_Not_Resolved_Atoms>  (756) 
nan

$$$$
CHEMBL4282089
     RDKit          3D

  0  0  0  0  0  0  0  0  0  0999 V3000
M  V30 BEGIN CTAB
M  V30 COUNTS 43 46 0 0 0
M  V30 BEGIN ATOM
M  V30 1 O 1.600472 -6.804479 2.724383 0
M  V30 2 C 1.507954 -5.465412 2.320897 0
M  V30 3 C 1.884714 -4.491159 3.232411 0
M  V30 4 C 1.829249 -3.131028 2.927076 0
M  V30 5 C 1.383404 -2.773361 1.676476 0
M  V30 6 C 1.277012 -1.379143 1.228940 0
M  V30 7 N 0.868897 -0.924323 0.069699 0
M  V30 8 N 0.919629 0.454381 0.052758 0
M  V30 9 C 1.012101 1.255788 -1.105534 0
M  V30 10 C 1.057457 0.642512 -2.342062 0
M  V30 11 C 1.148061 1.355780 -3.524251 0
M  V30 12 C 1.192284 2.733645 -3.417109 0
M  V30 13 Cl 1.307658 3.708511 -4.878268 0
M  V30 14 C 1.151696 3.419091 -2.219758 0
M  V30 15 C 1.060541 2.634513 -1.074888 0
M  V30 16 C 0.858780 0.873306 1.438378 0
M  V30 17 C -0.564103 0.909232 1.841413 0
M  V30 18 C -1.552787 -0.015109 1.612211 0
M  V30 19 C -2.840783 0.180571 2.063094 0
M  V30 20 C -3.210235 1.303522 2.763649 0
M  V30 21 Cl -4.843539 1.555669 3.337551 0
M  V30 22 C -2.276899 2.258726 3.024309 0
M  V30 23 C -0.997504 2.032388 2.559296 0
M  V30 24 C 1.650260 -0.234263 2.088104 0
M  V30 25 C 1.004560 -3.750574 0.759650 0
M  V30 26 O 0.550319 -3.421013 -0.510529 0
M  V30 27 C 1.059443 -5.094617 1.061575 0
M  V30 28 H 0.789068 -7.253013 3.081655 0
M  V30 29 H 2.244471 -4.739900 4.236989 0
M  V30 30 H 2.106200 -2.348389 3.589558 0
M  V30 31 H 1.021928 -0.430797 -2.405832 0
M  V30 32 H 1.180467 0.839790 -4.459509 0
M  V30 33 H 1.187390 4.494268 -2.157804 0
M  V30 34 H 1.022876 3.087833 -0.085276 0
M  V30 35 H 1.346080 1.866439 1.585173 0
M  V30 36 H -1.255763 -0.895786 1.062095 0
M  V30 37 H -3.581028 -0.601452 1.843263 0
M  V30 38 H -2.516622 3.142738 3.562087 0
M  V30 39 H -0.267002 2.824636 2.787215 0
M  V30 40 H 2.722509 -0.001530 1.929048 0
M  V30 41 H 1.397317 -0.382472 3.150320 0
M  V30 42 H -0.232458 -3.931694 -0.907961 0
M  V30 43 H 0.770891 -5.883205 0.368299 0
M  V30 END ATOM
M  V30 BEGIN BOND
M  V30 1 1 1 2
M  V30 2 2 2 3
M  V30 3 1 3 4
M  V30 4 2 4 5
M  V30 5 1 5 6
M  V30 6 2 6 7
M  V30 7 1 7 8
M  V30 8 1 8 9
M  V30 9 2 9 10
M  V30 10 1 10 11
M  V30 11 2 11 12
M  V30 12 1 12 13
M  V30 13 1 12 14
M  V30 14 2 14 15
M  V30 15 1 8 16
M  V30 16 1 16 17
M  V30 17 2 17 18
M  V30 18 1 18 19
M  V30 19 2 19 20
M  V30 20 1 20 21
M  V30 21 1 20 22
M  V30 22 2 22 23
M  V30 23 1 16 24
M  V30 24 1 5 25
M  V30 25 1 25 26
M  V30 26 2 25 27
M  V30 27 1 27 2
M  V30 28 1 24 6
M  V30 29 1 15 9
M  V30 30 1 23 17
M  V30 31 1 1 28
M  V30 32 1 3 29
M  V30 33 1 4 30
M  V30 34 1 10 31
M  V30 35 1 11 32
M  V30 36 1 14 33
M  V30 37 1 15 34
M  V30 38 1 16 35
M  V30 39 1 18 36
M  V30 40 1 19 37
M  V30 41 1 22 38
M  V30 42 1 23 39
M  V30 43 1 24 40
M  V30 44 1 24 41
M  V30 45 1 26 42
M  V30 46 1 27 43
M  V30 END BOND
M  V30 END CTAB
M  END
>  <Dataset>  (757) 
ChEMBL_Kinases

>  <Ligand_Instance>  (757) 
nan

>  <PDB_ID>  (757) 
nan

>  <Standardized_SMILES>  (757) 
Oc1ccc(C2=NN(c3ccc(Cl)cc3)C(c3ccc(Cl)cc3)C2)c(O)c1

>  <Name>  (757) 
nan

>  <Pocket>  (757) 
nan

>  <ATP_Site>  (757) 
nan

>  <Peripheral>  (757) 
nan

>  <Num_H_Atoms_ProtBoundConf>  (757) 
nan

>  <Num_Resolved_Atoms>  (757) 
nan

>  <Num_Not_Resolved_Atoms>  (757) 
nan

$$$$
CHEMBL4282026
     RDKit          3D

  0  0  0  0  0  0  0  0  0  0999 V3000
M  V30 BEGIN CTAB
M  V30 COUNTS 49 52 0 0 0
M  V30 BEGIN ATOM
M  V30 1 C -0.306119 -6.699911 0.923111 0
M  V30 2 N 0.680967 -6.174496 0.010129 0
M  V30 3 C 1.116838 -4.887000 0.453323 0
M  V30 4 N 2.102036 -5.040131 1.380041 0
M  V30 5 C 2.691502 -3.954574 1.957881 0
M  V30 6 C 2.165755 -2.776870 1.485090 0
M  V30 7 C 1.187882 -2.573983 0.567309 0
M  V30 8 C 0.733463 -1.226524 0.169054 0
M  V30 9 S 1.721610 0.144372 -0.568662 0
M  V30 10 C 0.235008 1.248088 -0.632210 0
M  V30 11 C 0.293598 2.668945 -1.157340 0
M  V30 12 C 1.679968 3.228270 -1.051736 0
M  V30 13 C 1.952935 4.011134 0.183822 0
M  V30 14 N 1.060701 3.698492 1.238627 0
M  V30 15 C 1.445422 2.650620 2.126655 0
M  V30 16 C -0.329920 3.823992 0.983258 0
M  V30 17 C -0.735168 3.496308 -0.427490 0
M  V30 18 N -0.603593 0.574514 -0.187547 0
M  V30 19 C -0.508452 -0.667173 0.250635 0
M  V30 20 C -1.631385 -1.420668 0.788588 0
M  V30 21 C -2.095787 -1.407625 2.083680 0
M  V30 22 C -3.142000 -2.107227 2.589694 0
M  V30 23 C -3.784298 -2.915494 1.646307 0
M  V30 24 F -4.840715 -3.648835 2.074915 0
M  V30 25 C -3.374717 -2.976338 0.338197 0
M  V30 26 C -2.291565 -2.236898 -0.135640 0
M  V30 27 N 0.641150 -3.712685 0.027360 0
M  V30 28 H 0.186630 -6.836721 1.912302 0
M  V30 29 H -0.669397 -7.704145 0.563051 0
M  V30 30 H -1.144159 -6.004202 1.086876 0
M  V30 31 H 1.125430 -6.505386 -0.859917 0
M  V30 32 H 3.474923 -3.940292 2.699156 0
M  V30 33 H 2.583803 -1.853948 1.899990 0
M  V30 34 H -0.006543 2.620064 -2.219582 0
M  V30 35 H 1.906561 3.903906 -1.917426 0
M  V30 36 H 2.412663 2.400150 -1.137124 0
M  V30 37 H 2.980962 3.787320 0.530857 0
M  V30 38 H 1.951883 5.115747 -0.006075 0
M  V30 39 H 1.598245 3.082738 3.155827 0
M  V30 40 H 0.698480 1.847661 2.233556 0
M  V30 41 H 2.412906 2.207849 1.816670 0
M  V30 42 H -0.867352 3.185030 1.739808 0
M  V30 43 H -0.647096 4.863702 1.191444 0
M  V30 44 H -1.654662 2.872734 -0.359879 0
M  V30 45 H -1.013344 4.399160 -1.007629 0
M  V30 46 H -1.529965 -0.745153 2.743970 0
M  V30 47 H -3.397730 -2.008034 3.614027 0
M  V30 48 H -3.873061 -3.602665 -0.389467 0
M  V30 49 H -2.001396 -2.311269 -1.161885 0
M  V30 END ATOM
M  V30 BEGIN BOND
M  V30 1 1 1 2
M  V30 2 1 2 3
M  V30 3 2 3 4
M  V30 4 1 4 5
M  V30 5 2 5 6
M  V30 6 1 6 7
M  V30 7 1 7 8
M  V30 8 1 8 9
M  V30 9 1 9 10
M  V30 10 1 10 11
M  V30 11 1 11 12
M  V30 12 1 12 13
M  V30 13 1 13 14
M  V30 14 1 14 15
M  V30 15 1 14 16
M  V30 16 1 16 17
M  V30 17 2 10 18
M  V30 18 1 18 19
M  V30 19 1 19 20
M  V30 20 2 20 21
M  V30 21 1 21 22
M  V30 22 2 22 23
M  V30 23 1 23 24
M  V30 24 1 23 25
M  V30 25 2 25 26
M  V30 26 2 7 27
M  V30 27 1 27 3
M  V30 28 2 19 8
M  V30 29 1 26 20
M  V30 30 1 17 11
M  V30 31 1 1 28
M  V30 32 1 1 29
M  V30 33 1 1 30
M  V30 34 1 2 31
M  V30 35 1 5 32
M  V30 36 1 6 33
M  V30 37 1 11 34
M  V30 38 1 12 35
M  V30 39 1 12 36
M  V30 40 1 13 37
M  V30 41 1 13 38
M  V30 42 1 15 39
M  V30 43 1 15 40
M  V30 44 1 15 41
M  V30 45 1 16 42
M  V30 46 1 16 43
M  V30 47 1 17 44
M  V30 48 1 17 45
M  V30 49 1 21 46
M  V30 50 1 22 47
M  V30 51 1 25 48
M  V30 52 1 26 49
M  V30 END BOND
M  V30 END CTAB
M  END
>  <Dataset>  (758) 
ChEMBL_Kinases

>  <Ligand_Instance>  (758) 
nan

>  <PDB_ID>  (758) 
nan

>  <Standardized_SMILES>  (758) 
CNc1nccc(-c2sc(C3CCN(C)CC3)nc2-c2ccc(F)cc2)n1

>  <Name>  (758) 
nan

>  <Pocket>  (758) 
nan

>  <ATP_Site>  (758) 
nan

>  <Peripheral>  (758) 
nan

>  <Num_H_Atoms_ProtBoundConf>  (758) 
nan

>  <Num_Resolved_Atoms>  (758) 
nan

>  <Num_Not_Resolved_Atoms>  (758) 
nan

$$$$
CHEMBL428196
     RDKit          3D

  0  0  0  0  0  0  0  0  0  0999 V3000
M  V30 BEGIN CTAB
M  V30 COUNTS 66 71 0 0 0
M  V30 BEGIN ATOM
M  V30 1 C 5.050828 1.721883 -0.475835 0
M  V30 2 O 3.733403 1.934801 -0.932143 0
M  V30 3 C 2.717439 1.145627 -0.430644 0
M  V30 4 C 2.992719 0.165207 0.501567 0
M  V30 5 C 1.984591 -0.626346 1.007310 0
M  V30 6 C 0.702912 -0.399747 0.547084 0
M  V30 7 C 0.460712 0.585397 -0.382887 0
M  V30 8 C 1.453212 1.393817 -0.906569 0
M  V30 9 C 1.029296 2.388363 -1.876437 0
M  V30 10 O -0.183955 2.485509 -2.204617 0
M  V30 11 N 1.787617 3.333575 -2.567134 0
M  V30 12 C 1.298230 4.289095 -3.516237 0 CFG=1
M  V30 13 C 1.388490 5.714279 -3.025950 0
M  V30 14 C 0.817400 6.607755 -4.090206 0
M  V30 15 C 0.159954 5.898118 -5.227256 0 CFG=2
M  V30 16 O -1.153475 5.479000 -4.939710 0
M  V30 17 C 0.962525 4.816242 -5.867659 0
M  V30 18 C 1.909912 4.184263 -4.873422 0
M  V30 19 C -0.221073 -1.357640 1.218215 0
M  V30 20 C 0.687928 -2.114560 2.083816 0
M  V30 21 C 0.642750 -3.160151 3.016047 0
M  V30 22 C -0.503108 -3.935353 3.484256 0
M  V30 23 C -0.320311 -5.301485 3.566457 0
M  V30 24 C -1.293319 -6.185401 3.986651 0
M  V30 25 C -2.530721 -5.694277 4.351194 0
M  V30 26 C -3.572489 -6.595272 4.796270 0
M  V30 27 C -3.358957 -7.787585 5.489599 0
M  V30 28 C -4.456199 -8.555937 5.853956 0
M  V30 29 C -5.756614 -8.195715 5.561853 0
M  V30 30 O -6.842758 -8.981141 5.936316 0
M  V30 31 C -6.005932 -7.009488 4.869568 0
M  V30 32 C -4.877959 -6.275112 4.526777 0
M  V30 33 C -2.721284 -4.340708 4.273168 0
M  V30 34 C -1.745433 -3.459391 3.852166 0
M  V30 35 N 1.923878 -3.352743 3.447195 0
M  V30 36 N 2.721315 -2.483432 2.824963 0
M  V30 37 C 2.005025 -1.711347 1.986057 0
M  V30 38 H 5.386996 0.727691 -0.847296 0
M  V30 39 H 5.759616 2.476114 -0.871989 0
M  V30 40 H 5.126224 1.747642 0.636592 0
M  V30 41 H 4.011932 0.024573 0.832340 0
M  V30 42 H -0.586837 0.704254 -0.698302 0
M  V30 43 H 2.812400 3.363324 -2.389135 0
M  V30 44 H 0.191991 4.101313 -3.632524 0
M  V30 45 H 2.462733 5.972941 -2.857838 0
M  V30 46 H 0.786447 5.860155 -2.099294 0
M  V30 47 H 1.619115 7.244579 -4.521814 0
M  V30 48 H 0.046456 7.296687 -3.663383 0
M  V30 49 H 0.007442 6.691505 -6.020546 0
M  V30 50 H -1.364945 4.746602 -5.575148 0
M  V30 51 H 0.233477 4.016878 -6.189954 0
M  V30 52 H 1.480266 5.166250 -6.784082 0
M  V30 53 H 2.121304 3.140355 -5.188005 0
M  V30 54 H 2.849555 4.792296 -4.882196 0
M  V30 55 H -1.021668 -0.861529 1.800746 0
M  V30 56 H -0.726959 -2.000412 0.455978 0
M  V30 57 H 0.623262 -5.797746 3.301778 0
M  V30 58 H -1.135373 -7.255016 4.045924 0
M  V30 59 H -2.334145 -8.053593 5.709152 0
M  V30 60 H -4.241849 -9.473135 6.389956 0
M  V30 61 H -7.579193 -9.196685 5.262268 0
M  V30 62 H -6.996717 -6.661233 4.605708 0
M  V30 63 H -5.092781 -5.344409 3.981588 0
M  V30 64 H -3.674772 -3.879061 4.545902 0
M  V30 65 H -1.859329 -2.378573 3.776956 0
M  V30 66 H 3.765583 -2.366170 2.930075 0
M  V30 END ATOM
M  V30 BEGIN BOND
M  V30 1 1 1 2
M  V30 2 1 2 3
M  V30 3 2 3 4
M  V30 4 1 4 5
M  V30 5 2 5 6
M  V30 6 1 6 7
M  V30 7 2 7 8
M  V30 8 1 8 9
M  V30 9 2 9 10
M  V30 10 1 9 11
M  V30 11 1 11 12
M  V30 12 1 12 13
M  V30 13 1 13 14
M  V30 14 1 14 15
M  V30 15 1 15 16
M  V30 16 1 15 17
M  V30 17 1 17 18
M  V30 18 1 6 19
M  V30 19 1 19 20
M  V30 20 1 20 21
M  V30 21 1 21 22
M  V30 22 2 22 23
M  V30 23 1 23 24
M  V30 24 2 24 25
M  V30 25 1 25 26
M  V30 26 2 26 27
M  V30 27 1 27 28
M  V30 28 2 28 29
M  V30 29 1 29 30
M  V30 30 1 29 31
M  V30 31 2 31 32
M  V30 32 1 25 33
M  V30 33 2 33 34
M  V30 34 2 21 35
M  V30 35 1 35 36
M  V30 36 1 36 37
M  V30 37 1 8 3
M  V30 38 1 18 12
M  V30 39 2 37 20
M  V30 40 1 37 5
M  V30 41 1 34 22
M  V30 42 1 32 26
M  V30 43 1 1 38
M  V30 44 1 1 39
M  V30 45 1 1 40
M  V30 46 1 4 41
M  V30 47 1 7 42
M  V30 48 1 11 43
M  V30 49 1 12 44 CFG=3
M  V30 50 1 13 45
M  V30 51 1 13 46
M  V30 52 1 14 47
M  V30 53 1 14 48
M  V30 54 1 15 49 CFG=3
M  V30 55 1 16 50
M  V30 56 1 17 51
M  V30 57 1 17 52
M  V30 58 1 18 53
M  V30 59 1 18 54
M  V30 60 1 19 55
M  V30 61 1 19 56
M  V30 62 1 23 57
M  V30 63 1 24 58
M  V30 64 1 27 59
M  V30 65 1 28 60
M  V30 66 1 30 61
M  V30 67 1 31 62
M  V30 68 1 32 63
M  V30 69 1 33 64
M  V30 70 1 34 65
M  V30 71 1 36 66
M  V30 END BOND
M  V30 END CTAB
M  END
>  <Dataset>  (759) 
ChEMBL_Kinases

>  <Ligand_Instance>  (759) 
nan

>  <PDB_ID>  (759) 
nan

>  <Standardized_SMILES>  (759) 
COc1cc2c(cc1C(=O)N[C@H]1CC[C@H](O)CC1)Cc1c(-c3ccc(-c4ccc(O)cc4)cc3)n[nH]c1-2

>  <Name>  (759) 
nan

>  <Pocket>  (759) 
nan

>  <ATP_Site>  (759) 
nan

>  <Peripheral>  (759) 
nan

>  <Num_H_Atoms_ProtBoundConf>  (759) 
nan

>  <Num_Resolved_Atoms>  (759) 
nan

>  <Num_Not_Resolved_Atoms>  (759) 
nan

$$$$
CHEMBL4281846
     RDKit          3D

  0  0  0  0  0  0  0  0  0  0999 V3000
M  V30 BEGIN CTAB
M  V30 COUNTS 40 43 0 0 0
M  V30 BEGIN ATOM
M  V30 1 C 0.488717 -7.023035 1.773984 0
M  V30 2 C 1.142475 -5.697243 1.615686 0
M  V30 3 C 0.617365 -4.615677 2.306548 0
M  V30 4 C 1.398224 -3.503659 1.989488 0
M  V30 5 N 1.409551 -2.105651 2.332931 0
M  V30 6 C 0.847699 -0.946000 1.678942 0
M  V30 7 N 1.551462 -0.186534 0.815836 0
M  V30 8 C 1.008553 0.894478 0.222094 0
M  V30 9 C 1.784087 1.738035 -0.688578 0
M  V30 10 O 2.988724 1.333646 -0.834258 0
M  V30 11 C 1.196056 2.924499 -1.346032 0
M  V30 12 C -0.132189 3.145161 -1.641726 0
M  V30 13 C -0.432714 4.385462 -2.242156 0
M  V30 14 C 0.555653 5.298249 -2.503991 0
M  V30 15 C 1.881329 5.076563 -2.209350 0
M  V30 16 C 2.192432 3.846550 -1.613049 0
M  V30 17 N -0.284808 1.230690 0.498022 0
M  V30 18 C -1.000894 0.453633 1.377800 0
M  V30 19 C -2.311177 0.918700 1.570804 0
M  V30 20 C -3.036873 0.127472 2.471683 0
M  V30 21 C -2.559070 -0.978604 3.112903 0
M  V30 22 C -1.273139 -1.368452 2.874317 0
M  V30 23 C -0.462892 -0.670954 2.007839 0
M  V30 24 N 2.354908 -3.941150 1.132375 0
M  V30 25 N 2.213147 -5.252627 0.900059 0
M  V30 26 H -0.624920 -6.959237 1.581461 0
M  V30 27 H 0.949538 -7.735182 1.067047 0
M  V30 28 H 0.581384 -7.306305 2.843300 0
M  V30 29 H -0.211722 -4.500274 2.980106 0
M  V30 30 H 1.873105 -1.699050 3.181015 0
M  V30 31 H -0.834447 2.383812 -1.411417 0
M  V30 32 H -1.494528 4.481324 -2.437863 0
M  V30 33 H 0.174021 6.220169 -2.969228 0
M  V30 34 H 2.501040 5.919157 -2.492297 0
M  V30 35 H 3.239367 3.757372 -1.426491 0
M  V30 36 H -2.683344 1.790209 1.058008 0
M  V30 37 H -4.066440 0.483633 2.628858 0
M  V30 38 H -3.185315 -1.544791 3.804706 0
M  V30 39 H -0.834392 -2.229764 3.354932 0
M  V30 40 H 2.683507 -5.993072 0.341521 0
M  V30 END ATOM
M  V30 BEGIN BOND
M  V30 1 1 1 2
M  V30 2 2 2 3
M  V30 3 1 3 4
M  V30 4 1 4 5
M  V30 5 1 5 6
M  V30 6 2 6 7
M  V30 7 1 7 8
M  V30 8 1 8 9
M  V30 9 2 9 10
M  V30 10 1 9 11
M  V30 11 2 11 12
M  V30 12 1 12 13
M  V30 13 2 13 14
M  V30 14 1 14 15
M  V30 15 2 15 16
M  V30 16 2 8 17
M  V30 17 1 17 18
M  V30 18 2 18 19
M  V30 19 1 19 20
M  V30 20 2 20 21
M  V30 21 1 21 22
M  V30 22 2 22 23
M  V30 23 2 4 24
M  V30 24 1 24 25
M  V30 25 1 25 2
M  V30 26 1 23 6
M  V30 27 1 16 11
M  V30 28 1 23 18
M  V30 29 1 1 26
M  V30 30 1 1 27
M  V30 31 1 1 28
M  V30 32 1 3 29
M  V30 33 1 5 30
M  V30 34 1 12 31
M  V30 35 1 13 32
M  V30 36 1 14 33
M  V30 37 1 15 34
M  V30 38 1 16 35
M  V30 39 1 19 36
M  V30 40 1 20 37
M  V30 41 1 21 38
M  V30 42 1 22 39
M  V30 43 1 25 40
M  V30 END BOND
M  V30 END CTAB
M  END
>  <Dataset>  (760) 
ChEMBL_Kinases

>  <Ligand_Instance>  (760) 
nan

>  <PDB_ID>  (760) 
nan

>  <Standardized_SMILES>  (760) 
Cc1cc(Nc2nc(C(=O)c3ccccc3)nc3ccccc23)n[nH]1

>  <Name>  (760) 
nan

>  <Pocket>  (760) 
nan

>  <ATP_Site>  (760) 
nan

>  <Peripheral>  (760) 
nan

>  <Num_H_Atoms_ProtBoundConf>  (760) 
nan

>  <Num_Resolved_Atoms>  (760) 
nan

>  <Num_Not_Resolved_Atoms>  (760) 
nan

$$$$
CHEMBL4281827
     RDKit          3D

  0  0  0  0  0  0  0  0  0  0999 V3000
M  V30 BEGIN CTAB
M  V30 COUNTS 46 49 0 0 0
M  V30 BEGIN ATOM
M  V30 1 C -2.663140 -4.031314 2.566639 0
M  V30 2 N -3.214345 -2.868547 3.208631 0
M  V30 3 C -3.496770 -1.850523 2.249267 0
M  V30 4 C -3.134712 -0.465872 2.706403 0
M  V30 5 C -1.727524 -0.365576 3.240034 0
M  V30 6 C -0.738830 -0.206915 2.117062 0
M  V30 7 N 0.036754 0.613179 1.775605 0
M  V30 8 C 0.836356 0.556638 0.724704 0
M  V30 9 C 1.783222 1.632622 0.362678 0
M  V30 10 C 3.117902 1.291088 0.368096 0
M  V30 11 C 4.100751 2.230053 0.041546 0
M  V30 12 C 3.697021 3.523437 -0.290509 0
M  V30 13 F 4.570664 4.518476 -0.625421 0
M  V30 14 C 2.358958 3.861908 -0.294695 0
M  V30 15 C 1.405346 2.921102 0.030441 0
M  V30 16 C 0.738349 -0.591310 -0.041085 0
M  V30 17 C 1.484991 -0.968759 -1.272391 0
M  V30 18 C 2.260322 -2.126752 -1.160538 0
M  V30 19 C 2.970183 -2.516537 -2.279209 0
M  V30 20 N 2.908144 -1.793983 -3.434977 0
M  V30 21 C 2.142673 -0.675503 -3.499718 0
M  V30 22 N 2.053954 0.104064 -4.691800 0
M  V30 23 N 1.435745 -0.277866 -2.403147 0
M  V30 24 S -0.569777 -1.533494 0.876049 0
M  V30 25 C -1.300586 -1.581818 4.006514 0
M  V30 26 C -2.496168 -2.426234 4.359509 0
M  V30 27 H -3.391808 -4.888546 2.548600 0
M  V30 28 H -2.426844 -3.813835 1.484221 0
M  V30 29 H -1.697798 -4.311208 3.031662 0
M  V30 30 H -3.040305 -2.062295 1.252141 0
M  V30 31 H -4.600353 -1.833622 2.060206 0
M  V30 32 H -3.878871 -0.144246 3.463096 0
M  V30 33 H -3.234197 0.208660 1.819644 0
M  V30 34 H -1.637087 0.544836 3.827864 0
M  V30 35 H 3.479515 0.289316 0.623028 0
M  V30 36 H 5.166656 2.058065 0.017818 0
M  V30 37 H 2.033974 4.854939 -0.548544 0
M  V30 38 H 0.347892 3.147229 0.038553 0
M  V30 39 H 2.290590 -2.684177 -0.221935 0
M  V30 40 H 3.582542 -3.421377 -2.207462 0
M  V30 41 H 2.828253 0.288180 -5.384808 0
M  V30 42 H 1.114169 0.544642 -4.905323 0
M  V30 43 H -0.607589 -2.235190 3.436236 0
M  V30 44 H -0.768110 -1.267917 4.912879 0
M  V30 45 H -2.088703 -3.340778 4.874786 0
M  V30 46 H -3.143112 -1.950706 5.125551 0
M  V30 END ATOM
M  V30 BEGIN BOND
M  V30 1 1 1 2
M  V30 2 1 2 3
M  V30 3 1 3 4
M  V30 4 1 4 5
M  V30 5 1 5 6
M  V30 6 2 6 7
M  V30 7 1 7 8
M  V30 8 1 8 9
M  V30 9 2 9 10
M  V30 10 1 10 11
M  V30 11 2 11 12
M  V30 12 1 12 13
M  V30 13 1 12 14
M  V30 14 2 14 15
M  V30 15 2 8 16
M  V30 16 1 16 17
M  V30 17 2 17 18
M  V30 18 1 18 19
M  V30 19 2 19 20
M  V30 20 1 20 21
M  V30 21 1 21 22
M  V30 22 2 21 23
M  V30 23 1 16 24
M  V30 24 1 5 25
M  V30 25 1 25 26
M  V30 26 1 26 2
M  V30 27 1 24 6
M  V30 28 1 15 9
M  V30 29 1 23 17
M  V30 30 1 1 27
M  V30 31 1 1 28
M  V30 32 1 1 29
M  V30 33 1 3 30
M  V30 34 1 3 31
M  V30 35 1 4 32
M  V30 36 1 4 33
M  V30 37 1 5 34
M  V30 38 1 10 35
M  V30 39 1 11 36
M  V30 40 1 14 37
M  V30 41 1 15 38
M  V30 42 1 18 39
M  V30 43 1 19 40
M  V30 44 1 22 41
M  V30 45 1 22 42
M  V30 46 1 25 43
M  V30 47 1 25 44
M  V30 48 1 26 45
M  V30 49 1 26 46
M  V30 END BOND
M  V30 END CTAB
M  END
>  <Dataset>  (761) 
ChEMBL_Kinases

>  <Ligand_Instance>  (761) 
nan

>  <PDB_ID>  (761) 
nan

>  <Standardized_SMILES>  (761) 
CN1CCC(c2nc(-c3ccc(F)cc3)c(-c3ccnc(N)n3)s2)CC1

>  <Name>  (761) 
nan

>  <Pocket>  (761) 
nan

>  <ATP_Site>  (761) 
nan

>  <Peripheral>  (761) 
nan

>  <Num_H_Atoms_ProtBoundConf>  (761) 
nan

>  <Num_Resolved_Atoms>  (761) 
nan

>  <Num_Not_Resolved_Atoms>  (761) 
nan

$$$$
CHEMBL4760844
     RDKit          3D

  0  0  0  0  0  0  0  0  0  0999 V3000
M  V30 BEGIN CTAB
M  V30 COUNTS 56 59 0 0 0
M  V30 BEGIN ATOM
M  V30 1 C 2.938028 -0.641746 -1.456136 0
M  V30 2 C 2.718609 -2.083662 -1.234296 0
M  V30 3 C 3.736414 -2.875157 -0.500259 0
M  V30 4 N 1.331534 -2.503444 -1.043354 0
M  V30 5 C 0.671562 -2.423711 0.237406 0
M  V30 6 C 1.414533 -1.801053 1.219967 0
M  V30 7 C 0.940562 -1.603303 2.443538 0
M  V30 8 N 1.448235 -0.757866 3.524151 0
M  V30 9 C 1.479890 0.481709 2.739738 0
M  V30 10 N 2.299607 1.364984 2.183506 0
M  V30 11 C 2.010061 2.373601 1.397718 0
M  V30 12 C 0.685729 2.611299 1.055259 0
M  V30 13 C -0.233329 1.777501 1.564637 0
M  V30 14 C -1.621583 1.944387 1.296516 0
M  V30 15 C -1.944699 2.237049 2.747865 0
M  V30 16 C -3.174809 2.533704 3.431872 0
M  V30 17 C -4.324499 2.582012 2.728834 0
M  V30 18 C -4.191599 2.338118 1.388075 0
M  V30 19 C -2.928459 2.092859 1.052642 0
M  V30 20 N -2.677018 1.627072 -0.365681 0
M  V30 21 N 0.278066 0.840000 2.327090 0
M  V30 22 C -0.357038 -2.023044 2.868044 0
M  V30 23 C -1.116735 -2.660233 1.855715 0
M  V30 24 C -0.576906 -2.839623 0.558897 0
M  V30 25 N -1.357054 -3.433492 -0.498257 0
M  V30 26 C -2.700838 -3.845713 -0.223681 0
M  V30 27 C -0.776041 -3.528755 -1.756189 0
M  V30 28 O -1.378724 -4.112461 -2.689179 0
M  V30 29 C 0.500916 -3.005892 -2.136540 0 CFG=1
M  V30 30 C 0.343768 -1.983092 -3.215195 0
M  V30 31 H 3.665965 -0.425648 -2.238784 0
M  V30 32 H 1.953295 -0.217043 -1.785684 0
M  V30 33 H 3.309728 -0.074979 -0.571632 0
M  V30 34 H 2.894106 -2.465686 -2.319712 0
M  V30 35 H 4.414376 -2.248957 0.151503 0
M  V30 36 H 4.497394 -3.413911 -1.169316 0
M  V30 37 H 3.299527 -3.746806 0.044594 0
M  V30 38 H 2.390793 -1.404961 1.156562 0
M  V30 39 H 1.723685 -0.863348 4.508235 0
M  V30 40 H 2.911000 2.947889 1.097944 0
M  V30 41 H 0.503037 3.458634 0.425035 0
M  V30 42 H -1.273011 2.325058 3.699047 0
M  V30 43 H -3.359306 2.736920 4.513756 0
M  V30 44 H -5.343700 2.787965 2.942932 0
M  V30 45 H -4.910016 2.319971 0.541034 0
M  V30 46 H -2.254413 0.950308 -1.021011 0
M  V30 47 H -2.841480 1.795857 -1.407175 0
M  V30 48 H -0.902833 -1.955259 3.810020 0
M  V30 49 H -2.121891 -3.043509 1.970386 0
M  V30 50 H -3.149938 -4.247926 -1.122421 0
M  V30 51 H -3.346589 -2.994333 0.092671 0
M  V30 52 H -2.740234 -4.611233 0.549535 0
M  V30 53 H 1.077694 -3.877811 -2.637927 0
M  V30 54 H 1.281301 -1.772882 -3.779809 0
M  V30 55 H -0.143481 -1.064482 -2.835425 0
M  V30 56 H -0.349688 -2.381740 -3.994216 0
M  V30 END ATOM
M  V30 BEGIN BOND
M  V30 1 1 1 2
M  V30 2 1 2 3
M  V30 3 1 2 4
M  V30 4 1 4 5
M  V30 5 2 5 6
M  V30 6 1 6 7
M  V30 7 1 7 8
M  V30 8 1 8 9
M  V30 9 2 9 10
M  V30 10 1 10 11
M  V30 11 2 11 12
M  V30 12 1 12 13
M  V30 13 1 13 14
M  V30 14 2 14 15
M  V30 15 1 15 16
M  V30 16 2 16 17
M  V30 17 1 17 18
M  V30 18 2 18 19
M  V30 19 1 19 20
M  V30 20 2 13 21
M  V30 21 2 7 22
M  V30 22 1 22 23
M  V30 23 2 23 24
M  V30 24 1 24 25
M  V30 25 1 25 26
M  V30 26 1 25 27
M  V30 27 2 27 28
M  V30 28 1 27 29
M  V30 29 1 29 30
M  V30 30 1 29 4
M  V30 31 1 24 5
M  V30 32 1 21 9
M  V30 33 1 19 14
M  V30 34 1 1 31
M  V30 35 1 1 32
M  V30 36 1 1 33
M  V30 37 1 2 34
M  V30 38 1 3 35
M  V30 39 1 3 36
M  V30 40 1 3 37
M  V30 41 1 6 38
M  V30 42 1 8 39
M  V30 43 1 11 40
M  V30 44 1 12 41
M  V30 45 1 15 42
M  V30 46 1 16 43
M  V30 47 1 17 44
M  V30 48 1 18 45
M  V30 49 1 20 46
M  V30 50 1 20 47
M  V30 51 1 22 48
M  V30 52 1 23 49
M  V30 53 1 26 50
M  V30 54 1 26 51
M  V30 55 1 26 52
M  V30 56 1 29 53 CFG=3
M  V30 57 1 30 54
M  V30 58 1 30 55
M  V30 59 1 30 56
M  V30 END BOND
M  V30 END CTAB
M  END
>  <Dataset>  (762) 
ChEMBL_Kinases

>  <Ligand_Instance>  (762) 
nan

>  <PDB_ID>  (762) 
nan

>  <Standardized_SMILES>  (762) 
CC(C)N1c2cc(Nc3nccc(-c4ccccc4N)n3)ccc2N(C)C(=O)[C@H]1C

>  <Name>  (762) 
nan

>  <Pocket>  (762) 
nan

>  <ATP_Site>  (762) 
nan

>  <Peripheral>  (762) 
nan

>  <Num_H_Atoms_ProtBoundConf>  (762) 
nan

>  <Num_Resolved_Atoms>  (762) 
nan

>  <Num_Not_Resolved_Atoms>  (762) 
nan

$$$$
CHEMBL4281810
     RDKit          3D

  0  0  0  0  0  0  0  0  0  0999 V3000
M  V30 BEGIN CTAB
M  V30 COUNTS 42 45 0 0 0
M  V30 BEGIN ATOM
M  V30 1 C 0.315253 -6.451561 1.423212 0
M  V30 2 C 1.698047 -6.021684 1.862025 0
M  V30 3 N 2.288391 -5.085587 0.935819 0
M  V30 4 C 2.213637 -3.741484 0.934581 0
M  V30 5 C 2.926594 -3.237560 -0.133146 0
M  V30 6 C 3.114165 -1.844732 -0.520964 0
M  V30 7 C 4.323385 -1.429788 -1.169571 0
M  V30 8 S 4.052156 0.373796 -1.437896 0
M  V30 9 C 2.402026 0.413244 -0.684965 0
M  V30 10 C 1.572469 1.638040 -0.569014 0
M  V30 11 C 2.155206 2.772797 -1.084336 0
M  V30 12 N 1.376978 3.886472 -0.967293 0
M  V30 13 C 0.161376 3.826221 -0.393556 0
M  V30 14 C -0.389176 2.643914 0.117184 0
M  V30 15 N -1.680017 2.608419 0.720569 0
M  V30 16 C -1.644505 2.847229 2.128055 0
M  V30 17 O -0.616940 3.067914 2.799156 0
M  V30 18 C -2.922079 2.840267 2.895088 0
M  V30 19 C -3.969781 1.843615 2.571712 0
M  V30 20 C -4.180928 3.347116 2.294330 0
M  V30 21 C 0.366852 1.487681 0.019691 0
M  V30 22 C 2.151066 -0.923444 -0.277501 0
M  V30 23 C 3.443191 -4.333872 -0.788391 0
M  V30 24 N 3.030219 -5.434701 -0.104367 0
M  V30 25 H 0.356149 -7.118820 0.540315 0
M  V30 26 H -0.331991 -5.586726 1.187260 0
M  V30 27 H -0.157616 -7.014993 2.245322 0
M  V30 28 H 2.337656 -6.905911 1.974763 0
M  V30 29 H 1.569481 -5.466226 2.827622 0
M  V30 30 H 1.683090 -3.126941 1.648946 0
M  V30 31 H 5.138737 -2.064535 -1.407410 0
M  V30 32 H 3.122191 2.831176 -1.543121 0
M  V30 33 H -0.448263 4.730038 -0.308651 0
M  V30 34 H -2.604701 2.429162 0.231726 0
M  V30 35 H -2.789649 3.035821 3.985027 0
M  V30 36 H -3.881687 1.222905 1.650014 0
M  V30 37 H -4.554539 1.378332 3.381063 0
M  V30 38 H -4.923123 3.887236 2.921456 0
M  V30 39 H -4.092138 3.672218 1.218990 0
M  V30 40 H -0.001344 0.564071 0.390022 0
M  V30 41 H 1.197885 -1.074353 0.195345 0
M  V30 42 H 4.057172 -4.277309 -1.677402 0
M  V30 END ATOM
M  V30 BEGIN BOND
M  V30 1 1 1 2
M  V30 2 1 2 3
M  V30 3 1 3 4
M  V30 4 2 4 5
M  V30 5 1 5 6
M  V30 6 2 6 7
M  V30 7 1 7 8
M  V30 8 1 8 9
M  V30 9 1 9 10
M  V30 10 2 10 11
M  V30 11 1 11 12
M  V30 12 2 12 13
M  V30 13 1 13 14
M  V30 14 1 14 15
M  V30 15 1 15 16
M  V30 16 2 16 17
M  V30 17 1 16 18
M  V30 18 1 18 19
M  V30 19 1 19 20
M  V30 20 2 14 21
M  V30 21 2 9 22
M  V30 22 1 5 23
M  V30 23 2 23 24
M  V30 24 1 24 3
M  V30 25 1 22 6
M  V30 26 1 21 10
M  V30 27 1 20 18
M  V30 28 1 1 25
M  V30 29 1 1 26
M  V30 30 1 1 27
M  V30 31 1 2 28
M  V30 32 1 2 29
M  V30 33 1 4 30
M  V30 34 1 7 31
M  V30 35 1 11 32
M  V30 36 1 13 33
M  V30 37 1 15 34
M  V30 38 1 18 35
M  V30 39 1 19 36
M  V30 40 1 19 37
M  V30 41 1 20 38
M  V30 42 1 20 39
M  V30 43 1 21 40
M  V30 44 1 22 41
M  V30 45 1 23 42
M  V30 END BOND
M  V30 END CTAB
M  END
>  <Dataset>  (763) 
ChEMBL_Kinases

>  <Ligand_Instance>  (763) 
nan

>  <PDB_ID>  (763) 
nan

>  <Standardized_SMILES>  (763) 
CCn1cc(-c2csc(-c3cncc(NC(=O)C4CC4)c3)c2)cn1

>  <Name>  (763) 
nan

>  <Pocket>  (763) 
nan

>  <ATP_Site>  (763) 
nan

>  <Peripheral>  (763) 
nan

>  <Num_H_Atoms_ProtBoundConf>  (763) 
nan

>  <Num_Resolved_Atoms>  (763) 
nan

>  <Num_Not_Resolved_Atoms>  (763) 
nan

$$$$
CHEMBL4760855
     RDKit          3D

  0  0  0  0  0  0  0  0  0  0999 V3000
M  V30 BEGIN CTAB
M  V30 COUNTS 43 46 0 0 0
M  V30 BEGIN ATOM
M  V30 1 O 3.563865 0.203627 4.433709 0
M  V30 2 C 2.951040 0.352283 3.334278 0
M  V30 3 N 3.474690 0.564163 2.081505 0
M  V30 4 C 2.640791 0.681482 1.121545 0
M  V30 5 N 3.022812 0.906355 -0.235982 0
M  V30 6 C 4.186760 0.281504 -0.819058 0 CFG=1
M  V30 7 C 4.017459 -1.246124 -0.802946 0
M  V30 8 C 2.888704 -1.445697 -1.790566 0
M  V30 9 C 2.857001 -0.206523 -2.678536 0
M  V30 10 C 4.149544 0.515612 -2.313971 0 CFG=2
M  V30 11 O 5.169514 -0.249746 -2.884100 0
M  V30 12 S 0.929761 0.507708 1.710013 0
M  V30 13 C 1.489012 0.287655 3.420141 0
M  V30 14 C 0.635738 0.137688 4.387596 0
M  V30 15 C -0.814215 0.107753 4.181715 0
M  V30 16 C -1.895909 0.648196 4.841759 0
M  V30 17 C -2.993857 0.236008 4.124164 0
M  V30 18 C -2.561617 -0.530396 3.066029 0
M  V30 19 C -3.361248 -1.184759 2.035486 0
M  V30 20 C -2.689458 -1.932221 1.084435 0
M  V30 21 C -3.418633 -2.563130 0.097697 0
M  V30 22 C -4.812541 -2.466190 0.035722 0
M  V30 23 C -5.458714 -1.715456 0.995037 0
M  V30 24 Cl -7.207977 -1.610267 0.889297 0
M  V30 25 C -4.735676 -1.073900 1.996031 0
M  V30 26 O -1.253720 -0.584922 3.132901 0
M  V30 27 H 2.410119 1.560103 -0.815540 0
M  V30 28 H 5.139563 0.566743 -0.358602 0
M  V30 29 H 4.938415 -1.767825 -1.051715 0
M  V30 30 H 3.615519 -1.478537 0.216171 0
M  V30 31 H 1.904505 -1.623002 -1.302436 0
M  V30 32 H 3.133348 -2.306674 -2.445999 0
M  V30 33 H 2.835490 -0.471432 -3.762380 0
M  V30 34 H 1.965735 0.406834 -2.477133 0
M  V30 35 H 4.155611 1.561847 -2.612957 0
M  V30 36 H 4.847899 -0.519921 -3.801351 0
M  V30 37 H 1.083722 0.033112 5.390573 0
M  V30 38 H -1.752713 1.246677 5.723886 0
M  V30 39 H -3.998586 0.493035 4.384264 0
M  V30 40 H -1.610085 -2.061096 1.053465 0
M  V30 41 H -2.906058 -3.147078 -0.651541 0
M  V30 42 H -5.303810 -3.006194 -0.787607 0
M  V30 43 H -5.256836 -0.486674 2.743792 0
M  V30 END ATOM
M  V30 BEGIN BOND
M  V30 1 2 1 2
M  V30 2 1 2 3
M  V30 3 2 3 4
M  V30 4 1 4 5
M  V30 5 1 5 6
M  V30 6 1 6 7
M  V30 7 1 7 8
M  V30 8 1 8 9
M  V30 9 1 9 10
M  V30 10 1 10 11
M  V30 11 1 4 12
M  V30 12 1 12 13
M  V30 13 2 13 14
M  V30 14 1 14 15
M  V30 15 2 15 16
M  V30 16 1 16 17
M  V30 17 2 17 18
M  V30 18 1 18 19
M  V30 19 2 19 20
M  V30 20 1 20 21
M  V30 21 2 21 22
M  V30 22 1 22 23
M  V30 23 1 23 24
M  V30 24 2 23 25
M  V30 25 1 18 26
M  V30 26 1 13 2
M  V30 27 1 26 15
M  V30 28 1 10 6
M  V30 29 1 25 19
M  V30 30 1 5 27
M  V30 31 1 6 28 CFG=1
M  V30 32 1 7 29
M  V30 33 1 7 30
M  V30 34 1 8 31
M  V30 35 1 8 32
M  V30 36 1 9 33
M  V30 37 1 9 34
M  V30 38 1 10 35 CFG=1
M  V30 39 1 11 36
M  V30 40 1 14 37
M  V30 41 1 16 38
M  V30 42 1 17 39
M  V30 43 1 20 40
M  V30 44 1 21 41
M  V30 45 1 22 42
M  V30 46 1 25 43
M  V30 END BOND
M  V30 END CTAB
M  END
>  <Dataset>  (764) 
ChEMBL_Kinases

>  <Ligand_Instance>  (764) 
nan

>  <PDB_ID>  (764) 
nan

>  <Standardized_SMILES>  (764) 
O=C1N=C(N[C@H]2CCC[C@@H]2O)S/C1=C\c1ccc(-c2cccc(Cl)c2)o1

>  <Name>  (764) 
nan

>  <Pocket>  (764) 
nan

>  <ATP_Site>  (764) 
nan

>  <Peripheral>  (764) 
nan

>  <Num_H_Atoms_ProtBoundConf>  (764) 
nan

>  <Num_Resolved_Atoms>  (764) 
nan

>  <Num_Not_Resolved_Atoms>  (764) 
nan

$$$$
CHEMBL4760873
     RDKit          3D

  0  0  0  0  0  0  0  0  0  0999 V3000
M  V30 BEGIN CTAB
M  V30 COUNTS 75 79 0 0 0
M  V30 BEGIN ATOM
M  V30 1 C 1.863780 1.285497 4.702733 0
M  V30 2 C 1.715949 2.133054 3.481174 0
M  V30 3 C 2.370057 3.346706 3.342715 0
M  V30 4 C 2.219046 4.123528 2.190915 0
M  V30 5 C 1.412309 3.689420 1.171601 0
M  V30 6 C 1.268890 4.517636 -0.021354 0
M  V30 7 O 1.898198 5.606747 -0.030171 0
M  V30 8 N 0.474026 4.150078 -1.128155 0
M  V30 9 C 0.367962 5.019001 -2.293108 0
M  V30 10 C -0.982078 5.021641 -2.940737 0
M  V30 11 C 0.218041 4.417704 -3.643621 0
M  V30 12 C 0.775290 2.478905 1.338337 0
M  V30 13 C 0.895525 1.680651 2.457079 0
M  V30 14 N 0.202280 0.439263 2.561428 0
M  V30 15 C -0.901208 0.555642 3.351345 0
M  V30 16 C -1.691760 -0.561861 3.556201 0
M  V30 17 N -1.346863 -1.721684 2.971484 0
M  V30 18 C -0.267633 -1.837029 2.198426 0
M  V30 19 N 0.089911 -3.085884 1.575862 0
M  V30 20 C -0.773091 -4.224734 1.823071 0
M  V30 21 C -0.196584 -5.395118 1.039689 0
M  V30 22 C -0.805808 -4.651633 3.264216 0
M  V30 23 C -2.153412 -3.904069 1.374895 0
M  V30 24 C -3.225071 -3.909868 2.269441 0
M  V30 25 C -4.514611 -3.603489 1.859814 0
M  V30 26 C -4.752592 -3.283367 0.532446 0
M  V30 27 C -3.696362 -3.277310 -0.351296 0
M  V30 28 C -2.401866 -3.580703 0.039866 0
M  V30 29 O -1.300864 -3.592157 -0.805170 0
M  V30 30 C -1.320297 -3.298558 -2.172246 0
M  V30 31 C 0.104283 -3.447932 -2.682850 0
M  V30 32 N 1.023298 -2.567127 -2.024787 0
M  V30 33 C 0.837679 -1.181389 -2.317147 0
M  V30 34 C 1.618011 -0.902227 -3.588546 0
M  V30 35 C 2.521887 -2.083590 -3.753878 0
M  V30 36 C 2.356777 -2.858428 -2.473505 0
M  V30 37 C 0.516519 -0.737798 1.992730 0
M  V30 38 O 1.555590 -0.726201 1.285701 0
M  V30 39 H 1.082841 1.527444 5.467733 0
M  V30 40 H 1.854143 0.211944 4.505848 0
M  V30 41 H 2.842089 1.497502 5.224358 0
M  V30 42 H 3.008512 3.692442 4.146667 0
M  V30 43 H 2.745984 5.052938 2.132819 0
M  V30 44 H -0.047567 3.249778 -1.127424 0
M  V30 45 H 0.910869 5.965235 -2.265622 0
M  V30 46 H -1.775793 4.319320 -2.580721 0
M  V30 47 H -1.399788 5.977471 -3.333206 0
M  V30 48 H 0.311259 3.325487 -3.713456 0
M  V30 49 H 0.596167 4.962096 -4.511736 0
M  V30 50 H 0.125281 2.103527 0.543611 0
M  V30 51 H -1.254361 1.440455 3.859380 0
M  V30 52 H -2.592840 -0.540552 4.179498 0
M  V30 53 H 0.940687 -3.136912 0.975808 0
M  V30 54 H 0.500675 -5.026333 0.234949 0
M  V30 55 H 0.406736 -6.060328 1.679716 0
M  V30 56 H -0.997811 -5.954622 0.488062 0
M  V30 57 H -1.173254 -3.869381 3.958447 0
M  V30 58 H -1.474803 -5.533988 3.325139 0
M  V30 59 H 0.197894 -5.042539 3.576982 0
M  V30 60 H -3.084184 -4.152522 3.302275 0
M  V30 61 H -5.323512 -3.621507 2.604027 0
M  V30 62 H -5.759205 -3.052872 0.250126 0
M  V30 63 H -3.860754 -3.030451 -1.388359 0
M  V30 64 H -1.702239 -2.291455 -2.359634 0
M  V30 65 H -1.980152 -3.993383 -2.728798 0
M  V30 66 H 0.475769 -4.482700 -2.536258 0
M  V30 67 H 0.043923 -3.302489 -3.777190 0
M  V30 68 H 1.278410 -0.596497 -1.480108 0
M  V30 69 H -0.236609 -0.869776 -2.415106 0
M  V30 70 H 2.240536 0.011259 -3.489931 0
M  V30 71 H 0.922209 -0.810080 -4.444159 0
M  V30 72 H 2.262909 -2.703837 -4.637503 0
M  V30 73 H 3.594753 -1.775603 -3.892322 0
M  V30 74 H 3.130359 -2.641490 -1.719753 0
M  V30 75 H 2.371778 -3.962016 -2.707909 0
M  V30 END ATOM
M  V30 BEGIN BOND
M  V30 1 1 1 2
M  V30 2 2 2 3
M  V30 3 1 3 4
M  V30 4 2 4 5
M  V30 5 1 5 6
M  V30 6 2 6 7
M  V30 7 1 6 8
M  V30 8 1 8 9
M  V30 9 1 9 10
M  V30 10 1 10 11
M  V30 11 1 5 12
M  V30 12 2 12 13
M  V30 13 1 13 14
M  V30 14 1 14 15
M  V30 15 2 15 16
M  V30 16 1 16 17
M  V30 17 2 17 18
M  V30 18 1 18 19
M  V30 19 1 19 20
M  V30 20 1 20 21
M  V30 21 1 20 22
M  V30 22 1 20 23
M  V30 23 2 23 24
M  V30 24 1 24 25
M  V30 25 2 25 26
M  V30 26 1 26 27
M  V30 27 2 27 28
M  V30 28 1 28 29
M  V30 29 1 29 30
M  V30 30 1 30 31
M  V30 31 1 31 32
M  V30 32 1 32 33
M  V30 33 1 33 34
M  V30 34 1 34 35
M  V30 35 1 35 36
M  V30 36 1 18 37
M  V30 37 2 37 38
M  V30 38 1 13 2
M  V30 39 1 37 14
M  V30 40 1 11 9
M  V30 41 1 28 23
M  V30 42 1 36 32
M  V30 43 1 1 39
M  V30 44 1 1 40
M  V30 45 1 1 41
M  V30 46 1 3 42
M  V30 47 1 4 43
M  V30 48 1 8 44
M  V30 49 1 9 45
M  V30 50 1 10 46
M  V30 51 1 10 47
M  V30 52 1 11 48
M  V30 53 1 11 49
M  V30 54 1 12 50
M  V30 55 1 15 51
M  V30 56 1 16 52
M  V30 57 1 19 53
M  V30 58 1 21 54
M  V30 59 1 21 55
M  V30 60 1 21 56
M  V30 61 1 22 57
M  V30 62 1 22 58
M  V30 63 1 22 59
M  V30 64 1 24 60
M  V30 65 1 25 61
M  V30 66 1 26 62
M  V30 67 1 27 63
M  V30 68 1 30 64
M  V30 69 1 30 65
M  V30 70 1 31 66
M  V30 71 1 31 67
M  V30 72 1 33 68
M  V30 73 1 33 69
M  V30 74 1 34 70
M  V30 75 1 34 71
M  V30 76 1 35 72
M  V30 77 1 35 73
M  V30 78 1 36 74
M  V30 79 1 36 75
M  V30 END BOND
M  V30 END CTAB
M  END
>  <Dataset>  (765) 
ChEMBL_Kinases

>  <Ligand_Instance>  (765) 
nan

>  <PDB_ID>  (765) 
nan

>  <Standardized_SMILES>  (765) 
Cc1ccc(C(=O)NC2CC2)cc1-n1ccnc(NC(C)(C)c2ccccc2OCCN2CCCC2)c1=O

>  <Name>  (765) 
nan

>  <Pocket>  (765) 
nan

>  <ATP_Site>  (765) 
nan

>  <Peripheral>  (765) 
nan

>  <Num_H_Atoms_ProtBoundConf>  (765) 
nan

>  <Num_Resolved_Atoms>  (765) 
nan

>  <Num_Not_Resolved_Atoms>  (765) 
nan

$$$$
CHEMBL4760882
     RDKit          3D

  0  0  0  0  0  0  0  0  0  0999 V3000
M  V30 BEGIN CTAB
M  V30 COUNTS 53 55 0 0 0
M  V30 BEGIN ATOM
M  V30 1 N 5.259689 -5.955174 1.906383 0
M  V30 2 C 4.664876 -5.367409 1.123921 0
M  V30 3 C 3.903998 -4.644662 0.135853 0
M  V30 4 C 4.006144 -3.264836 0.044698 0
M  V30 5 N 3.300388 -2.566874 -0.875960 0
M  V30 6 C 2.484821 -3.202535 -1.721313 0
M  V30 7 N 1.811806 -2.338295 -2.629380 0
M  V30 8 C 0.569847 -1.888421 -2.104079 0
M  V30 9 C 0.405578 -0.749541 -1.351471 0
M  V30 10 C -0.861211 -0.443562 -0.911192 0
M  V30 11 N -1.015011 0.744761 -0.207762 0
M  V30 12 C 0.059265 1.594612 0.153359 0
M  V30 13 C 0.938780 1.099097 1.276789 0
M  V30 14 C 2.003708 2.141182 1.486862 0
M  V30 15 C 2.094078 2.582506 2.933961 0
M  V30 16 N 2.207958 1.437462 3.823925 0
M  V30 17 C 1.168025 0.463853 3.618143 0
M  V30 18 C 0.158090 0.932212 2.564416 0
M  V30 19 C -1.903357 -1.269419 -1.229628 0
M  V30 20 C -3.265406 -1.129669 -0.800963 0
M  V30 21 C -4.093290 -0.467263 -0.042959 0
M  V30 22 C -5.522487 -0.413484 0.323881 0
M  V30 23 C -5.630985 -0.651470 1.828214 0
M  V30 24 O -4.930985 0.324750 2.528077 0
M  V30 25 C -1.702079 -2.423218 -2.000314 0
M  V30 26 N -0.456742 -2.696051 -2.415796 0
M  V30 27 C 2.375607 -4.575427 -1.639369 0
M  V30 28 N 3.072670 -5.271764 -0.728996 0
M  V30 29 H 4.669316 -2.712355 0.726700 0
M  V30 30 H 2.148374 -2.047099 -3.565877 0
M  V30 31 H 1.335665 -0.258285 -1.232669 0
M  V30 32 H -1.741678 1.342324 0.218720 0
M  V30 33 H 0.764344 1.592521 -0.748637 0
M  V30 34 H -0.141696 2.676472 0.280051 0
M  V30 35 H 1.392977 0.153019 1.037905 0
M  V30 36 H 3.012543 1.772762 1.205873 0
M  V30 37 H 1.845671 3.058633 0.881167 0
M  V30 38 H 1.270731 3.261263 3.222594 0
M  V30 39 H 3.037192 3.153866 3.033572 0
M  V30 40 H 2.145196 1.798394 4.800792 0
M  V30 41 H 0.595798 0.298273 4.549825 0
M  V30 42 H 1.533064 -0.529019 3.291358 0
M  V30 43 H -0.559246 0.111925 2.444206 0
M  V30 44 H -0.384650 1.828293 2.871815 0
M  V30 45 H -4.053379 -1.789778 -1.212053 0
M  V30 46 H -3.531876 0.265559 0.503272 0
M  V30 47 H -5.926932 0.620836 0.149689 0
M  V30 48 H -6.109238 -1.170190 -0.209142 0
M  V30 49 H -5.121676 -1.621090 2.094922 0
M  V30 50 H -6.670660 -0.653388 2.166457 0
M  V30 51 H -4.241301 -0.017038 3.130094 0
M  V30 52 H -2.481669 -3.141047 -2.303469 0
M  V30 53 H 1.695422 -5.010194 -2.358861 0
M  V30 END ATOM
M  V30 BEGIN BOND
M  V30 1 3 1 2
M  V30 2 1 2 3
M  V30 3 2 3 4
M  V30 4 1 4 5
M  V30 5 2 5 6
M  V30 6 1 6 7
M  V30 7 1 7 8
M  V30 8 2 8 9
M  V30 9 1 9 10
M  V30 10 1 10 11
M  V30 11 1 11 12
M  V30 12 1 12 13
M  V30 13 1 13 14
M  V30 14 1 14 15
M  V30 15 1 15 16
M  V30 16 1 16 17
M  V30 17 1 17 18
M  V30 18 2 10 19
M  V30 19 1 19 20
M  V30 20 2 20 21
M  V30 21 1 21 22
M  V30 22 1 22 23
M  V30 23 1 23 24
M  V30 24 1 19 25
M  V30 25 2 25 26
M  V30 26 1 6 27
M  V30 27 2 27 28
M  V30 28 1 28 3
M  V30 29 1 26 8
M  V30 30 1 18 13
M  V30 31 1 4 29
M  V30 32 1 7 30
M  V30 33 1 9 31
M  V30 34 1 11 32
M  V30 35 1 12 33
M  V30 36 1 12 34
M  V30 37 1 13 35
M  V30 38 1 14 36
M  V30 39 1 14 37
M  V30 40 1 15 38
M  V30 41 1 15 39
M  V30 42 1 16 40
M  V30 43 1 17 41
M  V30 44 1 17 42
M  V30 45 1 18 43
M  V30 46 1 18 44
M  V30 47 1 20 45
M  V30 48 1 21 46
M  V30 49 1 22 47
M  V30 50 1 22 48
M  V30 51 1 23 49
M  V30 52 1 23 50
M  V30 53 1 24 51
M  V30 54 1 25 52
M  V30 55 1 27 53
M  V30 END BOND
M  V30 END CTAB
M  END
>  <Dataset>  (766) 
ChEMBL_Kinases

>  <Ligand_Instance>  (766) 
nan

>  <PDB_ID>  (766) 
nan

>  <Standardized_SMILES>  (766) 
N#Cc1cnc(Nc2cc(NCC3CCNCC3)c(/C=C/CCO)cn2)cn1

>  <Name>  (766) 
nan

>  <Pocket>  (766) 
nan

>  <ATP_Site>  (766) 
nan

>  <Peripheral>  (766) 
nan

>  <Num_H_Atoms_ProtBoundConf>  (766) 
nan

>  <Num_Resolved_Atoms>  (766) 
nan

>  <Num_Not_Resolved_Atoms>  (766) 
nan

$$$$
CHEMBL4760886
     RDKit          3D

  0  0  0  0  0  0  0  0  0  0999 V3000
M  V30 BEGIN CTAB
M  V30 COUNTS 49 52 0 0 0
M  V30 BEGIN ATOM
M  V30 1 N 4.857717 1.773480 1.233999 0
M  V30 2 C 3.569840 1.139856 1.057945 0
M  V30 3 N 3.430274 0.315660 2.144273 0
M  V30 4 C 2.289955 -0.427194 2.254270 0
M  V30 5 C 1.318814 -0.331432 1.281968 0
M  V30 6 C 0.057878 -1.063193 1.270717 0
M  V30 7 C -1.215740 -0.806011 0.799081 0
M  V30 8 N -1.981848 -1.852155 1.069358 0
M  V30 9 N -1.309629 -2.801116 1.693432 0
M  V30 10 C -1.753427 -4.085392 2.162624 0
M  V30 11 C -1.534998 -5.188618 1.160138 0
M  V30 12 C -1.776332 -6.487835 1.930739 0
M  V30 13 N -3.119538 -6.507336 2.467701 0
M  V30 14 C -3.420408 -5.400968 3.323453 0
M  V30 15 C -3.210829 -4.094962 2.547486 0
M  V30 16 C -0.041306 -2.340551 1.832484 0
M  V30 17 C 1.474160 0.500924 0.197037 0
M  V30 18 C 2.603327 1.270947 0.038230 0
M  V30 19 O 3.148086 2.172921 -0.815503 0
M  V30 20 C 2.633817 2.687199 -1.999874 0
M  V30 21 C 1.365198 3.431662 -1.882199 0
M  V30 22 C 1.513433 4.781537 -1.526596 0
M  V30 23 C 0.480422 5.675691 -1.371861 0
M  V30 24 C -0.808662 5.233548 -1.577006 0
M  V30 25 Cl -2.138879 6.350010 -1.386012 0
M  V30 26 C -0.992193 3.915982 -1.927104 0
M  V30 27 C 0.065391 3.055834 -2.071551 0
M  V30 28 H 4.951409 2.463685 1.998283 0
M  V30 29 H 5.382589 1.303678 0.456103 0
M  V30 30 H 2.045591 -1.114568 3.050735 0
M  V30 31 H -1.400992 0.149998 0.306795 0
M  V30 32 H -1.204150 -4.402143 3.096845 0
M  V30 33 H -2.287790 -5.180408 0.343718 0
M  V30 34 H -0.514088 -5.240826 0.764684 0
M  V30 35 H -1.065456 -6.438165 2.795486 0
M  V30 36 H -1.638575 -7.371018 1.301522 0
M  V30 37 H -3.189210 -7.386728 3.048026 0
M  V30 38 H -4.464177 -5.518802 3.659156 0
M  V30 39 H -2.729727 -5.321621 4.209723 0
M  V30 40 H -3.786597 -4.231925 1.602896 0
M  V30 41 H -3.524596 -3.223178 3.132277 0
M  V30 42 H 0.766058 -2.902825 2.315844 0
M  V30 43 H 0.834327 0.688789 -0.635351 0
M  V30 44 H 3.373779 3.385416 -2.498864 0
M  V30 45 H 2.438012 1.839692 -2.717078 0
M  V30 46 H 2.502846 5.221596 -1.343360 0
M  V30 47 H 0.634715 6.701622 -1.098627 0
M  V30 48 H -1.986069 3.527616 -2.097450 0
M  V30 49 H -0.049522 2.024177 -2.352988 0
M  V30 END ATOM
M  V30 BEGIN BOND
M  V30 1 1 1 2
M  V30 2 2 2 3
M  V30 3 1 3 4
M  V30 4 2 4 5
M  V30 5 1 5 6
M  V30 6 1 6 7
M  V30 7 2 7 8
M  V30 8 1 8 9
M  V30 9 1 9 10
M  V30 10 1 10 11
M  V30 11 1 11 12
M  V30 12 1 12 13
M  V30 13 1 13 14
M  V30 14 1 14 15
M  V30 15 1 9 16
M  V30 16 1 5 17
M  V30 17 2 17 18
M  V30 18 1 18 19
M  V30 19 1 19 20
M  V30 20 1 20 21
M  V30 21 2 21 22
M  V30 22 1 22 23
M  V30 23 2 23 24
M  V30 24 1 24 25
M  V30 25 1 24 26
M  V30 26 2 26 27
M  V30 27 1 18 2
M  V30 28 1 27 21
M  V30 29 2 16 6
M  V30 30 1 15 10
M  V30 31 1 1 28
M  V30 32 1 1 29
M  V30 33 1 4 30
M  V30 34 1 7 31
M  V30 35 1 10 32
M  V30 36 1 11 33
M  V30 37 1 11 34
M  V30 38 1 12 35
M  V30 39 1 12 36
M  V30 40 1 13 37
M  V30 41 1 14 38
M  V30 42 1 14 39
M  V30 43 1 15 40
M  V30 44 1 15 41
M  V30 45 1 16 42
M  V30 46 1 17 43
M  V30 47 1 20 44
M  V30 48 1 20 45
M  V30 49 1 22 46
M  V30 50 1 23 47
M  V30 51 1 26 48
M  V30 52 1 27 49
M  V30 END BOND
M  V30 END CTAB
M  END
>  <Dataset>  (767) 
ChEMBL_Kinases

>  <Ligand_Instance>  (767) 
nan

>  <PDB_ID>  (767) 
nan

>  <Standardized_SMILES>  (767) 
Nc1ncc(-c2cnn(C3CCNCC3)c2)cc1OCc1ccc(Cl)cc1

>  <Name>  (767) 
nan

>  <Pocket>  (767) 
nan

>  <ATP_Site>  (767) 
nan

>  <Peripheral>  (767) 
nan

>  <Num_H_Atoms_ProtBoundConf>  (767) 
nan

>  <Num_Resolved_Atoms>  (767) 
nan

>  <Num_Not_Resolved_Atoms>  (767) 
nan

$$$$
CHEMBL428213
     RDKit          3D

  0  0  0  0  0  0  0  0  0  0999 V3000
M  V30 BEGIN CTAB
M  V30 COUNTS 38 40 0 0 0
M  V30 BEGIN ATOM
M  V30 1 N -0.068862 -5.476409 -0.845253 0
M  V30 2 C 0.030478 -4.070760 -0.875237 0
M  V30 3 O -1.166408 -4.114722 -1.214407 0
M  V30 4 C 1.261242 -3.376673 -0.553489 0
M  V30 5 C 2.348059 -4.103445 -0.210172 0
M  V30 6 C 3.453763 -3.329475 0.073396 0
M  V30 7 C 3.438352 -1.938764 0.008569 0
M  V30 8 C 2.278071 -1.248322 -0.354174 0
M  V30 9 C 1.170968 -2.009186 -0.638786 0
M  V30 10 N -0.038852 -1.380064 -1.013971 0
M  V30 11 C -0.031010 0.039757 -1.072597 0
M  V30 12 C 0.308625 0.717061 -2.221305 0
M  V30 13 C 0.281010 2.093017 -2.161951 0
M  V30 14 N -0.058358 2.723396 -1.045824 0
M  V30 15 C -0.392745 2.102025 0.083766 0
M  V30 16 N -0.747878 2.834857 1.246643 0
M  V30 17 C -1.127606 2.344530 2.521627 0
M  V30 18 C -1.220555 1.020268 2.881108 0
M  V30 19 C -1.590432 0.546216 4.120704 0
M  V30 20 C -1.896327 1.470950 5.093699 0
M  V30 21 C -1.818214 2.808558 4.782860 0
M  V30 22 C -1.442966 3.228367 3.527564 0
M  V30 23 N -0.353148 0.768014 -0.016209 0
M  V30 24 H 0.589518 -6.150367 -0.366932 0
M  V30 25 H -0.213278 -6.493494 -0.871254 0
M  V30 26 H 2.363005 -5.163829 -0.159879 0
M  V30 27 H 4.391269 -3.817937 0.363662 0
M  V30 28 H 4.295992 -1.314923 0.227559 0
M  V30 29 H 2.272727 -0.181620 -0.402012 0
M  V30 30 H -0.958299 -1.798144 -1.260753 0
M  V30 31 H 0.581090 0.190643 -3.117178 0
M  V30 32 H 0.540409 2.679922 -3.040239 0
M  V30 33 H -0.724285 3.883637 1.141592 0
M  V30 34 H -0.991743 0.257186 2.156605 0
M  V30 35 H -1.641141 -0.520316 4.330281 0
M  V30 36 H -2.187921 1.109156 6.070564 0
M  V30 37 H -2.058241 3.545663 5.545749 0
M  V30 38 H -1.401592 4.304093 3.347853 0
M  V30 END ATOM
M  V30 BEGIN BOND
M  V30 1 1 1 2
M  V30 2 2 2 3
M  V30 3 1 2 4
M  V30 4 2 4 5
M  V30 5 1 5 6
M  V30 6 2 6 7
M  V30 7 1 7 8
M  V30 8 2 8 9
M  V30 9 1 9 10
M  V30 10 1 10 11
M  V30 11 2 11 12
M  V30 12 1 12 13
M  V30 13 2 13 14
M  V30 14 1 14 15
M  V30 15 1 15 16
M  V30 16 1 16 17
M  V30 17 2 17 18
M  V30 18 1 18 19
M  V30 19 2 19 20
M  V30 20 1 20 21
M  V30 21 2 21 22
M  V30 22 2 15 23
M  V30 23 1 9 4
M  V30 24 1 23 11
M  V30 25 1 22 17
M  V30 26 1 1 24
M  V30 27 1 1 25
M  V30 28 1 5 26
M  V30 29 1 6 27
M  V30 30 1 7 28
M  V30 31 1 8 29
M  V30 32 1 10 30
M  V30 33 1 12 31
M  V30 34 1 13 32
M  V30 35 1 16 33
M  V30 36 1 18 34
M  V30 37 1 19 35
M  V30 38 1 20 36
M  V30 39 1 21 37
M  V30 40 1 22 38
M  V30 END BOND
M  V30 END CTAB
M  END
>  <Dataset>  (768) 
ChEMBL_Kinases

>  <Ligand_Instance>  (768) 
nan

>  <PDB_ID>  (768) 
nan

>  <Standardized_SMILES>  (768) 
NC(=O)c1ccccc1Nc1ccnc(Nc2ccccc2)n1

>  <Name>  (768) 
nan

>  <Pocket>  (768) 
nan

>  <ATP_Site>  (768) 
nan

>  <Peripheral>  (768) 
nan

>  <Num_H_Atoms_ProtBoundConf>  (768) 
nan

>  <Num_Resolved_Atoms>  (768) 
nan

>  <Num_Not_Resolved_Atoms>  (768) 
nan

$$$$
CHEMBL4753216
     RDKit          3D

  0  0  0  0  0  0  0  0  0  0999 V3000
M  V30 BEGIN CTAB
M  V30 COUNTS 62 65 0 0 0
M  V30 BEGIN ATOM
M  V30 1 C 5.327987 -3.062059 3.687165 0
M  V30 2 C 4.507710 -3.709783 4.782527 0
M  V30 3 O 3.822000 -2.726008 5.553680 0
M  V30 4 C 2.925339 -1.905275 4.887250 0
M  V30 5 N 2.695820 -2.014897 3.575905 0
M  V30 6 C 1.836043 -1.237171 2.902673 0
M  V30 7 N 1.649097 -1.426546 1.508403 0
M  V30 8 C 0.849714 -0.733906 0.597167 0
M  V30 9 C 0.066037 0.360980 0.954698 0
M  V30 10 C -0.732411 1.080850 0.092077 0
M  V30 11 C -0.778903 0.709532 -1.239507 0
M  V30 12 C -1.622519 1.476578 -2.149617 0
M  V30 13 O -1.118703 1.994165 -3.203521 0
M  V30 14 N -3.024142 1.659257 -1.872233 0
M  V30 15 C -3.854396 1.208052 -0.797410 0
M  V30 16 C -5.098898 0.501068 -1.270556 0
M  V30 17 N -5.867402 1.347459 -2.166634 0
M  V30 18 C -7.021088 0.620634 -2.639580 0
M  V30 19 C -4.999401 1.631288 -3.313161 0
M  V30 20 C -3.829556 2.428679 -2.779492 0
M  V30 21 C -0.012964 -0.370879 -1.618701 0
M  V30 22 C 0.779395 -1.083284 -0.756028 0
M  V30 23 O 1.529916 -2.152739 -1.157414 0
M  V30 24 C 1.633487 -2.690279 -2.441840 0
M  V30 25 C 3.093663 -2.734440 -2.909578 0
M  V30 26 C 1.159031 -4.146363 -2.389223 0
M  V30 27 N 1.203320 -0.319333 3.641219 0
M  V30 28 C 1.354856 -0.122102 4.954980 0
M  V30 29 N 0.791034 0.749197 5.808750 0
M  V30 30 C 1.300074 0.525333 7.055179 0
M  V30 31 C 2.207050 -0.531540 6.917014 0
M  V30 32 C 2.247707 -0.943675 5.602966 0
M  V30 33 H 6.416924 -3.067851 3.974156 0
M  V30 34 H 5.075166 -1.996771 3.530701 0
M  V30 35 H 5.273628 -3.604210 2.721559 0
M  V30 36 H 3.796854 -4.404847 4.289320 0
M  V30 37 H 5.176606 -4.303724 5.428928 0
M  V30 38 H 2.201694 -2.221359 1.082998 0
M  V30 39 H 0.028335 0.735524 1.962955 0
M  V30 40 H -1.330200 1.927886 0.402316 0
M  V30 41 H -3.311916 0.481334 -0.140524 0
M  V30 42 H -4.159543 2.058212 -0.154240 0
M  V30 43 H -4.872347 -0.449050 -1.786622 0
M  V30 44 H -5.718907 0.237474 -0.394240 0
M  V30 45 H -6.945107 0.420898 -3.731145 0
M  V30 46 H -7.967556 1.218514 -2.534381 0
M  V30 47 H -7.181150 -0.351489 -2.154174 0
M  V30 48 H -4.687911 0.692535 -3.810822 0
M  V30 49 H -5.539294 2.273135 -4.052361 0
M  V30 50 H -3.270316 2.815013 -3.662259 0
M  V30 51 H -4.272433 3.302244 -2.234584 0
M  V30 52 H -0.084407 -0.620283 -2.665856 0
M  V30 53 H 1.052713 -2.198067 -3.221209 0
M  V30 54 H 3.735169 -2.782302 -2.004342 0
M  V30 55 H 3.330535 -1.856251 -3.544693 0
M  V30 56 H 3.235249 -3.653041 -3.494852 0
M  V30 57 H 0.943039 -4.433267 -3.442107 0
M  V30 58 H 2.043962 -4.754971 -2.094628 0
M  V30 59 H 0.295648 -4.268216 -1.713010 0
M  V30 60 H 0.079314 1.496285 5.621942 0
M  V30 61 H 1.052728 1.057057 7.967675 0
M  V30 62 H 2.783447 -0.955442 7.720049 0
M  V30 END ATOM
M  V30 BEGIN BOND
M  V30 1 1 1 2
M  V30 2 1 2 3
M  V30 3 1 3 4
M  V30 4 2 4 5
M  V30 5 1 5 6
M  V30 6 1 6 7
M  V30 7 1 7 8
M  V30 8 2 8 9
M  V30 9 1 9 10
M  V30 10 2 10 11
M  V30 11 1 11 12
M  V30 12 2 12 13
M  V30 13 1 12 14
M  V30 14 1 14 15
M  V30 15 1 15 16
M  V30 16 1 16 17
M  V30 17 1 17 18
M  V30 18 1 17 19
M  V30 19 1 19 20
M  V30 20 1 11 21
M  V30 21 2 21 22
M  V30 22 1 22 23
M  V30 23 1 23 24
M  V30 24 1 24 25
M  V30 25 1 24 26
M  V30 26 2 6 27
M  V30 27 1 27 28
M  V30 28 1 28 29
M  V30 29 1 29 30
M  V30 30 2 30 31
M  V30 31 1 31 32
M  V30 32 1 32 4
M  V30 33 1 22 8
M  V30 34 2 32 28
M  V30 35 1 20 14
M  V30 36 1 1 33
M  V30 37 1 1 34
M  V30 38 1 1 35
M  V30 39 1 2 36
M  V30 40 1 2 37
M  V30 41 1 7 38
M  V30 42 1 9 39
M  V30 43 1 10 40
M  V30 44 1 15 41
M  V30 45 1 15 42
M  V30 46 1 16 43
M  V30 47 1 16 44
M  V30 48 1 18 45
M  V30 49 1 18 46
M  V30 50 1 18 47
M  V30 51 1 19 48
M  V30 52 1 19 49
M  V30 53 1 20 50
M  V30 54 1 20 51
M  V30 55 1 21 52
M  V30 56 1 24 53
M  V30 57 1 25 54
M  V30 58 1 25 55
M  V30 59 1 25 56
M  V30 60 1 26 57
M  V30 61 1 26 58
M  V30 62 1 26 59
M  V30 63 1 29 60
M  V30 64 1 30 61
M  V30 65 1 31 62
M  V30 END BOND
M  V30 END CTAB
M  END
>  <Dataset>  (769) 
ChEMBL_Kinases

>  <Ligand_Instance>  (769) 
nan

>  <PDB_ID>  (769) 
nan

>  <Standardized_SMILES>  (769) 
CCOc1nc(Nc2ccc(C(=O)N3CCN(C)CC3)cc2OC(C)C)nc2[nH]ccc12

>  <Name>  (769) 
nan

>  <Pocket>  (769) 
nan

>  <ATP_Site>  (769) 
nan

>  <Peripheral>  (769) 
nan

>  <Num_H_Atoms_ProtBoundConf>  (769) 
nan

>  <Num_Resolved_Atoms>  (769) 
nan

>  <Num_Not_Resolved_Atoms>  (769) 
nan

$$$$
CHEMBL4753218
     RDKit          3D

  0  0  0  0  0  0  0  0  0  0999 V3000
M  V30 BEGIN CTAB
M  V30 COUNTS 54 57 0 0 0
M  V30 BEGIN ATOM
M  V30 1 C 3.444861 -4.588131 -0.269521 0
M  V30 2 N 4.727062 -4.532665 0.364526 0
M  V30 3 C 4.593852 -4.611100 1.804809 0
M  V30 4 C 4.482420 -3.097427 2.174928 0
M  V30 5 C 5.541562 -2.522680 1.306362 0 CFG=2
M  V30 6 C 5.710077 -1.076386 1.168283 0
M  V30 7 N 4.671191 -0.258671 0.677205 0
M  V30 8 C 3.379669 0.120245 1.086642 0
M  V30 9 O 2.953628 -0.324764 2.166016 0
M  V30 10 C 2.520861 1.014295 0.295096 0
M  V30 11 C 1.302289 1.432495 0.580906 0
M  V30 12 C 0.676473 2.264552 -0.294989 0
M  V30 13 N -0.653073 2.816355 -0.141317 0
M  V30 14 C -1.796925 2.111481 -0.051931 0
M  V30 15 C -2.868512 2.964902 0.086717 0
M  V30 16 N -4.256009 2.685419 0.215951 0
M  V30 17 C -4.806154 1.378982 0.223680 0
M  V30 18 O -4.054902 0.377414 0.111786 0
M  V30 19 N -6.193827 1.105319 0.353095 0
M  V30 20 C -6.583628 -0.266295 0.342295 0
M  V30 21 C -6.626563 -0.901739 1.582307 0
M  V30 22 C -6.981084 -2.221724 1.758466 0
M  V30 23 C -7.312414 -2.946203 0.618299 0
M  V30 24 C -7.280455 -2.342652 -0.639213 0
M  V30 25 C -6.918686 -1.016816 -0.764750 0
M  V30 26 Cl -6.859638 -0.209366 -2.299923 0
M  V30 27 C -2.314904 4.227807 0.076898 0
M  V30 28 N -0.967267 4.117897 -0.062526 0
M  V30 29 C 1.336432 2.637431 -1.442777 0
M  V30 30 S 2.990453 1.729861 -1.267547 0
M  V30 31 C 5.382066 -3.300332 0.008131 0
M  V30 32 H 3.461658 -4.234456 -1.314967 0
M  V30 33 H 2.714170 -3.960802 0.258114 0
M  V30 34 H 3.143562 -5.672825 -0.273993 0
M  V30 35 H 3.615791 -5.081110 2.026029 0
M  V30 36 H 5.445210 -5.077064 2.315503 0
M  V30 37 H 3.448454 -2.846607 1.924922 0
M  V30 38 H 4.663487 -3.045667 3.262921 0
M  V30 39 H 6.531741 -2.905543 1.748461 0
M  V30 40 H 6.028358 -0.607288 2.174367 0
M  V30 41 H 6.663593 -0.910342 0.573539 0
M  V30 42 H 4.905897 0.205032 -0.254191 0
M  V30 43 H 0.791374 1.124615 1.501333 0
M  V30 44 H -1.835829 1.052382 -0.086423 0
M  V30 45 H -4.943659 3.445794 0.312740 0
M  V30 46 H -6.865435 1.900583 0.449537 0
M  V30 47 H -6.372200 -0.362686 2.501317 0
M  V30 48 H -7.002418 -2.680286 2.740600 0
M  V30 49 H -7.604756 -4.004510 0.686207 0
M  V30 50 H -7.528584 -2.860249 -1.557117 0
M  V30 51 H -2.792601 5.215605 0.160717 0
M  V30 52 H 1.030788 3.298833 -2.293047 0
M  V30 53 H 6.356982 -3.526196 -0.467507 0
M  V30 54 H 4.796518 -2.758172 -0.748266 0
M  V30 END ATOM
M  V30 BEGIN BOND
M  V30 1 1 1 2
M  V30 2 1 2 3
M  V30 3 1 3 4
M  V30 4 1 4 5
M  V30 5 1 5 6
M  V30 6 1 6 7
M  V30 7 1 7 8
M  V30 8 2 8 9
M  V30 9 1 8 10
M  V30 10 2 10 11
M  V30 11 1 11 12
M  V30 12 1 12 13
M  V30 13 1 13 14
M  V30 14 2 14 15
M  V30 15 1 15 16
M  V30 16 1 16 17
M  V30 17 2 17 18
M  V30 18 1 17 19
M  V30 19 1 19 20
M  V30 20 2 20 21
M  V30 21 1 21 22
M  V30 22 2 22 23
M  V30 23 1 23 24
M  V30 24 2 24 25
M  V30 25 1 25 26
M  V30 26 1 15 27
M  V30 27 2 27 28
M  V30 28 2 12 29
M  V30 29 1 29 30
M  V30 30 1 5 31
M  V30 31 1 31 2
M  V30 32 1 30 10
M  V30 33 1 28 13
M  V30 34 1 25 20
M  V30 35 1 1 32
M  V30 36 1 1 33
M  V30 37 1 1 34
M  V30 38 1 3 35
M  V30 39 1 3 36
M  V30 40 1 4 37
M  V30 41 1 4 38
M  V30 42 1 5 39 CFG=1
M  V30 43 1 6 40
M  V30 44 1 6 41
M  V30 45 1 7 42
M  V30 46 1 11 43
M  V30 47 1 14 44
M  V30 48 1 16 45
M  V30 49 1 19 46
M  V30 50 1 21 47
M  V30 51 1 22 48
M  V30 52 1 23 49
M  V30 53 1 24 50
M  V30 54 1 27 51
M  V30 55 1 29 52
M  V30 56 1 31 53
M  V30 57 1 31 54
M  V30 END BOND
M  V30 END CTAB
M  END
>  <Dataset>  (770) 
ChEMBL_Kinases

>  <Ligand_Instance>  (770) 
nan

>  <PDB_ID>  (770) 
nan

>  <Standardized_SMILES>  (770) 
CN1CC[C@H](CNC(=O)c2cc(-n3cc(NC(=O)Nc4ccccc4Cl)cn3)cs2)C1

>  <Name>  (770) 
nan

>  <Pocket>  (770) 
nan

>  <ATP_Site>  (770) 
nan

>  <Peripheral>  (770) 
nan

>  <Num_H_Atoms_ProtBoundConf>  (770) 
nan

>  <Num_Resolved_Atoms>  (770) 
nan

>  <Num_Not_Resolved_Atoms>  (770) 
nan

$$$$
CHEMBL475325
     RDKit          3D

  0  0  0  0  0  0  0  0  0  0999 V3000
M  V30 BEGIN CTAB
M  V30 COUNTS 34 37 0 0 0
M  V30 BEGIN ATOM
M  V30 1 O 2.848341 -5.164096 -0.436579 0
M  V30 2 C 2.722115 -4.004677 0.006156 0
M  V30 3 N 3.719704 -3.152522 0.599033 0
M  V30 4 C 3.121447 -1.928275 0.952459 0
M  V30 5 O 3.868192 -1.093423 1.476735 0
M  V30 6 C 1.730428 -1.936052 0.608051 0
M  V30 7 C 1.515707 -3.172503 0.050209 0
M  V30 8 C 0.250746 -3.549962 -0.414320 0
M  V30 9 C -0.778041 -2.638989 -0.294499 0
M  V30 10 C -0.552644 -1.401659 0.266326 0
M  V30 11 C 0.697426 -1.057601 0.713550 0
M  V30 12 C 0.677420 0.204097 1.224137 0
M  V30 13 C 1.500589 1.121254 1.800791 0
M  V30 14 C 1.134863 2.365106 2.219281 0
M  V30 15 O 2.008871 3.272014 2.804218 0
M  V30 16 C -0.195979 2.766955 2.057003 0
M  V30 17 C -1.067765 1.868498 1.476066 0
M  V30 18 C -0.627143 0.623239 1.075373 0
M  V30 19 N -1.375161 -0.359660 0.490292 0
M  V30 20 C -2.775745 -0.334171 0.157160 0
M  V30 21 C -3.060617 0.184007 -1.224849 0
M  V30 22 O -4.455049 0.147210 -1.396686 0
M  V30 23 H 4.704786 -3.525850 0.688157 0
M  V30 24 H 0.062069 -4.511632 -0.853504 0
M  V30 25 H -1.768129 -2.882928 -0.637043 0
M  V30 26 H 2.524915 0.901825 1.962412 0
M  V30 27 H 2.800098 3.606992 2.301504 0
M  V30 28 H -0.507824 3.750254 2.382256 0
M  V30 29 H -2.100059 2.161156 1.342408 0
M  V30 30 H -3.300508 0.242276 0.946138 0
M  V30 31 H -3.165656 -1.368965 0.246671 0
M  V30 32 H -2.671357 -0.547474 -1.963015 0
M  V30 33 H -2.604267 1.143281 -1.447299 0
M  V30 34 H -4.883377 0.728789 -0.720349 0
M  V30 END ATOM
M  V30 BEGIN BOND
M  V30 1 2 1 2
M  V30 2 1 2 3
M  V30 3 1 3 4
M  V30 4 2 4 5
M  V30 5 1 4 6
M  V30 6 2 6 7
M  V30 7 1 7 8
M  V30 8 2 8 9
M  V30 9 1 9 10
M  V30 10 2 10 11
M  V30 11 1 11 12
M  V30 12 2 12 13
M  V30 13 1 13 14
M  V30 14 1 14 15
M  V30 15 2 14 16
M  V30 16 1 16 17
M  V30 17 2 17 18
M  V30 18 1 18 19
M  V30 19 1 19 20
M  V30 20 1 20 21
M  V30 21 1 21 22
M  V30 22 1 7 2
M  V30 23 1 19 10
M  V30 24 1 11 6
M  V30 25 1 18 12
M  V30 26 1 3 23
M  V30 27 1 8 24
M  V30 28 1 9 25
M  V30 29 1 13 26
M  V30 30 1 15 27
M  V30 31 1 16 28
M  V30 32 1 17 29
M  V30 33 1 20 30
M  V30 34 1 20 31
M  V30 35 1 21 32
M  V30 36 1 21 33
M  V30 37 1 22 34
M  V30 END BOND
M  V30 END CTAB
M  END
>  <Dataset>  (771) 
ChEMBL_Kinases

>  <Ligand_Instance>  (771) 
nan

>  <PDB_ID>  (771) 
nan

>  <Standardized_SMILES>  (771) 
O=C1NC(=O)c2c1ccc1c2c2cc(O)ccc2n1CCO

>  <Name>  (771) 
nan

>  <Pocket>  (771) 
nan

>  <ATP_Site>  (771) 
nan

>  <Peripheral>  (771) 
nan

>  <Num_H_Atoms_ProtBoundConf>  (771) 
nan

>  <Num_Resolved_Atoms>  (771) 
nan

>  <Num_Not_Resolved_Atoms>  (771) 
nan

$$$$
CHEMBL4436378
     RDKit          3D

  0  0  0  0  0  0  0  0  0  0999 V3000
M  V30 BEGIN CTAB
M  V30 COUNTS 54 57 0 0 0
M  V30 BEGIN ATOM
M  V30 1 C 1.187393 -2.373066 4.123948 0
M  V30 2 C 2.482414 -1.727735 3.807777 0 CFG=2
M  V30 3 C 3.075807 -0.997575 5.003235 0
M  V30 4 O 4.447015 -0.892990 4.809371 0
M  V30 5 C 4.753614 -0.562648 3.486683 0
M  V30 6 C 3.603976 0.182168 2.832027 0
M  V30 7 N 2.486628 -0.773834 2.717563 0
M  V30 8 C 1.627419 -0.576080 1.588599 0
M  V30 9 C 1.644535 0.686464 1.040007 0
M  V30 10 C 0.805865 0.868286 -0.061608 0
M  V30 11 C -0.004462 -0.096151 -0.613740 0
M  V30 12 O -0.834876 0.001276 -1.669668 0
M  V30 13 C -1.180864 1.020792 -2.537454 0
M  V30 14 C -1.817341 2.209375 -1.966659 0
M  V30 15 C -1.383594 3.445227 -1.537620 0
M  V30 16 C -2.258296 4.371221 -1.027413 0
M  V30 17 C -3.613401 4.135228 -0.910697 0
M  V30 18 C -4.085196 2.901246 -1.334127 0
M  V30 19 C -3.194836 1.974174 -1.845962 0
M  V30 20 C 0.000406 -1.355884 -0.042134 0
M  V30 21 C -0.734996 -2.568918 -0.387441 0
M  V30 22 O -0.638349 -3.668243 0.217828 0
M  V30 23 N -1.662301 -2.748253 -1.425616 0
M  V30 24 C -2.265357 -4.024046 -1.583178 0
M  V30 25 C -1.692294 -4.991130 -2.389587 0
M  V30 26 C -2.337930 -6.218195 -2.496091 0
M  V30 27 N -3.480743 -6.473965 -1.844896 0
M  V30 28 N -4.019489 -5.536849 -1.074514 0
M  V30 29 C -3.451319 -4.305915 -0.915976 0
M  V30 30 C 0.837182 -1.561035 1.066985 0
M  V30 31 H 0.350892 -1.744416 3.765554 0
M  V30 32 H 1.028914 -3.397092 3.765774 0
M  V30 33 H 1.009418 -2.440653 5.243568 0
M  V30 34 H 3.222167 -2.547545 3.575123 0
M  V30 35 H 2.797288 -1.481453 5.938836 0
M  V30 36 H 2.656365 0.027055 4.981888 0
M  V30 37 H 5.612857 0.152679 3.542514 0
M  V30 38 H 5.118110 -1.426696 2.896155 0
M  V30 39 H 3.380770 1.056850 3.416667 0
M  V30 40 H 3.927668 0.511094 1.827870 0
M  V30 41 H 2.238678 1.520647 1.382540 0
M  V30 42 H 0.798403 1.840064 -0.513831 0
M  V30 43 H -1.712555 0.648220 -3.450470 0
M  V30 44 H -0.203176 1.409869 -2.983237 0
M  V30 45 H -0.319141 3.535916 -1.676895 0
M  V30 46 H -1.784722 5.305925 -0.727528 0
M  V30 47 H -4.157531 4.972358 -0.489877 0
M  V30 48 H -5.150475 2.779666 -1.216319 0
M  V30 49 H -3.753780 1.068671 -2.124124 0
M  V30 50 H -1.874293 -1.935879 -2.041435 0
M  V30 51 H -0.773872 -4.720749 -2.884935 0
M  V30 52 H -1.864237 -6.969197 -3.140882 0
M  V30 53 H -3.876490 -3.529762 -0.290696 0
M  V30 54 H 0.923090 -2.501969 1.582795 0
M  V30 END ATOM
M  V30 BEGIN BOND
M  V30 1 1 1 2
M  V30 2 1 2 3
M  V30 3 1 3 4
M  V30 4 1 4 5
M  V30 5 1 5 6
M  V30 6 1 6 7
M  V30 7 1 7 8
M  V30 8 2 8 9
M  V30 9 1 9 10
M  V30 10 2 10 11
M  V30 11 1 11 12
M  V30 12 1 12 13
M  V30 13 1 13 14
M  V30 14 2 14 15
M  V30 15 1 15 16
M  V30 16 2 16 17
M  V30 17 1 17 18
M  V30 18 2 18 19
M  V30 19 1 11 20
M  V30 20 1 20 21
M  V30 21 2 21 22
M  V30 22 1 21 23
M  V30 23 1 23 24
M  V30 24 2 24 25
M  V30 25 1 25 26
M  V30 26 2 26 27
M  V30 27 1 27 28
M  V30 28 2 28 29
M  V30 29 2 20 30
M  V30 30 1 7 2
M  V30 31 1 30 8
M  V30 32 1 19 14
M  V30 33 1 29 24
M  V30 34 1 1 31
M  V30 35 1 1 32
M  V30 36 1 1 33
M  V30 37 1 2 34 CFG=3
M  V30 38 1 3 35
M  V30 39 1 3 36
M  V30 40 1 5 37
M  V30 41 1 5 38
M  V30 42 1 6 39
M  V30 43 1 6 40
M  V30 44 1 9 41
M  V30 45 1 10 42
M  V30 46 1 13 43
M  V30 47 1 13 44
M  V30 48 1 15 45
M  V30 49 1 16 46
M  V30 50 1 17 47
M  V30 51 1 18 48
M  V30 52 1 19 49
M  V30 53 1 23 50
M  V30 54 1 25 51
M  V30 55 1 26 52
M  V30 56 1 29 53
M  V30 57 1 30 54
M  V30 END BOND
M  V30 END CTAB
M  END
>  <Dataset>  (772) 
ChEMBL_Kinases

>  <Ligand_Instance>  (772) 
nan

>  <PDB_ID>  (772) 
nan

>  <Standardized_SMILES>  (772) 
C[C@@H]1COCCN1c1ccc(OCc2ccccc2)c(C(=O)Nc2ccnnc2)c1

>  <Name>  (772) 
nan

>  <Pocket>  (772) 
nan

>  <ATP_Site>  (772) 
nan

>  <Peripheral>  (772) 
nan

>  <Num_H_Atoms_ProtBoundConf>  (772) 
nan

>  <Num_Resolved_Atoms>  (772) 
nan

>  <Num_Not_Resolved_Atoms>  (772) 
nan

$$$$
CHEMBL4753256
     RDKit          3D

  0  0  0  0  0  0  0  0  0  0999 V3000
M  V30 BEGIN CTAB
M  V30 COUNTS 55 58 0 0 0
M  V30 BEGIN ATOM
M  V30 1 C 1.304272 -4.339090 3.343566 0
M  V30 2 C 2.416955 -3.867740 2.449779 0
M  V30 3 O 2.955879 -4.865529 1.913956 0
M  V30 4 N 2.800694 -2.519368 2.241060 0
M  V30 5 C 3.880480 -2.162881 1.365211 0 CFG=2
M  V30 6 C 5.013095 -1.438196 2.000280 0
M  V30 7 C 4.435453 -0.243995 2.694774 0
M  V30 8 C 4.003293 0.709809 1.611213 0
M  V30 9 C 3.159298 0.112321 0.559546 0 CFG=2
M  V30 10 C 1.687508 0.349979 0.796535 0
M  V30 11 O 0.725862 -0.477756 0.961398 0
M  V30 12 N 1.159578 1.678024 0.868891 0
M  V30 13 C -0.261932 1.579335 1.101108 0
M  V30 14 C -1.230740 1.513207 0.115508 0
M  V30 15 C -2.545159 1.421606 0.527076 0
M  V30 16 C -3.537280 1.353858 -0.557396 0
M  V30 17 C -4.255641 2.287666 -1.266579 0
M  V30 18 N -5.028959 1.640457 -2.157789 0
M  V30 19 N -4.797213 0.344133 -2.005941 0
M  V30 20 C -3.887589 0.086818 -1.036409 0
M  V30 21 C -3.708418 -1.401985 -0.956734 0
M  V30 22 C -4.195873 -1.892002 -2.300690 0
M  V30 23 C -3.070486 -1.812427 -3.329729 0
M  V30 24 C -5.269539 -0.870635 -2.613579 0
M  V30 25 C -2.877439 1.397129 1.877025 0
M  V30 26 Cl -4.572289 1.279191 2.313039 0
M  V30 27 C -1.865441 1.466304 2.825251 0
M  V30 28 N -0.585854 1.555474 2.411160 0
M  V30 29 C 3.313800 -1.322891 0.254854 0
M  V30 30 H 1.688160 -4.766925 4.293504 0
M  V30 31 H 0.656442 -3.480829 3.663512 0
M  V30 32 H 0.616760 -5.020977 2.807616 0
M  V30 33 H 2.187177 -1.894396 2.808386 0
M  V30 34 H 4.270745 -3.137904 0.958496 0
M  V30 35 H 5.652406 -1.044541 1.179571 0
M  V30 36 H 5.658596 -2.069808 2.636319 0
M  V30 37 H 5.187211 0.178598 3.367079 0
M  V30 38 H 3.552593 -0.472482 3.329141 0
M  V30 39 H 3.471838 1.545053 2.156025 0
M  V30 40 H 4.919449 1.176631 1.193428 0
M  V30 41 H 3.361712 0.692666 -0.389482 0
M  V30 42 H 1.798328 2.522403 0.756394 0
M  V30 43 H -0.875804 1.538954 -0.894984 0
M  V30 44 H -4.046600 3.299689 -0.960932 0
M  V30 45 H -4.333906 -1.858681 -0.185706 0
M  V30 46 H -2.615313 -1.644141 -0.844886 0
M  V30 47 H -4.608011 -2.927090 -2.264094 0
M  V30 48 H -2.479490 -0.890009 -3.138636 0
M  V30 49 H -3.493740 -1.829427 -4.361771 0
M  V30 50 H -2.427144 -2.713152 -3.170233 0
M  V30 51 H -6.263899 -1.182973 -2.237420 0
M  V30 52 H -5.395372 -0.774840 -3.724444 0
M  V30 53 H -2.117400 1.447703 3.874350 0
M  V30 54 H 2.372950 -1.751788 -0.148143 0
M  V30 55 H 4.041082 -1.443485 -0.602227 0
M  V30 END ATOM
M  V30 BEGIN BOND
M  V30 1 1 1 2
M  V30 2 2 2 3
M  V30 3 1 2 4
M  V30 4 1 4 5
M  V30 5 1 5 6
M  V30 6 1 6 7
M  V30 7 1 7 8
M  V30 8 1 8 9
M  V30 9 1 9 10
M  V30 10 2 10 11
M  V30 11 1 10 12
M  V30 12 1 12 13
M  V30 13 2 13 14
M  V30 14 1 14 15
M  V30 15 1 15 16
M  V30 16 1 16 17
M  V30 17 2 17 18
M  V30 18 1 18 19
M  V30 19 1 19 20
M  V30 20 1 20 21
M  V30 21 1 21 22
M  V30 22 1 22 23
M  V30 23 1 22 24
M  V30 24 2 15 25
M  V30 25 1 25 26
M  V30 26 1 25 27
M  V30 27 2 27 28
M  V30 28 1 9 29
M  V30 29 1 29 5
M  V30 30 1 28 13
M  V30 31 2 20 16
M  V30 32 1 24 19
M  V30 33 1 1 30
M  V30 34 1 1 31
M  V30 35 1 1 32
M  V30 36 1 4 33
M  V30 37 1 5 34 CFG=3
M  V30 38 1 6 35
M  V30 39 1 6 36
M  V30 40 1 7 37
M  V30 41 1 7 38
M  V30 42 1 8 39
M  V30 43 1 8 40
M  V30 44 1 9 41 CFG=3
M  V30 45 1 12 42
M  V30 46 1 14 43
M  V30 47 1 17 44
M  V30 48 1 21 45
M  V30 49 1 21 46
M  V30 50 1 22 47
M  V30 51 1 23 48
M  V30 52 1 23 49
M  V30 53 1 23 50
M  V30 54 1 24 51
M  V30 55 1 24 52
M  V30 56 1 27 53
M  V30 57 1 29 54
M  V30 58 1 29 55
M  V30 END BOND
M  V30 END CTAB
M  END
>  <Dataset>  (773) 
ChEMBL_Kinases

>  <Ligand_Instance>  (773) 
nan

>  <PDB_ID>  (773) 
nan

>  <Standardized_SMILES>  (773) 
CC(=O)N[C@@H]1CCC[C@H](C(=O)Nc2cc(-c3cnn4c3CC(C)C4)c(Cl)cn2)C1

>  <Name>  (773) 
nan

>  <Pocket>  (773) 
nan

>  <ATP_Site>  (773) 
nan

>  <Peripheral>  (773) 
nan

>  <Num_H_Atoms_ProtBoundConf>  (773) 
nan

>  <Num_Resolved_Atoms>  (773) 
nan

>  <Num_Not_Resolved_Atoms>  (773) 
nan

$$$$
CHEMBL4436323
     RDKit          3D

  0  0  0  0  0  0  0  0  0  0999 V3000
M  V30 BEGIN CTAB
M  V30 COUNTS 35 37 0 0 0
M  V30 BEGIN ATOM
M  V30 1 N 0.054377 -3.871646 1.890515 0
M  V30 2 C 0.483290 -2.523781 1.633611 0
M  V30 3 N 1.616516 -2.096587 2.214713 0
M  V30 4 C 2.084893 -0.858023 2.028174 0
M  V30 5 C 1.421587 0.069017 1.214975 0
M  V30 6 C 1.950174 1.416518 1.024476 0
M  V30 7 C 1.778974 2.158345 -0.150363 0
M  V30 8 C 2.317680 3.425880 -0.233489 0
M  V30 9 F 2.164980 4.163462 -1.361444 0
M  V30 10 C 2.997717 3.895943 0.847606 0
M  V30 11 O 3.547902 5.176914 0.776960 0
M  V30 12 C 3.210153 3.222761 2.046045 0
M  V30 13 F 3.898951 3.753496 3.083703 0
M  V30 14 C 2.649870 1.949001 2.085706 0
M  V30 15 C 0.258223 -0.381043 0.623009 0
M  V30 16 C -0.237127 -1.655739 0.806219 0
M  V30 17 C -1.467159 -2.127375 0.178559 0
M  V30 18 C -2.402439 -2.841424 0.901017 0
M  V30 19 C -3.594391 -3.309691 0.334672 0
M  V30 20 F -4.528658 -4.003105 0.988598 0
M  V30 21 C -3.719140 -2.980117 -0.998721 0
M  V30 22 O -4.904786 -3.430614 -1.612525 0
M  V30 23 C -2.846375 -2.275682 -1.801371 0
M  V30 24 F -3.144443 -2.047984 -3.102843 0
M  V30 25 C -1.695861 -1.848304 -1.171956 0
M  V30 26 H -0.189069 -3.959802 2.884285 0
M  V30 27 H 0.014713 -4.606174 1.150008 0
M  V30 28 H 3.000958 -0.580029 2.525048 0
M  V30 29 H 1.223427 1.702416 -0.958456 0
M  V30 30 H 4.425934 5.260256 0.269048 0
M  V30 31 H 2.796234 1.389569 3.011953 0
M  V30 32 H -0.283807 0.282751 -0.004023 0
M  V30 33 H -2.232492 -3.066449 1.963007 0
M  V30 34 H -5.782438 -2.983187 -1.307163 0
M  V30 35 H -0.974206 -1.291025 -1.750262 0
M  V30 END ATOM
M  V30 BEGIN BOND
M  V30 1 1 1 2
M  V30 2 2 2 3
M  V30 3 1 3 4
M  V30 4 2 4 5
M  V30 5 1 5 6
M  V30 6 2 6 7
M  V30 7 1 7 8
M  V30 8 1 8 9
M  V30 9 2 8 10
M  V30 10 1 10 11
M  V30 11 1 10 12
M  V30 12 1 12 13
M  V30 13 2 12 14
M  V30 14 1 5 15
M  V30 15 2 15 16
M  V30 16 1 16 17
M  V30 17 2 17 18
M  V30 18 1 18 19
M  V30 19 1 19 20
M  V30 20 2 19 21
M  V30 21 1 21 22
M  V30 22 1 21 23
M  V30 23 1 23 24
M  V30 24 2 23 25
M  V30 25 1 16 2
M  V30 26 1 25 17
M  V30 27 1 14 6
M  V30 28 1 1 26
M  V30 29 1 1 27
M  V30 30 1 4 28
M  V30 31 1 7 29
M  V30 32 1 11 30
M  V30 33 1 14 31
M  V30 34 1 15 32
M  V30 35 1 18 33
M  V30 36 1 22 34
M  V30 37 1 25 35
M  V30 END BOND
M  V30 END CTAB
M  END
>  <Dataset>  (774) 
ChEMBL_Kinases

>  <Ligand_Instance>  (774) 
nan

>  <PDB_ID>  (774) 
nan

>  <Standardized_SMILES>  (774) 
Nc1ncc(-c2cc(F)c(O)c(F)c2)cc1-c1cc(F)c(O)c(F)c1

>  <Name>  (774) 
nan

>  <Pocket>  (774) 
nan

>  <ATP_Site>  (774) 
nan

>  <Peripheral>  (774) 
nan

>  <Num_H_Atoms_ProtBoundConf>  (774) 
nan

>  <Num_Resolved_Atoms>  (774) 
nan

>  <Num_Not_Resolved_Atoms>  (774) 
nan

$$$$
CHEMBL4753270
     RDKit          3D

  0  0  0  0  0  0  0  0  0  0999 V3000
M  V30 BEGIN CTAB
M  V30 COUNTS 42 44 0 0 0
M  V30 BEGIN ATOM
M  V30 1 C 1.333353 -5.097290 -0.673463 0
M  V30 2 C 1.851365 -4.175414 0.427348 0
M  V30 3 C 0.795469 -3.149237 0.716063 0
M  V30 4 N 3.148147 -3.654224 0.139561 0
M  V30 5 C 4.346425 -4.180248 0.529937 0
M  V30 6 N 5.359824 -3.411475 0.069587 0
M  V30 7 N 4.824002 -2.389908 -0.617154 0
M  V30 8 C 3.482632 -2.540481 -0.572536 0
M  V30 9 C 2.531398 -1.627603 -1.205023 0
M  V30 10 C 1.974029 -1.792264 -2.456288 0
M  V30 11 C 1.088374 -0.805693 -2.873087 0
M  V30 12 C 0.785167 0.276935 -2.078012 0
M  V30 13 C 1.377824 0.381606 -0.836175 0
M  V30 14 N 1.013600 1.537834 -0.062638 0
M  V30 15 C -0.121932 1.450212 0.822969 0
M  V30 16 O -0.726082 0.365540 0.865145 0
M  V30 17 N -0.528392 2.540922 1.603698 0
M  V30 18 C -1.636026 2.516879 2.492899 0
M  V30 19 C -2.504831 1.501534 2.778427 0
M  V30 20 N -3.423910 1.918701 3.696981 0
M  V30 21 N -3.134600 3.196049 3.990195 0
M  V30 22 C -3.883564 4.013494 4.936141 0
M  V30 23 C -2.061679 3.566809 3.272491 0
M  V30 24 N 2.253984 -0.566317 -0.388508 0
M  V30 25 H 0.316875 -5.414755 -0.421564 0
M  V30 26 H 1.405916 -4.585540 -1.651077 0
M  V30 27 H 2.002884 -5.986562 -0.670472 0
M  V30 28 H 1.946875 -4.817883 1.346074 0
M  V30 29 H -0.051497 -3.695582 1.221106 0
M  V30 30 H 0.370724 -2.794284 -0.235664 0
M  V30 31 H 1.105094 -2.374534 1.414781 0
M  V30 32 H 4.394940 -5.086957 1.122444 0
M  V30 33 H 2.263555 -2.663669 -3.011069 0
M  V30 34 H 0.644516 -0.926350 -3.856365 0
M  V30 35 H 0.094747 1.016903 -2.439618 0
M  V30 36 H 1.559368 2.442409 -0.131847 0
M  V30 37 H 0.040937 3.399170 1.496244 0
M  V30 38 H -2.502571 0.513650 2.368192 0
M  V30 39 H -3.358222 4.086469 5.909363 0
M  V30 40 H -3.995608 5.057505 4.555005 0
M  V30 41 H -4.888807 3.602120 5.105863 0
M  V30 42 H -1.629411 4.558982 3.331760 0
M  V30 END ATOM
M  V30 BEGIN BOND
M  V30 1 1 1 2
M  V30 2 1 2 3
M  V30 3 1 2 4
M  V30 4 1 4 5
M  V30 5 2 5 6
M  V30 6 1 6 7
M  V30 7 2 7 8
M  V30 8 1 8 9
M  V30 9 2 9 10
M  V30 10 1 10 11
M  V30 11 2 11 12
M  V30 12 1 12 13
M  V30 13 1 13 14
M  V30 14 1 14 15
M  V30 15 2 15 16
M  V30 16 1 15 17
M  V30 17 1 17 18
M  V30 18 1 18 19
M  V30 19 2 19 20
M  V30 20 1 20 21
M  V30 21 1 21 22
M  V30 22 1 21 23
M  V30 23 2 13 24
M  V30 24 1 8 4
M  V30 25 1 24 9
M  V30 26 2 23 18
M  V30 27 1 1 25
M  V30 28 1 1 26
M  V30 29 1 1 27
M  V30 30 1 2 28
M  V30 31 1 3 29
M  V30 32 1 3 30
M  V30 33 1 3 31
M  V30 34 1 5 32
M  V30 35 1 10 33
M  V30 36 1 11 34
M  V30 37 1 12 35
M  V30 38 1 14 36
M  V30 39 1 17 37
M  V30 40 1 19 38
M  V30 41 1 22 39
M  V30 42 1 22 40
M  V30 43 1 22 41
M  V30 44 1 23 42
M  V30 END BOND
M  V30 END CTAB
M  END
>  <Dataset>  (775) 
ChEMBL_Kinases

>  <Ligand_Instance>  (775) 
nan

>  <PDB_ID>  (775) 
nan

>  <Standardized_SMILES>  (775) 
CC(C)n1cnnc1-c1cccc(NC(=O)Nc2cnn(C)c2)n1

>  <Name>  (775) 
nan

>  <Pocket>  (775) 
nan

>  <ATP_Site>  (775) 
nan

>  <Peripheral>  (775) 
nan

>  <Num_H_Atoms_ProtBoundConf>  (775) 
nan

>  <Num_Resolved_Atoms>  (775) 
nan

>  <Num_Not_Resolved_Atoms>  (775) 
nan

$$$$
CHEMBL4753278
     RDKit          3D

  0  0  0  0  0  0  0  0  0  0999 V3000
M  V30 BEGIN CTAB
M  V30 COUNTS 68 72 0 0 0
M  V30 BEGIN ATOM
M  V30 1 C 1.101057 -5.340246 -1.984475 0
M  V30 2 C 2.549475 -5.124520 -2.361331 0
M  V30 3 C 3.399368 -5.803788 -1.295870 0
M  V30 4 C 2.781986 -5.747301 -3.721641 0
M  V30 5 C 2.833942 -3.681805 -2.462145 0
M  V30 6 C 4.096756 -3.236111 -2.790767 0
M  V30 7 C 4.416704 -1.899272 -2.896007 0
M  V30 8 C 3.450465 -0.944267 -2.667359 0
M  V30 9 S 3.631089 0.799968 -2.736745 0
M  V30 10 O 4.720311 1.151153 -3.717657 0
M  V30 11 O 2.332870 1.419535 -3.123290 0
M  V30 12 N 4.097399 1.424603 -1.192451 0
M  V30 13 C 3.182761 1.204622 -0.138974 0
M  V30 14 C 1.817630 1.372252 -0.105199 0
M  V30 15 C 1.096895 1.093489 1.034875 0
M  V30 16 C 1.683133 0.636246 2.197292 0
M  V30 17 C 0.872053 0.354953 3.376827 0
M  V30 18 N -0.465448 0.519712 3.424233 0
M  V30 19 C -0.941907 0.182453 4.636446 0
M  V30 20 C -2.370047 0.249061 5.022514 0
M  V30 21 C -2.722201 -0.298945 6.232079 0
M  V30 22 C -4.089136 -0.186676 6.514078 0
M  V30 23 N -4.952754 0.396359 5.682095 0
M  V30 24 C -4.606359 0.929800 4.502377 0
M  V30 25 N -5.568853 1.552213 3.671742 0
M  V30 26 C -5.514826 2.050385 2.348104 0
M  V30 27 C -6.202245 3.189643 1.952143 0
M  V30 28 C -6.166409 3.659960 0.658720 0
M  V30 29 C -5.431764 2.987413 -0.268394 0
M  V30 30 F -5.394855 3.456416 -1.552171 0
M  V30 31 C -4.716578 1.853284 0.014548 0
M  V30 32 C -3.897118 1.079791 -0.975210 0
M  V30 33 F -4.674380 0.609361 -2.013931 0
M  V30 34 F -2.945505 1.906995 -1.561621 0
M  V30 35 F -3.227091 0.054905 -0.370741 0
M  V30 36 C -4.789792 1.426581 1.330511 0
M  V30 37 C -3.266857 0.844048 4.179672 0
M  V30 38 N 0.139810 -0.191884 5.327239 0
M  V30 39 O 1.182177 -0.078747 4.560760 0
M  V30 40 C 3.050573 0.462102 2.183210 0
M  V30 41 C 3.767855 0.743416 1.036684 0
M  V30 42 C 2.178482 -1.424887 -2.335990 0
M  V30 43 C 1.847380 -2.753125 -2.228246 0
M  V30 44 H 0.472243 -4.891840 -2.784149 0
M  V30 45 H 0.838988 -4.869793 -1.035093 0
M  V30 46 H 0.849248 -6.429591 -1.979981 0
M  V30 47 H 3.140749 -6.870320 -1.283763 0
M  V30 48 H 3.102893 -5.382408 -0.313225 0
M  V30 49 H 4.484052 -5.713587 -1.506899 0
M  V30 50 H 2.929461 -6.845370 -3.601586 0
M  V30 51 H 3.623144 -5.253744 -4.263572 0
M  V30 52 H 1.873424 -5.558108 -4.357780 0
M  V30 53 H 4.912867 -3.941975 -2.984162 0
M  V30 54 H 5.384453 -1.486143 -3.149772 0
M  V30 55 H 4.990765 1.943031 -0.984531 0
M  V30 56 H 1.388949 1.731783 -1.027508 0
M  V30 57 H 0.011736 1.256367 0.970524 0
M  V30 58 H -2.076106 -0.774425 6.931123 0
M  V30 59 H -4.496192 -0.588788 7.454122 0
M  V30 60 H -6.538714 1.692182 4.080488 0
M  V30 61 H -6.786354 3.722141 2.704279 0
M  V30 62 H -6.697752 4.543139 0.351470 0
M  V30 63 H -4.229476 0.512574 1.542304 0
M  V30 64 H -2.883948 1.243239 3.280836 0
M  V30 65 H 3.536274 0.101267 3.089104 0
M  V30 66 H 4.842929 0.571765 1.131330 0
M  V30 67 H 1.373519 -0.729616 -2.145158 0
M  V30 68 H 0.849576 -3.061788 -1.969569 0
M  V30 END ATOM
M  V30 BEGIN BOND
M  V30 1 1 1 2
M  V30 2 1 2 3
M  V30 3 1 2 4
M  V30 4 1 2 5
M  V30 5 2 5 6
M  V30 6 1 6 7
M  V30 7 2 7 8
M  V30 8 1 8 9
M  V30 9 2 9 10
M  V30 10 2 9 11
M  V30 11 1 9 12
M  V30 12 1 12 13
M  V30 13 2 13 14
M  V30 14 1 14 15
M  V30 15 2 15 16
M  V30 16 1 16 17
M  V30 17 2 17 18
M  V30 18 1 18 19
M  V30 19 1 19 20
M  V30 20 2 20 21
M  V30 21 1 21 22
M  V30 22 2 22 23
M  V30 23 1 23 24
M  V30 24 1 24 25
M  V30 25 1 25 26
M  V30 26 2 26 27
M  V30 27 1 27 28
M  V30 28 2 28 29
M  V30 29 1 29 30
M  V30 30 1 29 31
M  V30 31 1 31 32
M  V30 32 1 32 33
M  V30 33 1 32 34
M  V30 34 1 32 35
M  V30 35 2 31 36
M  V30 36 2 24 37
M  V30 37 2 19 38
M  V30 38 1 38 39
M  V30 39 1 16 40
M  V30 40 2 40 41
M  V30 41 1 8 42
M  V30 42 2 42 43
M  V30 43 1 43 5
M  V30 44 1 41 13
M  V30 45 1 39 17
M  V30 46 1 37 20
M  V30 47 1 36 26
M  V30 48 1 1 44
M  V30 49 1 1 45
M  V30 50 1 1 46
M  V30 51 1 3 47
M  V30 52 1 3 48
M  V30 53 1 3 49
M  V30 54 1 4 50
M  V30 55 1 4 51
M  V30 56 1 4 52
M  V30 57 1 6 53
M  V30 58 1 7 54
M  V30 59 1 12 55
M  V30 60 1 14 56
M  V30 61 1 15 57
M  V30 62 1 21 58
M  V30 63 1 22 59
M  V30 64 1 25 60
M  V30 65 1 27 61
M  V30 66 1 28 62
M  V30 67 1 36 63
M  V30 68 1 37 64
M  V30 69 1 40 65
M  V30 70 1 41 66
M  V30 71 1 42 67
M  V30 72 1 43 68
M  V30 END BOND
M  V30 END CTAB
M  END
>  <Dataset>  (776) 
ChEMBL_Kinases

>  <Ligand_Instance>  (776) 
nan

>  <PDB_ID>  (776) 
nan

>  <Standardized_SMILES>  (776) 
CC(C)(C)c1ccc(S(=O)(=O)Nc2ccc(-c3nc(-c4ccnc(Nc5ccc(F)c(C(F)(F)F)c5)c4)no3)cc2)cc1

>  <Name>  (776) 
nan

>  <Pocket>  (776) 
nan

>  <ATP_Site>  (776) 
nan

>  <Peripheral>  (776) 
nan

>  <Num_H_Atoms_ProtBoundConf>  (776) 
nan

>  <Num_Resolved_Atoms>  (776) 
nan

>  <Num_Not_Resolved_Atoms>  (776) 
nan

$$$$
CHEMBL4436132
     RDKit          3D

  0  0  0  0  0  0  0  0  0  0999 V3000
M  V30 BEGIN CTAB
M  V30 COUNTS 77 82 0 0 0
M  V30 BEGIN ATOM
M  V30 1 C 5.770066 -4.546344 0.554297 0
M  V30 2 C 4.409807 -4.151188 0.044759 0
M  V30 3 C 3.899260 -4.841002 -1.025846 0
M  V30 4 C 2.659541 -4.528292 -1.540504 0
M  V30 5 C 1.934813 -3.507338 -0.962000 0
M  V30 6 C 0.631548 -3.207269 -1.530376 0
M  V30 7 O 0.240186 -3.862754 -2.513328 0
M  V30 8 N -0.190621 -2.202040 -0.999637 0
M  V30 9 C -1.476202 -1.715264 -1.350275 0
M  V30 10 C -1.597255 -0.680783 -2.239082 0
M  V30 11 C -2.868413 -0.254054 -2.538479 0
M  V30 12 C -4.045098 -0.757610 -2.036954 0
M  V30 13 O -5.349377 -0.489526 -2.198040 0
M  V30 14 C -6.077351 0.413403 -2.924418 0
M  V30 15 C -5.764498 1.828861 -2.495378 0
M  V30 16 C -6.100826 2.006673 -1.024463 0
M  V30 17 C -6.125194 3.461760 -0.671086 0
M  V30 18 N -7.112440 4.208761 -1.393115 0
M  V30 19 C -8.234710 4.603057 -0.570032 0
M  V30 20 C -7.514902 3.642235 -2.645192 0
M  V30 21 C -6.476265 2.841110 -3.352949 0
M  V30 22 C -3.885639 -1.820951 -1.125399 0
M  V30 23 C -5.004543 -2.549299 -0.431962 0
M  V30 24 F -4.562035 -3.538007 0.398265 0
M  V30 25 F -5.665014 -1.592767 0.343498 0
M  V30 26 F -5.862044 -3.050556 -1.411628 0
M  V30 27 C -2.603267 -2.284525 -0.795239 0
M  V30 28 C 2.496927 -2.851125 0.108018 0
M  V30 29 C 3.726670 -3.128334 0.652872 0
M  V30 30 N 4.330219 -2.471227 1.746112 0
M  V30 31 C 3.875956 -1.391325 2.533486 0
M  V30 32 O 2.752607 -0.896670 2.262044 0
M  V30 33 C 4.517595 -0.718365 3.665419 0
M  V30 34 C 5.883265 -1.176083 4.037798 0
M  V30 35 N 5.956390 -1.667909 5.291114 0
M  V30 36 C 7.131825 -2.128408 5.751219 0
M  V30 37 N 8.226364 -2.098983 4.968318 0
M  V30 38 C 8.211280 -1.619655 3.711634 0
M  V30 39 N 9.084416 -1.444966 2.703918 0
M  V30 40 C 8.478170 -0.885385 1.627186 0
M  V30 41 C 7.145577 -0.677557 1.926794 0
M  V30 42 C 7.003524 -1.142245 3.227934 0
M  V30 43 C 3.690233 -0.078501 4.723360 0
M  V30 44 C 4.384978 0.812823 3.750224 0
M  V30 45 H 5.669068 -4.774392 1.649930 0
M  V30 46 H 6.162312 -5.393667 -0.005457 0
M  V30 47 H 6.436704 -3.644274 0.501744 0
M  V30 48 H 4.480214 -5.629068 -1.457058 0
M  V30 49 H 2.292544 -5.093166 -2.381832 0
M  V30 50 H 0.061026 -1.608007 -0.181434 0
M  V30 51 H -0.769660 -0.182836 -2.715267 0
M  V30 52 H -3.000303 0.537580 -3.231868 0
M  V30 53 H -5.996251 0.297275 -4.028281 0
M  V30 54 H -7.167362 0.269602 -2.651615 0
M  V30 55 H -4.683387 1.996570 -2.612043 0
M  V30 56 H -7.088123 1.575098 -0.769702 0
M  V30 57 H -5.349285 1.500909 -0.398172 0
M  V30 58 H -5.123153 3.919872 -0.785851 0
M  V30 59 H -6.386955 3.551559 0.415377 0
M  V30 60 H -8.982896 5.092508 -1.226713 0
M  V30 61 H -7.923627 5.371668 0.183109 0
M  V30 62 H -8.725910 3.726795 -0.112388 0
M  V30 63 H -8.469837 3.089576 -2.491424 0
M  V30 64 H -7.793042 4.513075 -3.304821 0
M  V30 65 H -5.765980 3.525710 -3.829940 0
M  V30 66 H -7.011161 2.264396 -4.164207 0
M  V30 67 H -2.439351 -3.099766 -0.098658 0
M  V30 68 H 1.895936 -2.063470 0.526040 0
M  V30 69 H 5.256006 -2.796032 2.076887 0
M  V30 70 H 7.291058 -2.542712 6.744315 0
M  V30 71 H 10.082009 -1.722852 2.798089 0
M  V30 72 H 8.958734 -0.642163 0.688241 0
M  V30 73 H 6.350219 -0.253732 1.325243 0
M  V30 74 H 2.579924 -0.088754 4.614638 0
M  V30 75 H 4.050276 -0.157701 5.754329 0
M  V30 76 H 3.812500 1.276986 2.917782 0
M  V30 77 H 5.233971 1.408045 4.103792 0
M  V30 END ATOM
M  V30 BEGIN BOND
M  V30 1 1 1 2
M  V30 2 2 2 3
M  V30 3 1 3 4
M  V30 4 2 4 5
M  V30 5 1 5 6
M  V30 6 2 6 7
M  V30 7 1 6 8
M  V30 8 1 8 9
M  V30 9 2 9 10
M  V30 10 1 10 11
M  V30 11 2 11 12
M  V30 12 1 12 13
M  V30 13 1 13 14
M  V30 14 1 14 15
M  V30 15 1 15 16
M  V30 16 1 16 17
M  V30 17 1 17 18
M  V30 18 1 18 19
M  V30 19 1 18 20
M  V30 20 1 20 21
M  V30 21 1 12 22
M  V30 22 1 22 23
M  V30 23 1 23 24
M  V30 24 1 23 25
M  V30 25 1 23 26
M  V30 26 2 22 27
M  V30 27 1 5 28
M  V30 28 2 28 29
M  V30 29 1 29 30
M  V30 30 1 30 31
M  V30 31 2 31 32
M  V30 32 1 31 33
M  V30 33 1 33 34
M  V30 34 2 34 35
M  V30 35 1 35 36
M  V30 36 2 36 37
M  V30 37 1 37 38
M  V30 38 1 38 39
M  V30 39 1 39 40
M  V30 40 2 40 41
M  V30 41 1 41 42
M  V30 42 1 33 43
M  V30 43 1 43 44
M  V30 44 1 29 2
M  V30 45 1 44 33
M  V30 46 1 27 9
M  V30 47 1 42 34
M  V30 48 1 21 15
M  V30 49 2 42 38
M  V30 50 1 1 45
M  V30 51 1 1 46
M  V30 52 1 1 47
M  V30 53 1 3 48
M  V30 54 1 4 49
M  V30 55 1 8 50
M  V30 56 1 10 51
M  V30 57 1 11 52
M  V30 58 1 14 53
M  V30 59 1 14 54
M  V30 60 1 15 55
M  V30 61 1 16 56
M  V30 62 1 16 57
M  V30 63 1 17 58
M  V30 64 1 17 59
M  V30 65 1 19 60
M  V30 66 1 19 61
M  V30 67 1 19 62
M  V30 68 1 20 63
M  V30 69 1 20 64
M  V30 70 1 21 65
M  V30 71 1 21 66
M  V30 72 1 27 67
M  V30 73 1 28 68
M  V30 74 1 30 69
M  V30 75 1 36 70
M  V30 76 1 39 71
M  V30 77 1 40 72
M  V30 78 1 41 73
M  V30 79 1 43 74
M  V30 80 1 43 75
M  V30 81 1 44 76
M  V30 82 1 44 77
M  V30 END BOND
M  V30 END CTAB
M  END
>  <Dataset>  (777) 
ChEMBL_Kinases

>  <Ligand_Instance>  (777) 
nan

>  <PDB_ID>  (777) 
nan

>  <Standardized_SMILES>  (777) 
Cc1ccc(C(=O)Nc2ccc(OCC3CCN(C)CC3)c(C(F)(F)F)c2)cc1NC(=O)C1(c2ncnc3[nH]ccc23)CC1

>  <Name>  (777) 
nan

>  <Pocket>  (777) 
nan

>  <ATP_Site>  (777) 
nan

>  <Peripheral>  (777) 
nan

>  <Num_H_Atoms_ProtBoundConf>  (777) 
nan

>  <Num_Resolved_Atoms>  (777) 
nan

>  <Num_Not_Resolved_Atoms>  (777) 
nan

$$$$
CHEMBL4753312
     RDKit          3D

  0  0  0  0  0  0  0  0  0  0999 V3000
M  V30 BEGIN CTAB
M  V30 COUNTS 51 54 0 0 0
M  V30 BEGIN ATOM
M  V30 1 C 3.273750 -0.886052 0.077838 0
M  V30 2 C 3.469642 -0.827652 1.559898 0
M  V30 3 C 3.619044 -2.248015 2.066443 0
M  V30 4 N 4.637137 -0.090837 1.955381 0
M  V30 5 C 5.723221 -0.543690 2.636405 0
M  V30 6 N 6.643163 0.415841 2.843790 0
M  V30 7 N 6.148581 1.507354 2.290147 0
M  V30 8 C 4.931295 1.222394 1.744858 0
M  V30 9 C 3.975355 2.074204 1.020804 0
M  V30 10 C 4.296478 2.810332 -0.100992 0
M  V30 11 C 3.317328 3.575737 -0.699732 0
M  V30 12 C 2.032673 3.618375 -0.201274 0
M  V30 13 C 1.733432 2.873975 0.922069 0
M  V30 14 N 0.456012 2.787618 1.589227 0
M  V30 15 C -0.352119 1.717783 1.060483 0
M  V30 16 O 0.015395 0.941934 0.118598 0
M  V30 17 N -1.639955 1.487536 1.599030 0
M  V30 18 C -2.458694 0.428713 1.087249 0
M  V30 19 C -3.382530 0.424951 0.063716 0
M  V30 20 C -4.034605 -0.755522 -0.217541 0
M  V30 21 C -3.770424 -1.902839 0.505373 0
M  V30 22 C -4.487126 -3.124540 0.167974 0
M  V30 23 C -4.785033 -4.074952 1.146818 0
M  V30 24 N -5.439689 -5.069399 0.531799 0
M  V30 25 N -5.567826 -4.797604 -0.767792 0
M  V30 26 C -6.225588 -5.660900 -1.728795 0
M  V30 27 C -4.991163 -3.608911 -1.016667 0
M  V30 28 C -2.841235 -1.876421 1.526387 0
M  V30 29 N -2.206427 -0.697322 1.788975 0
M  V30 30 N 2.701109 2.127501 1.500497 0
M  V30 31 H 4.189045 -1.222538 -0.442331 0
M  V30 32 H 2.519983 -1.681748 -0.125607 0
M  V30 33 H 2.839849 0.031127 -0.369826 0
M  V30 34 H 2.550880 -0.408412 2.028985 0
M  V30 35 H 3.905606 -2.244651 3.123756 0
M  V30 36 H 2.655545 -2.785917 1.882408 0
M  V30 37 H 4.438127 -2.762323 1.509546 0
M  V30 38 H 5.860525 -1.575584 2.990619 0
M  V30 39 H 5.305970 2.763384 -0.474772 0
M  V30 40 H 3.529067 4.166880 -1.580589 0
M  V30 41 H 1.205925 4.187583 -0.603811 0
M  V30 42 H 0.058025 3.368948 2.366774 0
M  V30 43 H -1.992291 2.092581 2.371967 0
M  V30 44 H -3.469444 1.393078 -0.395386 0
M  V30 45 H -4.744284 -0.686476 -1.030755 0
M  V30 46 H -4.566873 -4.086366 2.217976 0
M  V30 47 H -6.147194 -6.735811 -1.417503 0
M  V30 48 H -7.316263 -5.442419 -1.789610 0
M  V30 49 H -5.801912 -5.478695 -2.732972 0
M  V30 50 H -4.906255 -3.080316 -1.946989 0
M  V30 51 H -2.657526 -2.788623 2.071815 0
M  V30 END ATOM
M  V30 BEGIN BOND
M  V30 1 1 1 2
M  V30 2 1 2 3
M  V30 3 1 2 4
M  V30 4 1 4 5
M  V30 5 2 5 6
M  V30 6 1 6 7
M  V30 7 2 7 8
M  V30 8 1 8 9
M  V30 9 2 9 10
M  V30 10 1 10 11
M  V30 11 2 11 12
M  V30 12 1 12 13
M  V30 13 1 13 14
M  V30 14 1 14 15
M  V30 15 2 15 16
M  V30 16 1 15 17
M  V30 17 1 17 18
M  V30 18 2 18 19
M  V30 19 1 19 20
M  V30 20 2 20 21
M  V30 21 1 21 22
M  V30 22 1 22 23
M  V30 23 2 23 24
M  V30 24 1 24 25
M  V30 25 1 25 26
M  V30 26 1 25 27
M  V30 27 1 21 28
M  V30 28 2 28 29
M  V30 29 2 13 30
M  V30 30 1 8 4
M  V30 31 1 30 9
M  V30 32 1 29 18
M  V30 33 2 27 22
M  V30 34 1 1 31
M  V30 35 1 1 32
M  V30 36 1 1 33
M  V30 37 1 2 34
M  V30 38 1 3 35
M  V30 39 1 3 36
M  V30 40 1 3 37
M  V30 41 1 5 38
M  V30 42 1 10 39
M  V30 43 1 11 40
M  V30 44 1 12 41
M  V30 45 1 14 42
M  V30 46 1 17 43
M  V30 47 1 19 44
M  V30 48 1 20 45
M  V30 49 1 23 46
M  V30 50 1 26 47
M  V30 51 1 26 48
M  V30 52 1 26 49
M  V30 53 1 27 50
M  V30 54 1 28 51
M  V30 END BOND
M  V30 END CTAB
M  END
>  <Dataset>  (778) 
ChEMBL_Kinases

>  <Ligand_Instance>  (778) 
nan

>  <PDB_ID>  (778) 
nan

>  <Standardized_SMILES>  (778) 
CC(C)n1cnnc1-c1cccc(NC(=O)Nc2ccc(-c3cnn(C)c3)cn2)n1

>  <Name>  (778) 
nan

>  <Pocket>  (778) 
nan

>  <ATP_Site>  (778) 
nan

>  <Peripheral>  (778) 
nan

>  <Num_H_Atoms_ProtBoundConf>  (778) 
nan

>  <Num_Resolved_Atoms>  (778) 
nan

>  <Num_Not_Resolved_Atoms>  (778) 
nan

$$$$
CHEMBL4753347
     RDKit          3D

  0  0  0  0  0  0  0  0  0  0999 V3000
M  V30 BEGIN CTAB
M  V30 COUNTS 74 79 0 0 0
M  V30 BEGIN ATOM
M  V30 1 N 8.093712 1.746423 4.790923 0
M  V30 2 C 7.493929 0.531124 4.308569 0
M  V30 3 O 8.011202 -0.534286 4.668990 0
M  V30 4 C 6.313785 0.765358 3.428472 0
M  V30 5 S 5.603686 2.381003 2.937773 0
M  V30 6 C 4.261695 1.522831 1.905177 0
M  V30 7 C 3.307725 2.479664 1.212842 0
M  V30 8 C 3.359787 3.829187 1.287411 0
M  V30 9 C 2.382797 4.493371 0.569480 0
M  V30 10 N 1.439234 3.865535 -0.157046 0
M  V30 11 C 1.425418 2.521594 -0.202521 0
M  V30 12 N 0.438737 1.836123 -0.962614 0
M  V30 13 C -0.561206 2.506786 -1.705191 0
M  V30 14 O -0.507638 3.783301 -1.639883 0
M  V30 15 C -1.646849 1.926838 -2.536830 0
M  V30 16 N -1.703879 0.530562 -2.604155 0
M  V30 17 C -2.674764 -0.132600 -3.351698 0
M  V30 18 C -2.553847 -1.624291 -3.264855 0
M  V30 19 N -2.721559 -2.197892 -1.956987 0
M  V30 20 C -3.705391 -2.356891 -0.987235 0
M  V30 21 C -4.116159 -1.646067 0.097164 0
M  V30 22 C -5.157212 -1.975822 0.931750 0
M  V30 23 N -5.841166 -3.089519 0.677451 0
M  V30 24 C -5.519838 -3.869235 -0.369418 0
M  V30 25 C -6.299401 -4.989025 -0.521145 0
M  V30 26 C -6.019894 -5.829674 -1.573267 0
M  V30 27 C -4.989225 -5.543353 -2.435625 0
M  V30 28 C -4.251861 -4.413416 -2.228920 0
M  V30 29 C -4.455065 -3.509738 -1.204413 0
M  V30 30 C -5.376082 -0.991028 2.037018 0
M  V30 31 C -5.529727 0.374477 1.387512 0
M  V30 32 C -4.338113 0.759544 0.541305 0
M  V30 33 C -3.377639 -0.421618 0.437684 0
M  V30 34 C 2.367140 1.785690 0.486994 0
M  V30 35 N 4.519380 0.443121 2.069910 0
M  V30 36 C 5.471222 -0.120497 2.770780 0
M  V30 37 O 5.755031 -1.468136 2.947913 0
M  V30 38 C 4.989806 -2.493413 2.343748 0
M  V30 39 C 5.006545 -2.391484 0.827948 0
M  V30 40 C 4.202671 -3.464901 0.129366 0
M  V30 41 C 5.689918 -3.434101 0.023628 0
M  V30 42 H 7.884337 1.997738 5.797271 0
M  V30 43 H 7.928808 2.055616 5.776896 0
M  V30 44 H 4.132923 4.270249 1.880736 0
M  V30 45 H 2.398924 5.594334 0.609919 0
M  V30 46 H 0.413339 0.796985 -1.003168 0
M  V30 47 H -1.716853 2.449017 -3.523518 0
M  V30 48 H -2.595395 2.265922 -2.010390 0
M  V30 49 H -1.085264 -0.035846 -2.051484 0
M  V30 50 H -3.682249 0.150403 -2.956783 0
M  V30 51 H -2.719195 0.164213 -4.427816 0
M  V30 52 H -1.621319 -2.005958 -3.734395 0
M  V30 53 H -3.373192 -2.058163 -3.916315 0
M  V30 54 H -1.906626 -2.678852 -1.478875 0
M  V30 55 H -7.103501 -5.229065 0.138472 0
M  V30 56 H -6.622793 -6.719136 -1.711014 0
M  V30 57 H -4.767000 -6.210141 -3.269793 0
M  V30 58 H -3.456621 -4.223358 -2.917442 0
M  V30 59 H -4.564599 -0.964716 2.762589 0
M  V30 60 H -6.367483 -1.187750 2.523552 0
M  V30 61 H -5.601381 1.136034 2.205391 0
M  V30 62 H -6.460251 0.371595 0.785164 0
M  V30 63 H -4.716725 1.077859 -0.446301 0
M  V30 64 H -3.776485 1.612082 0.969620 0
M  V30 65 H -3.022037 -0.579121 1.507626 0
M  V30 66 H -2.477404 -0.220483 -0.121584 0
M  V30 67 H 2.315437 0.690637 0.419277 0
M  V30 68 H 5.270759 -3.469845 2.728766 0
M  V30 69 H 3.922466 -2.274404 2.641200 0
M  V30 70 H 4.955265 -1.374955 0.416719 0
M  V30 71 H 3.803320 -4.313477 0.722893 0
M  V30 72 H 3.628423 -3.175274 -0.787683 0
M  V30 73 H 6.316738 -4.205817 0.502410 0
M  V30 74 H 6.114939 -3.107076 -0.958484 0
M  V30 END ATOM
M  V30 BEGIN BOND
M  V30 1 1 1 2
M  V30 2 2 2 3
M  V30 3 1 2 4
M  V30 4 1 4 5
M  V30 5 1 5 6
M  V30 6 1 6 7
M  V30 7 2 7 8
M  V30 8 1 8 9
M  V30 9 2 9 10
M  V30 10 1 10 11
M  V30 11 1 11 12
M  V30 12 1 12 13
M  V30 13 2 13 14
M  V30 14 1 13 15
M  V30 15 1 15 16
M  V30 16 1 16 17
M  V30 17 1 17 18
M  V30 18 1 18 19
M  V30 19 1 19 20
M  V30 20 2 20 21
M  V30 21 1 21 22
M  V30 22 2 22 23
M  V30 23 1 23 24
M  V30 24 2 24 25
M  V30 25 1 25 26
M  V30 26 2 26 27
M  V30 27 1 27 28
M  V30 28 2 28 29
M  V30 29 1 22 30
M  V30 30 1 30 31
M  V30 31 1 31 32
M  V30 32 1 32 33
M  V30 33 2 11 34
M  V30 34 2 6 35
M  V30 35 1 35 36
M  V30 36 1 36 37
M  V30 37 1 37 38
M  V30 38 1 38 39
M  V30 39 1 39 40
M  V30 40 1 40 41
M  V30 41 2 36 4
M  V30 42 1 41 39
M  V30 43 1 34 7
M  V30 44 1 29 20
M  V30 45 1 33 21
M  V30 46 1 29 24
M  V30 47 1 1 42
M  V30 48 1 1 43
M  V30 49 1 8 44
M  V30 50 1 9 45
M  V30 51 1 12 46
M  V30 52 1 15 47
M  V30 53 1 15 48
M  V30 54 1 16 49
M  V30 55 1 17 50
M  V30 56 1 17 51
M  V30 57 1 18 52
M  V30 58 1 18 53
M  V30 59 1 19 54
M  V30 60 1 25 55
M  V30 61 1 26 56
M  V30 62 1 27 57
M  V30 63 1 28 58
M  V30 64 1 30 59
M  V30 65 1 30 60
M  V30 66 1 31 61
M  V30 67 1 31 62
M  V30 68 1 32 63
M  V30 69 1 32 64
M  V30 70 1 33 65
M  V30 71 1 33 66
M  V30 72 1 34 67
M  V30 73 1 38 68
M  V30 74 1 38 69
M  V30 75 1 39 70
M  V30 76 1 40 71
M  V30 77 1 40 72
M  V30 78 1 41 73
M  V30 79 1 41 74
M  V30 END BOND
M  V30 END CTAB
M  END
>  <Dataset>  (779) 
ChEMBL_Kinases

>  <Ligand_Instance>  (779) 
nan

>  <PDB_ID>  (779) 
nan

>  <Standardized_SMILES>  (779) 
NC(=O)c1sc(-c2ccnc(NC(=O)CNCCNc3c4c(nc5ccccc35)CCCC4)c2)nc1OCC1CC1

>  <Name>  (779) 
nan

>  <Pocket>  (779) 
nan

>  <ATP_Site>  (779) 
nan

>  <Peripheral>  (779) 
nan

>  <Num_H_Atoms_ProtBoundConf>  (779) 
nan

>  <Num_Resolved_Atoms>  (779) 
nan

>  <Num_Not_Resolved_Atoms>  (779) 
nan

$$$$
CHEMBL4291114
     RDKit          3D

  0  0  0  0  0  0  0  0  0  0999 V3000
M  V30 BEGIN CTAB
M  V30 COUNTS 78 83 0 0 0
M  V30 BEGIN ATOM
M  V30 1 O 5.081123 -2.351756 -0.605702 0
M  V30 2 C 5.463033 -1.577659 -1.536845 0
M  V30 3 C 4.526205 -1.544001 -2.676298 0
M  V30 4 C 3.700686 -2.736716 -3.027559 0
M  V30 5 C 3.066657 -1.555362 -2.379936 0
M  V30 6 N 6.670730 -0.828369 -1.471842 0
M  V30 7 C 7.311373 0.103015 -2.371312 0
M  V30 8 C 7.902623 1.285948 -1.649301 0
M  V30 9 N 7.603761 1.390074 -0.297862 0
M  V30 10 C 7.506820 2.715380 0.174264 0
M  V30 11 C 6.330161 3.503474 -0.355446 0
M  V30 12 C 5.032587 2.861142 0.017300 0
M  V30 13 C 3.825893 3.661416 -0.535666 0
M  V30 14 O 2.673343 3.139382 -0.241919 0
M  V30 15 C 1.541958 2.634481 0.041399 0
M  V30 16 C 0.280274 3.067628 -0.316861 0
M  V30 17 C -0.841671 2.381122 0.089734 0
M  V30 18 C -0.767361 1.243656 0.862845 0
M  V30 19 N -1.992663 0.615504 1.212740 0
M  V30 20 C -1.921800 -0.565302 2.030640 0
M  V30 21 O -1.161365 -1.486985 2.325334 0
M  V30 22 S -3.559490 -0.583357 2.842464 0
M  V30 23 C -4.371540 0.094037 1.363358 0
M  V30 24 C -5.514438 -0.082902 0.802319 0
M  V30 25 C -6.515755 -1.022042 1.364595 0
M  V30 26 C -7.873260 -0.810967 1.404673 0
M  V30 27 C -8.715035 -1.762322 1.941346 0
M  V30 28 C -8.220534 -2.964324 2.459444 0
M  V30 29 O -9.012406 -3.972363 3.016437 0
M  V30 30 C -9.490298 -4.977834 2.168509 0
M  V30 31 C -10.679926 -4.937688 1.483849 0
M  V30 32 C -11.124216 -5.940657 0.657787 0
M  V30 33 C -10.351556 -7.066526 0.485280 0
M  V30 34 Br -10.944275 -8.477083 -0.658636 0
M  V30 35 C -9.147934 -7.136632 1.161087 0
M  V30 36 C -8.711718 -6.125794 1.987616 0
M  V30 37 C -6.857183 -3.166464 2.414869 0
M  V30 38 C -5.995958 -2.218806 1.877670 0
M  V30 39 C -3.313771 0.987832 0.842400 0
M  V30 40 O -3.668913 1.982509 0.130780 0
M  V30 41 C 0.472770 0.786987 1.236139 0
M  V30 42 C 1.589171 1.473759 0.828743 0
M  V30 43 C 7.307062 0.306098 0.514594 0
M  V30 44 C 7.490165 -0.973883 -0.285746 0
M  V30 45 H 4.852964 -0.888297 -3.508860 0
M  V30 46 H 3.828749 -3.668380 -2.425173 0
M  V30 47 H 3.392099 -2.931347 -4.063544 0
M  V30 48 H 2.440627 -0.853055 -2.951327 0
M  V30 49 H 2.705269 -1.722935 -1.341306 0
M  V30 50 H 8.034482 -0.438012 -2.997143 0
M  V30 51 H 6.522677 0.492959 -3.047087 0
M  V30 52 H 9.024060 1.202617 -1.778590 0
M  V30 53 H 7.656823 2.236525 -2.175580 0
M  V30 54 H 7.467026 2.767969 1.282874 0
M  V30 55 H 8.468637 3.235347 -0.110600 0
M  V30 56 H 6.402795 3.689933 -1.453412 0
M  V30 57 H 6.363420 4.508119 0.120459 0
M  V30 58 H 4.959398 2.893123 1.129159 0
M  V30 59 H 4.923842 1.823714 -0.304190 0
M  V30 60 H 3.968895 4.672499 -0.011811 0
M  V30 61 H 4.052743 3.938130 -1.603356 0
M  V30 62 H 0.325920 3.961398 -0.921355 0
M  V30 63 H -1.712571 2.887586 -0.296459 0
M  V30 64 H -5.807768 0.431923 -0.096799 0
M  V30 65 H -8.237489 0.121656 1.003858 0
M  V30 66 H -9.782061 -1.610647 1.977848 0
M  V30 67 H -11.256129 -4.033863 1.649194 0
M  V30 68 H -12.090739 -5.807511 0.156256 0
M  V30 69 H -8.588515 -8.054604 0.980275 0
M  V30 70 H -7.758135 -6.228534 2.498213 0
M  V30 71 H -6.433957 -4.104359 2.815657 0
M  V30 72 H -4.944118 -2.477529 1.889579 0
M  V30 73 H 0.554168 -0.103797 1.845007 0
M  V30 74 H 2.536541 1.031865 1.177232 0
M  V30 75 H 8.061923 0.270085 1.351115 0
M  V30 76 H 6.276398 0.252769 0.920071 0
M  V30 77 H 8.552042 -1.164440 -0.547269 0
M  V30 78 H 7.151507 -1.849021 0.331694 0
M  V30 END ATOM
M  V30 BEGIN BOND
M  V30 1 2 1 2
M  V30 2 1 2 3
M  V30 3 1 3 4
M  V30 4 1 4 5
M  V30 5 1 2 6
M  V30 6 1 6 7
M  V30 7 1 7 8
M  V30 8 1 8 9
M  V30 9 1 9 10
M  V30 10 1 10 11
M  V30 11 1 11 12
M  V30 12 1 12 13
M  V30 13 1 13 14
M  V30 14 1 14 15
M  V30 15 2 15 16
M  V30 16 1 16 17
M  V30 17 2 17 18
M  V30 18 1 18 19
M  V30 19 1 19 20
M  V30 20 2 20 21
M  V30 21 1 20 22
M  V30 22 1 22 23
M  V30 23 2 23 24
M  V30 24 1 24 25
M  V30 25 2 25 26
M  V30 26 1 26 27
M  V30 27 2 27 28
M  V30 28 1 28 29
M  V30 29 1 29 30
M  V30 30 2 30 31
M  V30 31 1 31 32
M  V30 32 2 32 33
M  V30 33 1 33 34
M  V30 34 1 33 35
M  V30 35 2 35 36
M  V30 36 1 28 37
M  V30 37 2 37 38
M  V30 38 1 23 39
M  V30 39 2 39 40
M  V30 40 1 18 41
M  V30 41 2 41 42
M  V30 42 1 9 43
M  V30 43 1 43 44
M  V30 44 1 5 3
M  V30 45 1 44 6
M  V30 46 1 42 15
M  V30 47 1 39 19
M  V30 48 1 38 25
M  V30 49 1 36 30
M  V30 50 1 3 45
M  V30 51 1 4 46
M  V30 52 1 4 47
M  V30 53 1 5 48
M  V30 54 1 5 49
M  V30 55 1 7 50
M  V30 56 1 7 51
M  V30 57 1 8 52
M  V30 58 1 8 53
M  V30 59 1 10 54
M  V30 60 1 10 55
M  V30 61 1 11 56
M  V30 62 1 11 57
M  V30 63 1 12 58
M  V30 64 1 12 59
M  V30 65 1 13 60
M  V30 66 1 13 61
M  V30 67 1 16 62
M  V30 68 1 17 63
M  V30 69 1 24 64
M  V30 70 1 26 65
M  V30 71 1 27 66
M  V30 72 1 31 67
M  V30 73 1 32 68
M  V30 74 1 35 69
M  V30 75 1 36 70
M  V30 76 1 37 71
M  V30 77 1 38 72
M  V30 78 1 41 73
M  V30 79 1 42 74
M  V30 80 1 43 75
M  V30 81 1 43 76
M  V30 82 1 44 77
M  V30 83 1 44 78
M  V30 END BOND
M  V30 END CTAB
M  END
>  <Dataset>  (780) 
ChEMBL_Kinases

>  <Ligand_Instance>  (780) 
nan

>  <PDB_ID>  (780) 
nan

>  <Standardized_SMILES>  (780) 
O=C(C1CC1)N1CCN(CCCCOc2ccc(N3C(=O)S/C(=C\c4ccc(Oc5ccc(Br)cc5)cc4)C3=O)cc2)CC1

>  <Name>  (780) 
nan

>  <Pocket>  (780) 
nan

>  <ATP_Site>  (780) 
nan

>  <Peripheral>  (780) 
nan

>  <Num_H_Atoms_ProtBoundConf>  (780) 
nan

>  <Num_Resolved_Atoms>  (780) 
nan

>  <Num_Not_Resolved_Atoms>  (780) 
nan

$$$$
CHEMBL4436045
     RDKit          3D

  0  0  0  0  0  0  0  0  0  0999 V3000
M  V30 BEGIN CTAB
M  V30 COUNTS 72 77 0 0 0
M  V30 BEGIN ATOM
M  V30 1 C -1.051792 -4.585025 2.621224 0
M  V30 2 C -0.649307 -3.175769 2.793570 0
M  V30 3 C 0.281213 -2.580681 1.938323 0
M  V30 4 C 0.671280 -1.259055 2.082933 0
M  V30 5 C 1.634291 -0.626423 1.183488 0
M  V30 6 C 2.736088 0.180716 1.388637 0
M  V30 7 N 3.233810 0.459363 0.168533 0
M  V30 8 N 2.495739 -0.131926 -0.743008 0
M  V30 9 C 2.706370 -0.069265 -2.065220 0
M  V30 10 N 3.696498 0.627689 -2.809637 0
M  V30 11 C 3.088733 1.774651 -3.432864 0
M  V30 12 C 2.488950 2.774449 -2.510728 0 CFG=1
M  V30 13 C 3.409840 3.432774 -1.525859 0
M  V30 14 C 2.693878 4.751793 -1.845468 0 CFG=1
M  V30 15 C 1.469201 4.924698 -0.958330 0
M  V30 16 O 3.589937 5.790690 -1.860325 0
M  V30 17 C 2.366708 4.124118 -3.198809 0
M  V30 18 C 1.838007 -0.755287 -2.926715 0
M  V30 19 C 0.779795 -1.480502 -2.358790 0
M  V30 20 N -0.125163 -2.182722 -3.195362 0
M  V30 21 C -1.231981 -2.939881 -2.700806 0
M  V30 22 C -0.877746 -4.074670 -1.785390 0
M  V30 23 C -2.280336 -4.469427 -1.293960 0
M  V30 24 C -2.974408 -3.131452 -1.120588 0
M  V30 25 C -2.205186 -2.111089 -1.893786 0
M  V30 26 N 0.641382 -1.489623 -1.021138 0
M  V30 27 C 1.482152 -0.826970 -0.198335 0
M  V30 28 C 0.130269 -0.475741 3.111211 0
M  V30 29 C -0.792029 -1.030470 3.975462 0
M  V30 30 C -1.154473 -2.364800 3.789875 0
M  V30 31 C -2.155146 -2.910424 4.736154 0
M  V30 32 O -1.938901 -3.862450 5.535956 0
M  V30 33 N -3.462320 -2.299089 4.728614 0
M  V30 34 C -4.648652 -2.581221 5.504833 0
M  V30 35 C -5.551985 -1.447066 5.820722 0
M  V30 36 C -5.951236 -2.483896 4.798926 0
M  V30 37 H -0.289161 -5.204325 2.129393 0
M  V30 38 H -2.045685 -4.647674 2.127741 0
M  V30 39 H -1.212655 -5.014336 3.635401 0
M  V30 40 H 0.734912 -3.108780 1.138894 0
M  V30 41 H 3.050514 0.472086 2.380400 0
M  V30 42 H 4.655035 0.266851 -2.820637 0
M  V30 43 H 2.271468 1.459946 -4.143568 0
M  V30 44 H 3.879030 2.239432 -4.058890 0
M  V30 45 H 1.506389 2.463754 -2.085991 0
M  V30 46 H 4.448580 3.434343 -1.923694 0
M  V30 47 H 3.323030 3.156744 -0.470923 0
M  V30 48 H 1.714398 4.513949 0.043918 0
M  V30 49 H 1.246412 5.997871 -0.842239 0
M  V30 50 H 0.587254 4.427243 -1.405161 0
M  V30 51 H 3.514251 6.419348 -2.608273 0
M  V30 52 H 1.352061 4.357698 -3.579697 0
M  V30 53 H 3.177715 4.334218 -3.922824 0
M  V30 54 H 1.908213 -0.779243 -4.026317 0
M  V30 55 H 0.026746 -2.145410 -4.248280 0
M  V30 56 H -1.809073 -3.387244 -3.532959 0
M  V30 57 H -0.410178 -4.871900 -2.368411 0
M  V30 58 H -0.336401 -3.777027 -0.890375 0
M  V30 59 H -2.214421 -5.028604 -0.339963 0
M  V30 60 H -2.719522 -5.097657 -2.079881 0
M  V30 61 H -4.025082 -3.254591 -1.399137 0
M  V30 62 H -2.956924 -2.804786 -0.049820 0
M  V30 63 H -2.908338 -1.556411 -2.573187 0
M  V30 64 H -1.712512 -1.332291 -1.285513 0
M  V30 65 H 0.380960 0.551365 3.287676 0
M  V30 66 H -1.233664 -0.450727 4.787655 0
M  V30 67 H -3.595568 -1.498890 4.037226 0
M  V30 68 H -4.535900 -3.415023 6.223007 0
M  V30 69 H -5.283352 -0.436933 5.475245 0
M  V30 70 H -6.189710 -1.449516 6.730249 0
M  V30 71 H -6.788512 -3.170473 5.038955 0
M  V30 72 H -6.011516 -2.077160 3.757271 0
M  V30 END ATOM
M  V30 BEGIN BOND
M  V30 1 1 1 2
M  V30 2 2 2 3
M  V30 3 1 3 4
M  V30 4 1 4 5
M  V30 5 1 5 6
M  V30 6 2 6 7
M  V30 7 1 7 8
M  V30 8 1 8 9
M  V30 9 1 9 10
M  V30 10 1 10 11
M  V30 11 1 11 12
M  V30 12 1 12 13
M  V30 13 1 13 14
M  V30 14 1 14 15
M  V30 15 1 14 16 CFG=3
M  V30 16 1 14 17
M  V30 17 2 9 18
M  V30 18 1 18 19
M  V30 19 1 19 20
M  V30 20 1 20 21
M  V30 21 1 21 22
M  V30 22 1 22 23
M  V30 23 1 23 24
M  V30 24 1 24 25
M  V30 25 2 19 26
M  V30 26 1 26 27
M  V30 27 2 4 28
M  V30 28 1 28 29
M  V30 29 2 29 30
M  V30 30 1 30 31
M  V30 31 2 31 32
M  V30 32 1 31 33
M  V30 33 1 33 34
M  V30 34 1 34 35
M  V30 35 1 35 36
M  V30 36 1 30 2
M  V30 37 1 36 34
M  V30 38 2 27 5
M  V30 39 1 27 8
M  V30 40 1 17 12
M  V30 41 1 25 21
M  V30 42 1 1 37
M  V30 43 1 1 38
M  V30 44 1 1 39
M  V30 45 1 3 40
M  V30 46 1 6 41
M  V30 47 1 10 42
M  V30 48 1 11 43
M  V30 49 1 11 44
M  V30 50 1 12 45 CFG=1
M  V30 51 1 13 46
M  V30 52 1 13 47
M  V30 53 1 15 48
M  V30 54 1 15 49
M  V30 55 1 15 50
M  V30 56 1 16 51
M  V30 57 1 17 52
M  V30 58 1 17 53
M  V30 59 1 18 54
M  V30 60 1 20 55
M  V30 61 1 21 56
M  V30 62 1 22 57
M  V30 63 1 22 58
M  V30 64 1 23 59
M  V30 65 1 23 60
M  V30 66 1 24 61
M  V30 67 1 24 62
M  V30 68 1 25 63
M  V30 69 1 25 64
M  V30 70 1 28 65
M  V30 71 1 29 66
M  V30 72 1 33 67
M  V30 73 1 34 68
M  V30 74 1 35 69
M  V30 75 1 35 70
M  V30 76 1 36 71
M  V30 77 1 36 72
M  V30 END BOND
M  V30 END CTAB
M  END
>  <Dataset>  (781) 
ChEMBL_Kinases

>  <Ligand_Instance>  (781) 
nan

>  <PDB_ID>  (781) 
nan

>  <Standardized_SMILES>  (781) 
Cc1cc(-c2cnn3c(NC[C@H]4C[C@@](C)(O)C4)cc(NC4CCCC4)nc23)ccc1C(=O)NC1CC1

>  <Name>  (781) 
nan

>  <Pocket>  (781) 
nan

>  <ATP_Site>  (781) 
nan

>  <Peripheral>  (781) 
nan

>  <Num_H_Atoms_ProtBoundConf>  (781) 
nan

>  <Num_Resolved_Atoms>  (781) 
nan

>  <Num_Not_Resolved_Atoms>  (781) 
nan

$$$$
CHEMBL4753431
     RDKit          3D

  0  0  0  0  0  0  0  0  0  0999 V3000
M  V30 BEGIN CTAB
M  V30 COUNTS 31 32 0 0 0
M  V30 BEGIN ATOM
M  V30 1 O 0.224599 -0.409487 1.125157 0
M  V30 2 C -0.136900 -0.955689 0.029249 0
M  V30 3 C 0.002008 -2.119080 -0.870939 0
M  V30 4 C 0.956731 -3.166882 -0.371585 0
M  V30 5 S 0.448691 -3.844200 1.229286 0
M  V30 6 C 2.029527 -4.050842 2.143169 0
M  V30 7 C 2.563911 -2.618933 2.245972 0
M  V30 8 N 2.839403 -2.165773 0.898045 0
M  V30 9 C 2.351963 -2.688791 -0.307571 0
M  V30 10 O 3.191705 -2.702666 -1.271576 0
M  V30 11 N -1.069919 -0.010127 -0.533103 0
M  V30 12 C -1.378678 1.214986 0.158483 0
M  V30 13 C -0.679894 2.403086 -0.017034 0
M  V30 14 C -1.065764 3.512943 0.699467 0
M  V30 15 C -2.129627 3.424966 1.570442 0
M  V30 16 C -2.853010 2.270017 1.778442 0
M  V30 17 C -2.456713 1.146191 1.048202 0
M  V30 18 H -0.995755 -2.539442 -1.045863 0
M  V30 19 H 0.346016 -1.723704 -1.844586 0
M  V30 20 H 0.893281 -4.021409 -1.090259 0
M  V30 21 H 2.700737 -4.580132 1.426639 0
M  V30 22 H 1.901880 -4.540169 3.104821 0
M  V30 23 H 3.428387 -2.572356 2.897906 0
M  V30 24 H 1.761598 -2.015475 2.736792 0
M  V30 25 H 3.500045 -1.332151 0.915830 0
M  V30 26 H -1.653348 0.031631 -1.413460 0
M  V30 27 H 0.144237 2.402866 -0.715727 0
M  V30 28 H -0.527253 4.444348 0.569757 0
M  V30 29 H -2.472620 4.277243 2.160213 0
M  V30 30 H -3.682720 2.176987 2.449150 0
M  V30 31 H -3.027881 0.227732 1.210144 0
M  V30 END ATOM
M  V30 BEGIN BOND
M  V30 1 2 1 2
M  V30 2 1 2 3
M  V30 3 1 3 4
M  V30 4 1 4 5
M  V30 5 1 5 6
M  V30 6 1 6 7
M  V30 7 1 7 8
M  V30 8 1 8 9
M  V30 9 2 9 10
M  V30 10 1 2 11
M  V30 11 1 11 12
M  V30 12 2 12 13
M  V30 13 1 13 14
M  V30 14 2 14 15
M  V30 15 1 15 16
M  V30 16 2 16 17
M  V30 17 1 9 4
M  V30 18 1 17 12
M  V30 19 1 3 18
M  V30 20 1 3 19
M  V30 21 1 4 20
M  V30 22 1 6 21
M  V30 23 1 6 22
M  V30 24 1 7 23
M  V30 25 1 7 24
M  V30 26 1 8 25
M  V30 27 1 11 26
M  V30 28 1 13 27
M  V30 29 1 14 28
M  V30 30 1 15 29
M  V30 31 1 16 30
M  V30 32 1 17 31
M  V30 END BOND
M  V30 END CTAB
M  END
>  <Dataset>  (782) 
ChEMBL_Kinases

>  <Ligand_Instance>  (782) 
nan

>  <PDB_ID>  (782) 
nan

>  <Standardized_SMILES>  (782) 
O=C(CC1SCCNC1=O)Nc1ccccc1

>  <Name>  (782) 
nan

>  <Pocket>  (782) 
nan

>  <ATP_Site>  (782) 
nan

>  <Peripheral>  (782) 
nan

>  <Num_H_Atoms_ProtBoundConf>  (782) 
nan

>  <Num_Resolved_Atoms>  (782) 
nan

>  <Num_Not_Resolved_Atoms>  (782) 
nan

$$$$
CHEMBL4436032
     RDKit          3D

  0  0  0  0  0  0  0  0  0  0999 V3000
M  V30 BEGIN CTAB
M  V30 COUNTS 41 43 0 0 0
M  V30 BEGIN ATOM
M  V30 1 C 1.003113 -5.775316 1.620954 0
M  V30 2 C 1.942791 -4.739337 2.147606 0
M  V30 3 O 2.585611 -4.967351 3.174118 0
M  V30 4 C 2.117638 -3.436403 1.455930 0
M  V30 5 C 1.233850 -3.413730 0.251465 0
M  V30 6 C 1.367570 -2.117178 -0.489911 0
M  V30 7 C 2.074151 -1.956779 -1.665792 0
M  V30 8 N 1.988786 -0.671852 -2.055549 0
M  V30 9 C 1.237136 -0.048134 -1.128539 0
M  V30 10 C 0.845571 1.270771 -1.052155 0
M  V30 11 C 1.266168 2.200574 -2.089281 0
M  V30 12 N 0.903910 3.571866 -2.090246 0
M  V30 13 O 1.944847 2.155514 -3.126698 0
M  V30 14 C 0.066997 1.787710 -0.040963 0
M  V30 15 C -0.313998 0.863999 0.934367 0
M  V30 16 C -1.141488 1.342097 2.037476 0
M  V30 17 C -2.063939 0.483033 2.643870 0
M  V30 18 C -2.858179 0.923111 3.693930 0
M  V30 19 C -2.716869 2.226800 4.125448 0
M  V30 20 C -1.808735 3.079600 3.531694 0
M  V30 21 C -1.005248 2.662979 2.482274 0
M  V30 22 C 0.046968 -0.481873 0.917267 0
M  V30 23 C 0.825987 -0.898051 -0.135855 0
M  V30 24 H -0.059929 -5.467318 1.689193 0
M  V30 25 H 1.101506 -6.730341 2.171977 0
M  V30 26 H 1.264848 -6.021996 0.553696 0
M  V30 27 H 1.947137 -2.613629 2.170962 0
M  V30 28 H 3.188800 -3.372361 1.102933 0
M  V30 29 H 0.174723 -3.628292 0.505997 0
M  V30 30 H 1.556059 -4.248110 -0.404721 0
M  V30 31 H 2.608451 -2.758418 -2.178567 0
M  V30 32 H 2.423947 -0.254405 -2.909414 0
M  V30 33 H 0.500388 4.260653 -2.759929 0
M  V30 34 H 0.880590 4.436396 -1.469715 0
M  V30 35 H -0.233001 2.811436 0.011609 0
M  V30 36 H -2.137284 -0.526091 2.270721 0
M  V30 37 H -3.537964 0.175065 4.089614 0
M  V30 38 H -3.375953 2.501735 4.956421 0
M  V30 39 H -1.736016 4.101143 3.910854 0
M  V30 40 H -0.304000 3.345387 2.034435 0
M  V30 41 H -0.252103 -1.168950 1.667608 0
M  V30 END ATOM
M  V30 BEGIN BOND
M  V30 1 1 1 2
M  V30 2 2 2 3
M  V30 3 1 2 4
M  V30 4 1 4 5
M  V30 5 1 5 6
M  V30 6 2 6 7
M  V30 7 1 7 8
M  V30 8 1 8 9
M  V30 9 2 9 10
M  V30 10 1 10 11
M  V30 11 1 11 12
M  V30 12 2 11 13
M  V30 13 1 10 14
M  V30 14 2 14 15
M  V30 15 1 15 16
M  V30 16 2 16 17
M  V30 17 1 17 18
M  V30 18 2 18 19
M  V30 19 1 19 20
M  V30 20 2 20 21
M  V30 21 1 15 22
M  V30 22 2 22 23
M  V30 23 1 23 6
M  V30 24 1 23 9
M  V30 25 1 21 16
M  V30 26 1 1 24
M  V30 27 1 1 25
M  V30 28 1 1 26
M  V30 29 1 4 27
M  V30 30 1 4 28
M  V30 31 1 5 29
M  V30 32 1 5 30
M  V30 33 1 7 31
M  V30 34 1 8 32
M  V30 35 1 12 33
M  V30 36 1 12 34
M  V30 37 1 14 35
M  V30 38 1 17 36
M  V30 39 1 18 37
M  V30 40 1 19 38
M  V30 41 1 20 39
M  V30 42 1 21 40
M  V30 43 1 22 41
M  V30 END BOND
M  V30 END CTAB
M  END
>  <Dataset>  (783) 
ChEMBL_Kinases

>  <Ligand_Instance>  (783) 
nan

>  <PDB_ID>  (783) 
nan

>  <Standardized_SMILES>  (783) 
CC(=O)CCc1c[nH]c2c(C(N)=O)cc(-c3ccccc3)cc12

>  <Name>  (783) 
nan

>  <Pocket>  (783) 
nan

>  <ATP_Site>  (783) 
nan

>  <Peripheral>  (783) 
nan

>  <Num_H_Atoms_ProtBoundConf>  (783) 
nan

>  <Num_Resolved_Atoms>  (783) 
nan

>  <Num_Not_Resolved_Atoms>  (783) 
nan

$$$$
CHEMBL4436001
     RDKit          3D

  0  0  0  0  0  0  0  0  0  0999 V3000
M  V30 BEGIN CTAB
M  V30 COUNTS 47 51 0 0 0
M  V30 BEGIN ATOM
M  V30 1 N 3.889716 -3.482395 -0.950268 0
M  V30 2 C 3.355948 -2.186448 -0.748558 0
M  V30 3 O 2.609520 -2.288399 0.245360 0
M  V30 4 C 3.691335 -1.057296 -1.598012 0
M  V30 5 C 4.553441 -1.218094 -2.642451 0
M  V30 6 C 4.853230 -0.124492 -3.433086 0
M  V30 7 C 4.277076 1.120774 -3.158162 0
M  V30 8 N 3.445121 1.200835 -2.122318 0
M  V30 9 C 3.120813 0.168386 -1.323020 0
M  V30 10 O 2.253401 0.275431 -0.251796 0
M  V30 11 C 1.611658 1.452052 0.132670 0
M  V30 12 C 1.770854 1.814299 1.616170 0
M  V30 13 C 0.454531 1.180196 1.828597 0
M  V30 14 C -0.481767 1.688456 2.844162 0
M  V30 15 C -0.084785 0.494833 3.715267 0
M  V30 16 N -1.158004 -0.146709 4.390231 0
M  V30 17 C -2.248061 -0.690750 3.647274 0
M  V30 18 N -2.609878 -0.789246 2.361671 0
M  V30 19 C -3.771063 -1.416525 2.173764 0
M  V30 20 C -4.212871 -1.556417 0.852150 0
M  V30 21 C -5.404103 -2.194051 0.584932 0
M  V30 22 F -5.917934 -2.378830 -0.672744 0
M  V30 23 C -6.220874 -2.722835 1.560899 0
M  V30 24 Br -7.880872 -3.621157 1.312204 0
M  V30 25 C -5.778543 -2.580592 2.856429 0
M  V30 26 C -4.647570 -1.977069 3.133586 0
M  V30 27 S -3.640239 -1.537300 4.617765 0
M  V30 28 C 0.418712 -0.176006 2.458649 0
M  V30 29 C 0.106294 1.283188 0.384282 0
M  V30 30 H 3.871082 -4.262342 -1.665335 0
M  V30 31 H 4.516947 -4.134988 -0.425736 0
M  V30 32 H 5.026333 -2.153379 -2.900376 0
M  V30 33 H 5.542097 -0.236090 -4.273930 0
M  V30 34 H 4.519125 1.986485 -3.790101 0
M  V30 35 H 1.872315 2.292598 -0.513717 0
M  V30 36 H 1.787811 2.910220 1.807435 0
M  V30 37 H 2.643989 1.279153 2.074136 0
M  V30 38 H -1.557509 1.737594 2.628520 0
M  V30 39 H -0.096329 2.613838 3.323679 0
M  V30 40 H 0.786432 0.712203 4.374666 0
M  V30 41 H -1.139622 -0.214572 5.427905 0
M  V30 42 H -3.744127 -1.222864 -0.088688 0
M  V30 43 H -6.248915 -2.912838 3.769321 0
M  V30 44 H -0.292432 -0.833733 1.926896 0
M  V30 45 H 1.426467 -0.657909 2.590395 0
M  V30 46 H -0.280097 0.376293 -0.112475 0
M  V30 47 H -0.398570 2.242218 0.153354 0
M  V30 END ATOM
M  V30 BEGIN BOND
M  V30 1 1 1 2
M  V30 2 2 2 3
M  V30 3 1 2 4
M  V30 4 2 4 5
M  V30 5 1 5 6
M  V30 6 2 6 7
M  V30 7 1 7 8
M  V30 8 2 8 9
M  V30 9 1 9 10
M  V30 10 1 10 11
M  V30 11 1 11 12
M  V30 12 1 12 13
M  V30 13 1 13 14
M  V30 14 1 14 15
M  V30 15 1 15 16
M  V30 16 1 16 17
M  V30 17 2 17 18
M  V30 18 1 18 19
M  V30 19 2 19 20
M  V30 20 1 20 21
M  V30 21 1 21 22
M  V30 22 2 21 23
M  V30 23 1 23 24
M  V30 24 1 23 25
M  V30 25 2 25 26
M  V30 26 1 26 27
M  V30 27 1 15 28
M  V30 28 1 13 29
M  V30 29 1 9 4
M  V30 30 1 29 11
M  V30 31 1 28 13
M  V30 32 1 27 17
M  V30 33 1 26 19
M  V30 34 1 1 30
M  V30 35 1 1 31
M  V30 36 1 5 32
M  V30 37 1 6 33
M  V30 38 1 7 34
M  V30 39 1 11 35
M  V30 40 1 12 36
M  V30 41 1 12 37
M  V30 42 1 14 38
M  V30 43 1 14 39
M  V30 44 1 15 40
M  V30 45 1 16 41
M  V30 46 1 20 42
M  V30 47 1 25 43
M  V30 48 1 28 44
M  V30 49 1 28 45
M  V30 50 1 29 46
M  V30 51 1 29 47
M  V30 END BOND
M  V30 END CTAB
M  END
>  <Dataset>  (784) 
ChEMBL_Kinases

>  <Ligand_Instance>  (784) 
nan

>  <PDB_ID>  (784) 
nan

>  <Standardized_SMILES>  (784) 
NC(=O)c1cccnc1OC1CC2(CC(Nc3nc4cc(F)c(Br)cc4s3)C2)C1

>  <Name>  (784) 
nan

>  <Pocket>  (784) 
nan

>  <ATP_Site>  (784) 
nan

>  <Peripheral>  (784) 
nan

>  <Num_H_Atoms_ProtBoundConf>  (784) 
nan

>  <Num_Resolved_Atoms>  (784) 
nan

>  <Num_Not_Resolved_Atoms>  (784) 
nan

$$$$
CHEMBL4435935
     RDKit          3D

  0  0  0  0  0  0  0  0  0  0999 V3000
M  V30 BEGIN CTAB
M  V30 COUNTS 55 58 0 0 0
M  V30 BEGIN ATOM
M  V30 1 C 3.490516 -2.041738 -2.555846 0
M  V30 2 N 4.078909 -3.057943 -1.722412 0
M  V30 3 C 4.826484 -2.592574 -0.625630 0
M  V30 4 C 4.076355 -2.708838 0.686157 0
M  V30 5 N 2.686104 -2.816276 0.383565 0
M  V30 6 C 1.715042 -1.807109 0.691302 0
M  V30 7 C 2.318414 -0.881033 1.567759 0
M  V30 8 C 1.502514 0.160914 1.960401 0
M  V30 9 C 0.263889 0.126631 1.445311 0
M  V30 10 O -0.803871 1.091977 1.683560 0
M  V30 11 C -0.444094 2.122813 2.531860 0
M  V30 12 C -1.477996 3.140261 2.804056 0
M  V30 13 C -1.711271 4.321195 2.131403 0
M  V30 14 C -2.696411 5.188183 2.486468 0
M  V30 15 C -3.522295 4.923368 3.553874 0
M  V30 16 C -3.338961 3.742818 4.277703 0
M  V30 17 C -2.319667 2.876209 3.886810 0
M  V30 18 C -0.597203 -0.487644 0.682269 0
M  V30 19 C -1.544174 -1.163198 -0.156884 0
M  V30 20 O -2.254814 -0.224233 0.367259 0
M  V30 21 N -2.048023 -2.071842 -1.039843 0
M  V30 22 C -3.414515 -1.977485 -1.386883 0
M  V30 23 C -4.166198 -2.779600 -0.514428 0
M  V30 24 C -5.556427 -2.850107 -0.663996 0
M  V30 25 N -6.162373 -2.156957 -1.632373 0
M  V30 26 N -5.461734 -1.408592 -2.444770 0
M  V30 27 C -4.111596 -1.294596 -2.356759 0
M  V30 28 C 0.365247 -1.594307 0.302033 0
M  V30 29 C 2.403070 -4.089758 -0.261486 0
M  V30 30 C 3.258405 -4.213005 -1.500321 0
M  V30 31 H 3.348031 -2.514242 -3.556655 0
M  V30 32 H 2.554826 -1.630483 -2.181671 0
M  V30 33 H 4.256910 -1.263596 -2.717417 0
M  V30 34 H 5.004186 -1.479903 -0.771763 0
M  V30 35 H 5.793323 -3.126990 -0.566158 0
M  V30 36 H 4.387792 -1.954969 1.403062 0
M  V30 37 H 4.401149 -3.687451 1.170079 0
M  V30 38 H 3.217298 -0.673077 2.070344 0
M  V30 39 H 1.606423 1.017826 2.585916 0
M  V30 40 H -0.063327 1.671814 3.475642 0
M  V30 41 H 0.412196 2.667318 2.057814 0
M  V30 42 H -1.045456 4.499202 1.301914 0
M  V30 43 H -2.847547 6.113809 1.927055 0
M  V30 44 H -4.304536 5.637388 3.818366 0
M  V30 45 H -4.017467 3.605890 5.093916 0
M  V30 46 H -2.291590 2.012590 4.529017 0
M  V30 47 H -1.219012 -2.652868 -1.255057 0
M  V30 48 H -3.826927 -3.394615 0.311254 0
M  V30 49 H -6.222236 -3.437107 -0.045244 0
M  V30 50 H -3.426209 -0.715676 -2.961490 0
M  V30 51 H 0.407294 -2.534237 -0.327298 0
M  V30 52 H 2.744056 -4.867390 0.485367 0
M  V30 53 H 1.357302 -4.291074 -0.458207 0
M  V30 54 H 2.541648 -4.276671 -2.369325 0
M  V30 55 H 3.823630 -5.143957 -1.492374 0
M  V30 END ATOM
M  V30 BEGIN BOND
M  V30 1 1 1 2
M  V30 2 1 2 3
M  V30 3 1 3 4
M  V30 4 1 4 5
M  V30 5 1 5 6
M  V30 6 2 6 7
M  V30 7 1 7 8
M  V30 8 2 8 9
M  V30 9 1 9 10
M  V30 10 1 10 11
M  V30 11 1 11 12
M  V30 12 2 12 13
M  V30 13 1 13 14
M  V30 14 2 14 15
M  V30 15 1 15 16
M  V30 16 2 16 17
M  V30 17 1 9 18
M  V30 18 1 18 19
M  V30 19 2 19 20
M  V30 20 1 19 21
M  V30 21 1 21 22
M  V30 22 2 22 23
M  V30 23 1 23 24
M  V30 24 2 24 25
M  V30 25 1 25 26
M  V30 26 2 26 27
M  V30 27 2 18 28
M  V30 28 1 5 29
M  V30 29 1 29 30
M  V30 30 1 30 2
M  V30 31 1 28 6
M  V30 32 1 17 12
M  V30 33 1 27 22
M  V30 34 1 1 31
M  V30 35 1 1 32
M  V30 36 1 1 33
M  V30 37 1 3 34
M  V30 38 1 3 35
M  V30 39 1 4 36
M  V30 40 1 4 37
M  V30 41 1 7 38
M  V30 42 1 8 39
M  V30 43 1 11 40
M  V30 44 1 11 41
M  V30 45 1 13 42
M  V30 46 1 14 43
M  V30 47 1 15 44
M  V30 48 1 16 45
M  V30 49 1 17 46
M  V30 50 1 21 47
M  V30 51 1 23 48
M  V30 52 1 24 49
M  V30 53 1 27 50
M  V30 54 1 28 51
M  V30 55 1 29 52
M  V30 56 1 29 53
M  V30 57 1 30 54
M  V30 58 1 30 55
M  V30 END BOND
M  V30 END CTAB
M  END
>  <Dataset>  (785) 
ChEMBL_Kinases

>  <Ligand_Instance>  (785) 
nan

>  <PDB_ID>  (785) 
nan

>  <Standardized_SMILES>  (785) 
CN1CCN(c2ccc(OCc3ccccc3)c(C(=O)Nc3ccnnc3)c2)CC1

>  <Name>  (785) 
nan

>  <Pocket>  (785) 
nan

>  <ATP_Site>  (785) 
nan

>  <Peripheral>  (785) 
nan

>  <Num_H_Atoms_ProtBoundConf>  (785) 
nan

>  <Num_Resolved_Atoms>  (785) 
nan

>  <Num_Not_Resolved_Atoms>  (785) 
nan

$$$$
CHEMBL4435927
     RDKit          3D

  0  0  0  0  0  0  0  0  0  0999 V3000
M  V30 BEGIN CTAB
M  V30 COUNTS 38 40 0 0 0
M  V30 BEGIN ATOM
M  V30 1 C 1.796196 -2.561445 1.770099 0
M  V30 2 C 0.562600 -2.994418 1.026644 0
M  V30 3 C 0.235069 -4.441612 1.373667 0
M  V30 4 C 0.810153 -2.977533 -0.467969 0
M  V30 5 N -0.580808 -2.171159 1.355908 0
M  V30 6 C -0.615932 -0.771401 1.109428 0
M  V30 7 C 0.428619 -0.078231 0.534223 0
M  V30 8 C 0.429588 1.265179 0.280768 0
M  V30 9 C 1.538214 1.989828 -0.327576 0
M  V30 10 C 2.736393 1.443392 -0.734620 0
M  V30 11 C 3.745180 2.172800 -1.301360 0
M  V30 12 N 3.582575 3.494938 -1.481178 0
M  V30 13 N 2.440024 4.075365 -1.104214 0
M  V30 14 C 1.455654 3.348515 -0.548346 0
M  V30 15 N -0.682817 1.977383 0.620083 0
M  V30 16 C -1.748235 1.391310 1.183944 0
M  V30 17 C -2.867049 2.123061 1.522315 0
M  V30 18 N -3.954283 1.564844 2.090256 0
M  V30 19 C -3.933573 0.224711 2.333901 0
M  V30 20 C -2.814312 -0.502884 1.994555 0
M  V30 21 C -1.695851 0.033903 1.417356 0
M  V30 22 H 1.596316 -1.638056 2.360831 0
M  V30 23 H 2.053980 -3.369686 2.514225 0
M  V30 24 H 2.623497 -2.387814 1.080227 0
M  V30 25 H -0.044111 -4.544380 2.444690 0
M  V30 26 H -0.673614 -4.738060 0.786568 0
M  V30 27 H 1.046220 -5.117487 1.051802 0
M  V30 28 H 1.842878 -2.689621 -0.732937 0
M  V30 29 H 0.135706 -2.238969 -0.988624 0
M  V30 30 H 0.526724 -3.954851 -0.954927 0
M  V30 31 H -1.390087 -2.648874 1.787190 0
M  V30 32 H 1.319619 -0.572543 0.246790 0
M  V30 33 H 2.882752 0.381620 -0.596925 0
M  V30 34 H 4.676353 1.702708 -1.609144 0
M  V30 35 H 0.579879 3.918464 -0.282952 0
M  V30 36 H -2.825954 3.183260 1.305097 0
M  V30 37 H -4.824373 -0.172879 2.787974 0
M  V30 38 H -2.918467 -1.540512 2.234412 0
M  V30 END ATOM
M  V30 BEGIN BOND
M  V30 1 1 1 2
M  V30 2 1 2 3
M  V30 3 1 2 4
M  V30 4 1 2 5
M  V30 5 1 5 6
M  V30 6 2 6 7
M  V30 7 1 7 8
M  V30 8 1 8 9
M  V30 9 2 9 10
M  V30 10 1 10 11
M  V30 11 2 11 12
M  V30 12 1 12 13
M  V30 13 2 13 14
M  V30 14 2 8 15
M  V30 15 1 15 16
M  V30 16 2 16 17
M  V30 17 1 17 18
M  V30 18 2 18 19
M  V30 19 1 19 20
M  V30 20 2 20 21
M  V30 21 1 21 6
M  V30 22 1 14 9
M  V30 23 1 21 16
M  V30 24 1 1 22
M  V30 25 1 1 23
M  V30 26 1 1 24
M  V30 27 1 3 25
M  V30 28 1 3 26
M  V30 29 1 3 27
M  V30 30 1 4 28
M  V30 31 1 4 29
M  V30 32 1 4 30
M  V30 33 1 5 31
M  V30 34 1 7 32
M  V30 35 1 10 33
M  V30 36 1 11 34
M  V30 37 1 14 35
M  V30 38 1 17 36
M  V30 39 1 19 37
M  V30 40 1 20 38
M  V30 END BOND
M  V30 END CTAB
M  END
>  <Dataset>  (786) 
ChEMBL_Kinases

>  <Ligand_Instance>  (786) 
nan

>  <PDB_ID>  (786) 
nan

>  <Standardized_SMILES>  (786) 
CC(C)(C)Nc1cc(-c2ccnnc2)nc2cnccc12

>  <Name>  (786) 
nan

>  <Pocket>  (786) 
nan

>  <ATP_Site>  (786) 
nan

>  <Peripheral>  (786) 
nan

>  <Num_H_Atoms_ProtBoundConf>  (786) 
nan

>  <Num_Resolved_Atoms>  (786) 
nan

>  <Num_Not_Resolved_Atoms>  (786) 
nan

$$$$
CHEMBL443571
     RDKit          3D

  0  0  0  0  0  0  0  0  0  0999 V3000
M  V30 BEGIN CTAB
M  V30 COUNTS 29 30 0 0 0
M  V30 BEGIN ATOM
M  V30 1 C -4.024535 -1.280096 4.323858 0
M  V30 2 O -2.661477 -1.019646 4.619779 0
M  V30 3 C -1.773592 -0.896879 3.553375 0
M  V30 4 C -2.223209 -1.027523 2.254384 0
M  V30 5 C -1.318411 -0.901531 1.191595 0
M  V30 6 C -0.012550 -0.649039 1.555111 0
M  V30 7 C 0.933630 -0.519157 0.394448 0
M  V30 8 C 2.239913 -0.279054 0.425632 0
M  V30 9 C 2.980853 -0.186284 -0.722422 0
M  V30 10 N 4.379334 0.065815 -0.821009 0
M  V30 11 C 2.257831 -0.362442 -1.901283 0
M  V30 12 C 2.585160 -0.356610 -3.352807 0
M  V30 13 N 1.543220 -0.581013 -4.262226 0
M  V30 14 O 3.792680 -0.139887 -3.463098 0
M  V30 15 S 0.504396 -0.658647 -1.242750 0
M  V30 16 C 0.471542 -0.513002 2.829497 0
M  V30 17 C -0.454530 -0.643563 3.874121 0
M  V30 18 H -4.011786 -2.218028 3.694761 0
M  V30 19 H -4.626039 -1.470165 5.207521 0
M  V30 20 H -4.448828 -0.493057 3.655054 0
M  V30 21 H -3.254635 -1.224441 2.034602 0
M  V30 22 H -1.675471 -1.004202 0.188846 0
M  V30 23 H 2.742881 -0.150878 1.396647 0
M  V30 24 H 4.985299 -0.549902 -1.439354 0
M  V30 25 H 4.781123 0.865196 -0.272140 0
M  V30 26 H 1.458103 0.469293 -4.388324 0
M  V30 27 H 1.112704 -1.476424 -4.599071 0
M  V30 28 H 1.513949 -0.314661 3.033387 0
M  V30 29 H -0.074657 -0.536572 4.880560 0
M  V30 END ATOM
M  V30 BEGIN BOND
M  V30 1 1 1 2
M  V30 2 1 2 3
M  V30 3 2 3 4
M  V30 4 1 4 5
M  V30 5 2 5 6
M  V30 6 1 6 7
M  V30 7 2 7 8
M  V30 8 1 8 9
M  V30 9 1 9 10
M  V30 10 2 9 11
M  V30 11 1 11 12
M  V30 12 1 12 13
M  V30 13 2 12 14
M  V30 14 1 11 15
M  V30 15 1 6 16
M  V30 16 2 16 17
M  V30 17 1 17 3
M  V30 18 1 15 7
M  V30 19 1 1 18
M  V30 20 1 1 19
M  V30 21 1 1 20
M  V30 22 1 4 21
M  V30 23 1 5 22
M  V30 24 1 8 23
M  V30 25 1 10 24
M  V30 26 1 10 25
M  V30 27 1 13 26
M  V30 28 1 13 27
M  V30 29 1 16 28
M  V30 30 1 17 29
M  V30 END BOND
M  V30 END CTAB
M  END
>  <Dataset>  (787) 
ChEMBL_Kinases

>  <Ligand_Instance>  (787) 
nan

>  <PDB_ID>  (787) 
nan

>  <Standardized_SMILES>  (787) 
COc1ccc(-c2cc(N)c(C(N)=O)s2)cc1

>  <Name>  (787) 
nan

>  <Pocket>  (787) 
nan

>  <ATP_Site>  (787) 
nan

>  <Peripheral>  (787) 
nan

>  <Num_H_Atoms_ProtBoundConf>  (787) 
nan

>  <Num_Resolved_Atoms>  (787) 
nan

>  <Num_Not_Resolved_Atoms>  (787) 
nan

$$$$
CHEMBL4435681
     RDKit          3D

  0  0  0  0  0  0  0  0  0  0999 V3000
M  V30 BEGIN CTAB
M  V30 COUNTS 49 52 0 0 0
M  V30 BEGIN ATOM
M  V30 1 C 1.716245 -4.521547 1.307280 0
M  V30 2 C 2.667865 -3.534744 1.950060 0
M  V30 3 C 2.297332 -3.484822 3.418101 0
M  V30 4 C 4.069332 -4.041711 1.782374 0
M  V30 5 O 2.542419 -2.247312 1.408849 0
M  V30 6 C 2.737674 -1.934710 0.079270 0
M  V30 7 O 3.052078 -2.819179 -0.757791 0
M  V30 8 N 2.552966 -0.561209 -0.239219 0
M  V30 9 C 2.211091 0.567003 0.600741 0
M  V30 10 C 0.748825 0.834167 0.450693 0
M  V30 11 C 0.376703 0.921226 -0.987796 0
M  V30 12 C 1.327052 0.515345 -1.894831 0
M  V30 13 S 0.587261 0.761388 -3.464476 0
M  V30 14 C -0.957768 1.393555 -2.857836 0
M  V30 15 N -2.027317 1.799450 -3.547107 0
M  V30 16 C -3.114876 2.253309 -2.907190 0
M  V30 17 N -3.022055 2.256211 -1.572722 0
M  V30 18 C -1.954534 1.850136 -0.890006 0
M  V30 19 N -2.140648 1.963794 0.515332 0
M  V30 20 C -3.054996 1.260624 1.354290 0
M  V30 21 C -3.988142 1.958510 2.120344 0
M  V30 22 C -4.910268 1.361162 2.948164 0
M  V30 23 C -4.941099 -0.002128 3.049377 0
M  V30 24 Cl -6.088430 -0.817610 4.084257 0
M  V30 25 C -4.042724 -0.745400 2.314807 0
M  V30 26 C -3.140375 -0.104636 1.501658 0
M  V30 27 F -2.301010 -0.881604 0.803841 0
M  V30 28 C -0.812738 1.377344 -1.492970 0
M  V30 29 C 2.675657 -0.021587 -1.596446 0
M  V30 30 H 1.858231 -5.497839 1.835838 0
M  V30 31 H 0.655761 -4.221922 1.385415 0
M  V30 32 H 2.039167 -4.658475 0.259855 0
M  V30 33 H 2.025613 -4.519357 3.732067 0
M  V30 34 H 3.103151 -3.102530 4.043521 0
M  V30 35 H 1.382320 -2.874746 3.558280 0
M  V30 36 H 4.413721 -4.508902 2.740943 0
M  V30 37 H 4.770250 -3.227393 1.512148 0
M  V30 38 H 4.101163 -4.833611 0.995337 0
M  V30 39 H 2.399219 0.310196 1.677395 0
M  V30 40 H 2.818768 1.460070 0.404643 0
M  V30 41 H 0.139224 0.136527 1.027107 0
M  V30 42 H 0.589843 1.835051 0.962796 0
M  V30 43 H -3.888754 2.542655 -3.576524 0
M  V30 44 H -1.630986 2.594157 1.146351 0
M  V30 45 H -3.965183 3.054090 2.039949 0
M  V30 46 H -5.598935 1.965772 3.509278 0
M  V30 47 H -4.054410 -1.835769 2.382996 0
M  V30 48 H 3.431128 0.773331 -1.603437 0
M  V30 49 H 2.938089 -0.853777 -2.269408 0
M  V30 END ATOM
M  V30 BEGIN BOND
M  V30 1 1 1 2
M  V30 2 1 2 3
M  V30 3 1 2 4
M  V30 4 1 2 5
M  V30 5 1 5 6
M  V30 6 2 6 7
M  V30 7 1 6 8
M  V30 8 1 8 9
M  V30 9 1 9 10
M  V30 10 1 10 11
M  V30 11 2 11 12
M  V30 12 1 12 13
M  V30 13 1 13 14
M  V30 14 2 14 15
M  V30 15 1 15 16
M  V30 16 2 16 17
M  V30 17 1 17 18
M  V30 18 1 18 19
M  V30 19 1 19 20
M  V30 20 2 20 21
M  V30 21 1 21 22
M  V30 22 2 22 23
M  V30 23 1 23 24
M  V30 24 1 23 25
M  V30 25 2 25 26
M  V30 26 1 26 27
M  V30 27 2 18 28
M  V30 28 1 12 29
M  V30 29 1 29 8
M  V30 30 1 28 11
M  V30 31 1 28 14
M  V30 32 1 26 20
M  V30 33 1 1 30
M  V30 34 1 1 31
M  V30 35 1 1 32
M  V30 36 1 3 33
M  V30 37 1 3 34
M  V30 38 1 3 35
M  V30 39 1 4 36
M  V30 40 1 4 37
M  V30 41 1 4 38
M  V30 42 1 9 39
M  V30 43 1 9 40
M  V30 44 1 10 41
M  V30 45 1 10 42
M  V30 46 1 16 43
M  V30 47 1 19 44
M  V30 48 1 21 45
M  V30 49 1 22 46
M  V30 50 1 25 47
M  V30 51 1 29 48
M  V30 52 1 29 49
M  V30 END BOND
M  V30 END CTAB
M  END
>  <Dataset>  (788) 
ChEMBL_Kinases

>  <Ligand_Instance>  (788) 
nan

>  <PDB_ID>  (788) 
nan

>  <Standardized_SMILES>  (788) 
CC(C)(C)OC(=O)N1CCc2c(sc3ncnc(Nc4ccc(Cl)cc4F)c23)C1

>  <Name>  (788) 
nan

>  <Pocket>  (788) 
nan

>  <ATP_Site>  (788) 
nan

>  <Peripheral>  (788) 
nan

>  <Num_H_Atoms_ProtBoundConf>  (788) 
nan

>  <Num_Resolved_Atoms>  (788) 
nan

>  <Num_Not_Resolved_Atoms>  (788) 
nan

$$$$
CHEMBL4435679
     RDKit          3D

  0  0  0  0  0  0  0  0  0  0999 V3000
M  V30 BEGIN CTAB
M  V30 COUNTS 54 58 0 0 0
M  V30 BEGIN ATOM
M  V30 1 C 4.290249 -3.812932 4.593330 0
M  V30 2 N 4.109903 -2.563520 3.914573 0
M  V30 3 C 4.445831 -1.294082 4.170566 0
M  V30 4 C 4.043051 -0.397833 3.179485 0
M  V30 5 N 4.276125 1.004066 3.186423 0
M  V30 6 C 3.805106 1.654667 2.019901 0
M  V30 7 N 4.683331 2.525952 1.525708 0
M  V30 8 C 4.411991 3.249335 0.403347 0
M  V30 9 C 3.165794 3.039402 -0.214062 0
M  V30 10 C 2.272961 2.146090 0.298119 0
M  V30 11 C 0.957170 1.885698 -0.318954 0
M  V30 12 C 0.560147 2.555757 -1.453843 0
M  V30 13 C -0.649879 2.306688 -2.060975 0
M  V30 14 C -1.468527 1.357821 -1.494947 0
M  V30 15 C -1.079441 0.690457 -0.365411 0
M  V30 16 C 0.139596 0.915539 0.275379 0
M  V30 17 C -2.086331 -0.323973 0.026941 0
M  V30 18 O -2.025234 -1.100796 1.027533 0
M  V30 19 N -3.114050 -0.210200 -0.975902 0
M  V30 20 C -4.226567 -1.159028 -0.924135 0 CFG=2
M  V30 21 C -5.085315 -0.975639 0.302967 0
M  V30 22 O -6.128760 -1.928475 0.195131 0
M  V30 23 C -3.678056 -2.511282 -1.003303 0
M  V30 24 C -2.808376 -2.823629 -2.049720 0
M  V30 25 C -2.224461 -4.065667 -2.191459 0
M  V30 26 C -2.473101 -5.094091 -1.284196 0
M  V30 27 C -3.327996 -4.820654 -0.238328 0
M  V30 28 Cl -3.644730 -6.092805 0.913183 0
M  V30 29 C -3.887580 -3.578467 -0.130735 0
M  V30 30 C -2.817192 0.887350 -1.893745 0
M  V30 31 N 2.629624 1.475390 1.414103 0
M  V30 32 C 3.420645 -1.259612 2.287904 0
M  V30 33 N 3.477463 -2.503186 2.740979 0
M  V30 34 H 4.762196 -3.656570 5.575357 0
M  V30 35 H 3.365084 -4.425207 4.631151 0
M  V30 36 H 5.006924 -4.424719 3.971176 0
M  V30 37 H 4.984224 -1.054051 5.087557 0
M  V30 38 H 4.741699 1.450174 3.995839 0
M  V30 39 H 5.146024 3.954124 0.012309 0
M  V30 40 H 2.946182 3.593118 -1.090930 0
M  V30 41 H 1.159692 3.310937 -1.935028 0
M  V30 42 H -0.966180 2.827187 -2.951463 0
M  V30 43 H 0.457082 0.391810 1.172094 0
M  V30 44 H -4.880113 -0.920024 -1.791074 0
M  V30 45 H -5.600804 0.007144 0.287247 0
M  V30 46 H -4.531826 -1.067292 1.236602 0
M  V30 47 H -6.552660 -2.126403 1.052615 0
M  V30 48 H -2.537324 -2.112667 -2.825117 0
M  V30 49 H -1.543633 -4.311052 -3.010938 0
M  V30 50 H -2.043711 -6.069559 -1.359529 0
M  V30 51 H -4.528586 -3.432802 0.700494 0
M  V30 52 H -2.866388 0.556954 -2.941263 0
M  V30 53 H -3.562631 1.687960 -1.648081 0
M  V30 54 H 2.972315 -0.880854 1.363825 0
M  V30 END ATOM
M  V30 BEGIN BOND
M  V30 1 1 1 2
M  V30 2 1 2 3
M  V30 3 2 3 4
M  V30 4 1 4 5
M  V30 5 1 5 6
M  V30 6 2 6 7
M  V30 7 1 7 8
M  V30 8 2 8 9
M  V30 9 1 9 10
M  V30 10 1 10 11
M  V30 11 2 11 12
M  V30 12 1 12 13
M  V30 13 2 13 14
M  V30 14 1 14 15
M  V30 15 2 15 16
M  V30 16 1 15 17
M  V30 17 2 17 18
M  V30 18 1 17 19
M  V30 19 1 19 20
M  V30 20 1 20 21
M  V30 21 1 21 22
M  V30 22 1 20 23
M  V30 23 2 23 24
M  V30 24 1 24 25
M  V30 25 2 25 26
M  V30 26 1 26 27
M  V30 27 1 27 28
M  V30 28 2 27 29
M  V30 29 1 19 30
M  V30 30 2 10 31
M  V30 31 1 4 32
M  V30 32 2 32 33
M  V30 33 1 33 2
M  V30 34 1 31 6
M  V30 35 1 16 11
M  V30 36 1 29 23
M  V30 37 1 30 14
M  V30 38 1 1 34
M  V30 39 1 1 35
M  V30 40 1 1 36
M  V30 41 1 3 37
M  V30 42 1 5 38
M  V30 43 1 8 39
M  V30 44 1 9 40
M  V30 45 1 12 41
M  V30 46 1 13 42
M  V30 47 1 16 43
M  V30 48 1 20 44 CFG=3
M  V30 49 1 21 45
M  V30 50 1 21 46
M  V30 51 1 22 47
M  V30 52 1 24 48
M  V30 53 1 25 49
M  V30 54 1 26 50
M  V30 55 1 29 51
M  V30 56 1 30 52
M  V30 57 1 30 53
M  V30 58 1 32 54
M  V30 END BOND
M  V30 END CTAB
M  END
>  <Dataset>  (789) 
ChEMBL_Kinases

>  <Ligand_Instance>  (789) 
nan

>  <PDB_ID>  (789) 
nan

>  <Standardized_SMILES>  (789) 
Cn1cc(Nc2nccc(-c3ccc4c(c3)C(=O)N([C@H](CO)c3cccc(Cl)c3)C4)n2)cn1

>  <Name>  (789) 
nan

>  <Pocket>  (789) 
nan

>  <ATP_Site>  (789) 
nan

>  <Peripheral>  (789) 
nan

>  <Num_H_Atoms_ProtBoundConf>  (789) 
nan

>  <Num_Resolved_Atoms>  (789) 
nan

>  <Num_Not_Resolved_Atoms>  (789) 
nan

$$$$
CHEMBL4753453
     RDKit          3D

  0  0  0  0  0  0  0  0  0  0999 V3000
M  V30 BEGIN CTAB
M  V30 COUNTS 69 75 0 0 0
M  V30 BEGIN ATOM
M  V30 1 C 4.651209 -0.069291 7.460891 0
M  V30 2 O 4.419426 1.337863 7.429813 0
M  V30 3 C 3.915671 1.922535 6.266318 0
M  V30 4 C 3.677412 3.279300 6.193452 0
M  V30 5 C 3.182238 3.949574 5.092155 0
M  V30 6 C 2.907199 3.184480 3.977530 0
M  V30 7 C 3.127951 1.821561 3.998213 0
M  V30 8 C 2.864889 0.943885 2.867263 0
M  V30 9 C 3.792958 -0.015457 2.503282 0
M  V30 10 N 3.592746 -0.845865 1.468397 0
M  V30 11 C 2.462297 -0.772899 0.736030 0
M  V30 12 C 1.469511 0.164392 1.030038 0
M  V30 13 N 0.261358 0.488644 0.511204 0
M  V30 14 C -0.268245 1.508986 1.226185 0
M  V30 15 C -1.541610 2.197993 1.050607 0
M  V30 16 N -1.995356 3.221744 1.823466 0
M  V30 17 N -3.176312 3.614562 1.393145 0
M  V30 18 C -3.488005 2.849458 0.345607 0
M  V30 19 C -4.608062 2.848980 -0.464843 0
M  V30 20 C -4.644882 1.921769 -1.489103 0
M  V30 21 C -3.651313 1.003261 -1.758830 0
M  V30 22 C -3.750554 0.048206 -2.856521 0
M  V30 23 C -4.793990 -0.049653 -3.719137 0
M  V30 24 N -4.815697 -0.957781 -4.709834 0
M  V30 25 C -3.825932 -1.840819 -4.939164 0
M  V30 26 C -2.755552 -1.768352 -4.084152 0
M  V30 27 N -1.601371 -2.629531 -4.170943 0
M  V30 28 C -1.789624 -3.825422 -3.388212 0
M  V30 29 O -2.949274 -3.723331 -2.863291 0
M  V30 30 C -0.656774 -4.807806 -3.393381 0
M  V30 31 C -1.013167 -6.002075 -2.534514 0
M  V30 32 C -1.488651 -5.510746 -1.207334 0
M  V30 33 C -0.750095 -4.371209 -0.618122 0
M  V30 34 C 0.469780 -3.903189 -1.322536 0
M  V30 35 C 0.585478 -4.218149 -2.764946 0
M  V30 36 C -2.712942 -0.837646 -3.054081 0
M  V30 37 N -2.578885 1.042407 -0.941412 0
M  V30 38 C -2.487740 1.932244 0.081809 0
M  V30 39 N 0.649243 1.777474 2.172711 0
M  V30 40 C 1.716150 0.990039 2.093027 0
M  V30 41 C 3.622901 1.192515 5.117291 0
M  V30 42 H 5.104732 -0.354103 8.413827 0
M  V30 43 H 3.735932 -0.662393 7.321669 0
M  V30 44 H 5.395115 -0.339744 6.663969 0
M  V30 45 H 3.892892 3.878137 7.065755 0
M  V30 46 H 3.021202 5.018637 5.110349 0
M  V30 47 H 2.520442 3.618963 3.076900 0
M  V30 48 H 4.698902 -0.075663 3.088933 0
M  V30 49 H 2.310914 -1.432384 -0.081353 0
M  V30 50 H -0.178094 0.028235 -0.298214 0
M  V30 51 H -3.731575 4.399622 1.836458 0
M  V30 52 H -5.409552 3.552312 -0.287867 0
M  V30 53 H -5.542738 1.965201 -2.091414 0
M  V30 54 H -5.629817 0.617107 -3.610080 0
M  V30 55 H -3.791025 -2.578938 -5.706566 0
M  V30 56 H -0.742155 -2.385430 -4.744754 0
M  V30 57 H -0.406132 -5.069336 -4.432863 0
M  V30 58 H -0.105744 -6.612343 -2.349226 0
M  V30 59 H -1.815822 -6.618064 -2.969207 0
M  V30 60 H -2.590239 -5.314649 -1.189587 0
M  V30 61 H -1.380980 -6.392255 -0.503728 0
M  V30 62 H -1.454081 -3.486458 -0.572697 0
M  V30 63 H -0.529676 -4.559436 0.466450 0
M  V30 64 H 1.343154 -4.392621 -0.796447 0
M  V30 65 H 0.672790 -2.808672 -1.160174 0
M  V30 66 H 1.405987 -4.936372 -2.984884 0
M  V30 67 H 0.825617 -3.299545 -3.336713 0
M  V30 68 H -1.850782 -0.785857 -2.372206 0
M  V30 69 H 3.815190 0.127620 5.189918 0
M  V30 END ATOM
M  V30 BEGIN BOND
M  V30 1 1 1 2
M  V30 2 1 2 3
M  V30 3 2 3 4
M  V30 4 1 4 5
M  V30 5 2 5 6
M  V30 6 1 6 7
M  V30 7 1 7 8
M  V30 8 2 8 9
M  V30 9 1 9 10
M  V30 10 2 10 11
M  V30 11 1 11 12
M  V30 12 1 12 13
M  V30 13 1 13 14
M  V30 14 1 14 15
M  V30 15 2 15 16
M  V30 16 1 16 17
M  V30 17 1 17 18
M  V30 18 2 18 19
M  V30 19 1 19 20
M  V30 20 2 20 21
M  V30 21 1 21 22
M  V30 22 2 22 23
M  V30 23 1 23 24
M  V30 24 2 24 25
M  V30 25 1 25 26
M  V30 26 1 26 27
M  V30 27 1 27 28
M  V30 28 2 28 29
M  V30 29 1 28 30
M  V30 30 1 30 31
M  V30 31 1 31 32
M  V30 32 1 32 33
M  V30 33 1 33 34
M  V30 34 1 34 35
M  V30 35 2 26 36
M  V30 36 1 21 37
M  V30 37 2 37 38
M  V30 38 2 14 39
M  V30 39 1 39 40
M  V30 40 2 7 41
M  V30 41 1 41 3
M  V30 42 1 40 8
M  V30 43 2 40 12
M  V30 44 1 38 15
M  V30 45 1 38 18
M  V30 46 1 36 22
M  V30 47 1 35 30
M  V30 48 1 1 42
M  V30 49 1 1 43
M  V30 50 1 1 44
M  V30 51 1 4 45
M  V30 52 1 5 46
M  V30 53 1 6 47
M  V30 54 1 9 48
M  V30 55 1 11 49
M  V30 56 1 13 50
M  V30 57 1 17 51
M  V30 58 1 19 52
M  V30 59 1 20 53
M  V30 60 1 23 54
M  V30 61 1 25 55
M  V30 62 1 27 56
M  V30 63 1 30 57
M  V30 64 1 31 58
M  V30 65 1 31 59
M  V30 66 1 32 60
M  V30 67 1 32 61
M  V30 68 1 33 62
M  V30 69 1 33 63
M  V30 70 1 34 64
M  V30 71 1 34 65
M  V30 72 1 35 66
M  V30 73 1 35 67
M  V30 74 1 36 68
M  V30 75 1 41 69
M  V30 END BOND
M  V30 END CTAB
M  END
>  <Dataset>  (790) 
ChEMBL_Kinases

>  <Ligand_Instance>  (790) 
nan

>  <PDB_ID>  (790) 
nan

>  <Standardized_SMILES>  (790) 
COc1cccc(-c2cncc3[nH]c(-c4n[nH]c5ccc(-c6cncc(NC(=O)C7CCCCC7)c6)nc45)nc23)c1

>  <Name>  (790) 
nan

>  <Pocket>  (790) 
nan

>  <ATP_Site>  (790) 
nan

>  <Peripheral>  (790) 
nan

>  <Num_H_Atoms_ProtBoundConf>  (790) 
nan

>  <Num_Resolved_Atoms>  (790) 
nan

>  <Num_Not_Resolved_Atoms>  (790) 
nan

$$$$
CHEMBL4435496
     RDKit          3D

  0  0  0  0  0  0  0  0  0  0999 V3000
M  V30 BEGIN CTAB
M  V30 COUNTS 48 52 0 0 0
M  V30 BEGIN ATOM
M  V30 1 C 1.365561 -5.656266 -0.104640 0
M  V30 2 C 1.319405 -4.196745 0.182054 0
M  V30 3 N 2.019976 -3.171833 -0.318086 0
M  V30 4 C 1.621624 -2.016462 0.256162 0
M  V30 5 C 2.207931 -0.720863 -0.089729 0
M  V30 6 C 1.350377 0.215592 -0.666779 0
M  V30 7 C 1.732515 1.479478 -1.052906 0
M  V30 8 C 3.067345 1.839204 -0.849972 0
M  V30 9 C 3.464092 3.114870 -1.236509 0
M  V30 10 C 4.793348 3.413159 -1.011062 0
M  V30 11 C 5.706817 2.547851 -0.446817 0
M  V30 12 C 5.245345 1.297880 -0.086738 0
M  V30 13 C 3.933795 0.922964 -0.278332 0
M  V30 14 C 3.511933 -0.340729 0.097533 0
M  V30 15 C 0.623343 -2.359874 1.155159 0
M  V30 16 C -0.040431 -1.343154 1.962323 0
M  V30 17 C 0.691703 -0.602483 2.866220 0
M  V30 18 C 0.017193 0.345364 3.608025 0
M  V30 19 N -1.329499 0.546833 3.455901 0
M  V30 20 C -1.974913 -0.208123 2.560577 0
M  V30 21 N -3.337739 0.131089 2.542163 0
M  V30 22 C -4.373965 -0.393948 1.763911 0
M  V30 23 O -4.143173 -1.331287 0.906391 0
M  V30 24 C -5.525650 -0.853286 1.020705 0
M  V30 25 C -6.459138 0.267549 0.566123 0
M  V30 26 C -6.899862 -0.753550 1.563654 0
M  V30 27 C -1.387916 -1.164312 1.788096 0
M  V30 28 N 0.449437 -3.701959 1.097843 0
M  V30 29 H 0.398086 -6.007975 -0.557525 0
M  V30 30 H 1.525390 -6.258271 0.807164 0
M  V30 31 H 2.128811 -5.876335 -0.879998 0
M  V30 32 H 0.295463 -0.047429 -0.835210 0
M  V30 33 H 1.033580 2.164587 -1.493691 0
M  V30 34 H 2.785977 3.834109 -1.684603 0
M  V30 35 H 5.106325 4.411841 -1.313098 0
M  V30 36 H 6.729967 2.841915 -0.297815 0
M  V30 37 H 5.945649 0.592233 0.362008 0
M  V30 38 H 4.166291 -1.073153 0.544863 0
M  V30 39 H 1.754236 -0.792250 2.956714 0
M  V30 40 H 0.574585 0.933333 4.319180 0
M  V30 41 H -4.018714 0.770580 2.991380 0
M  V30 42 H -5.337434 -1.674441 0.272519 0
M  V30 43 H -6.250487 1.308909 0.904925 0
M  V30 44 H -6.799276 0.192651 -0.470491 0
M  V30 45 H -7.066076 -0.453163 2.631560 0
M  V30 46 H -7.690015 -1.424074 1.194897 0
M  V30 47 H -1.925975 -1.742788 1.090116 0
M  V30 48 H -0.261814 -4.174452 1.700560 0
M  V30 END ATOM
M  V30 BEGIN BOND
M  V30 1 1 1 2
M  V30 2 2 2 3
M  V30 3 1 3 4
M  V30 4 1 4 5
M  V30 5 2 5 6
M  V30 6 1 6 7
M  V30 7 2 7 8
M  V30 8 1 8 9
M  V30 9 2 9 10
M  V30 10 1 10 11
M  V30 11 2 11 12
M  V30 12 1 12 13
M  V30 13 2 13 14
M  V30 14 2 4 15
M  V30 15 1 15 16
M  V30 16 2 16 17
M  V30 17 1 17 18
M  V30 18 2 18 19
M  V30 19 1 19 20
M  V30 20 1 20 21
M  V30 21 1 21 22
M  V30 22 2 22 23
M  V30 23 1 22 24
M  V30 24 1 24 25
M  V30 25 1 25 26
M  V30 26 2 20 27
M  V30 27 1 15 28
M  V30 28 1 28 2
M  V30 29 1 14 5
M  V30 30 1 27 16
M  V30 31 1 13 8
M  V30 32 1 26 24
M  V30 33 1 1 29
M  V30 34 1 1 30
M  V30 35 1 1 31
M  V30 36 1 6 32
M  V30 37 1 7 33
M  V30 38 1 9 34
M  V30 39 1 10 35
M  V30 40 1 11 36
M  V30 41 1 12 37
M  V30 42 1 14 38
M  V30 43 1 17 39
M  V30 44 1 18 40
M  V30 45 1 21 41
M  V30 46 1 24 42
M  V30 47 1 25 43
M  V30 48 1 25 44
M  V30 49 1 26 45
M  V30 50 1 26 46
M  V30 51 1 27 47
M  V30 52 1 28 48
M  V30 END BOND
M  V30 END CTAB
M  END
>  <Dataset>  (791) 
ChEMBL_Kinases

>  <Ligand_Instance>  (791) 
nan

>  <PDB_ID>  (791) 
nan

>  <Standardized_SMILES>  (791) 
Cc1nc(-c2ccc3ccccc3c2)c(-c2ccnc(NC(=O)C3CC3)c2)[nH]1

>  <Name>  (791) 
nan

>  <Pocket>  (791) 
nan

>  <ATP_Site>  (791) 
nan

>  <Peripheral>  (791) 
nan

>  <Num_H_Atoms_ProtBoundConf>  (791) 
nan

>  <Num_Resolved_Atoms>  (791) 
nan

>  <Num_Not_Resolved_Atoms>  (791) 
nan

$$$$
CHEMBL4436050
     RDKit          3D

  0  0  0  0  0  0  0  0  0  0999 V3000
M  V30 BEGIN CTAB
M  V30 COUNTS 39 42 0 0 0
M  V30 BEGIN ATOM
M  V30 1 C -1.427566 -4.767829 4.414880 0
M  V30 2 C -0.584539 -3.776428 3.705045 0
M  V30 3 C 0.764003 -3.634779 4.062366 0
M  V30 4 C 1.515281 -2.700541 3.379344 0
M  V30 5 C 0.980236 -1.911853 2.365880 0
M  V30 6 N 1.776541 -0.977691 1.694164 0
M  V30 7 C 1.273320 -0.174176 0.657622 0
M  V30 8 N 0.774396 1.091803 0.668687 0
M  V30 9 C 0.339252 1.672307 -0.462124 0
M  V30 10 C -0.189181 3.026533 -0.404880 0
M  V30 11 C -0.624000 3.615114 -1.573696 0
M  V30 12 C -1.144690 4.878098 -1.693124 0
M  V30 13 N -1.233137 5.592450 -0.564986 0
M  V30 14 C -0.823247 5.067431 0.606170 0
M  V30 15 C -0.295144 3.787214 0.727869 0
M  V30 16 N 0.388877 1.010588 -1.628570 0
M  V30 17 C 0.867132 -0.241968 -1.720311 0
M  V30 18 C 0.851217 -0.795248 -2.977106 0
M  V30 19 N 1.322505 -2.049642 -3.085010 0
M  V30 20 C 1.785856 -2.725215 -2.008116 0
M  V30 21 C 1.787669 -2.139667 -0.755804 0
M  V30 22 C 1.323132 -0.861420 -0.562644 0
M  V30 23 C -0.351106 -2.051442 2.013037 0
M  V30 24 C -1.111516 -2.987966 2.695044 0
M  V30 25 H -1.849258 -4.332931 5.355257 0
M  V30 26 H -2.262983 -5.151984 3.791019 0
M  V30 27 H -0.752398 -5.586798 4.735744 0
M  V30 28 H 1.206542 -4.243357 4.854064 0
M  V30 29 H 2.549204 -2.628016 3.690310 0
M  V30 30 H 2.780228 -0.845909 1.941294 0
M  V30 31 H -0.552323 3.034283 -2.497942 0
M  V30 32 H -1.463126 5.255275 -2.671702 0
M  V30 33 H -0.926420 5.707209 1.471296 0
M  V30 34 H 0.031191 3.372565 1.665751 0
M  V30 35 H 0.482923 -0.260117 -3.839275 0
M  V30 36 H 2.170206 -3.728181 -2.048562 0
M  V30 37 H 2.151884 -2.656867 0.122619 0
M  V30 38 H -0.808034 -1.450562 1.225222 0
M  V30 39 H -2.135965 -3.071087 2.397281 0
M  V30 END ATOM
M  V30 BEGIN BOND
M  V30 1 1 1 2
M  V30 2 2 2 3
M  V30 3 1 3 4
M  V30 4 2 4 5
M  V30 5 1 5 6
M  V30 6 1 6 7
M  V30 7 2 7 8
M  V30 8 1 8 9
M  V30 9 1 9 10
M  V30 10 2 10 11
M  V30 11 1 11 12
M  V30 12 2 12 13
M  V30 13 1 13 14
M  V30 14 2 14 15
M  V30 15 2 9 16
M  V30 16 1 16 17
M  V30 17 2 17 18
M  V30 18 1 18 19
M  V30 19 2 19 20
M  V30 20 1 20 21
M  V30 21 2 21 22
M  V30 22 1 5 23
M  V30 23 2 23 24
M  V30 24 1 24 2
M  V30 25 1 22 7
M  V30 26 1 15 10
M  V30 27 1 22 17
M  V30 28 1 1 25
M  V30 29 1 1 26
M  V30 30 1 1 27
M  V30 31 1 3 28
M  V30 32 1 4 29
M  V30 33 1 6 30
M  V30 34 1 11 31
M  V30 35 1 12 32
M  V30 36 1 14 33
M  V30 37 1 15 34
M  V30 38 1 18 35
M  V30 39 1 20 36
M  V30 40 1 21 37
M  V30 41 1 23 38
M  V30 42 1 24 39
M  V30 END BOND
M  V30 END CTAB
M  END
>  <Dataset>  (792) 
ChEMBL_Kinases

>  <Ligand_Instance>  (792) 
nan

>  <PDB_ID>  (792) 
nan

>  <Standardized_SMILES>  (792) 
Cc1ccc(Nc2nc(-c3ccncc3)nc3cnccc23)cc1

>  <Name>  (792) 
nan

>  <Pocket>  (792) 
nan

>  <ATP_Site>  (792) 
nan

>  <Peripheral>  (792) 
nan

>  <Num_H_Atoms_ProtBoundConf>  (792) 
nan

>  <Num_Resolved_Atoms>  (792) 
nan

>  <Num_Not_Resolved_Atoms>  (792) 
nan

$$$$
CHEMBL4436958
     RDKit          3D

  0  0  0  0  0  0  0  0  0  0999 V3000
M  V30 BEGIN CTAB
M  V30 COUNTS 27 29 0 0 0
M  V30 BEGIN ATOM
M  V30 1 O -1.747182 -1.555037 2.303606 0
M  V30 2 C -0.816973 -0.804283 1.965156 0
M  V30 3 N -0.367142 0.271827 2.758081 0
M  V30 4 C 0.702684 0.903776 2.071693 0
M  V30 5 C 1.449451 1.999418 2.462262 0
M  V30 6 C 2.458094 2.453869 1.621060 0
M  V30 7 C 2.674795 1.791641 0.426139 0
M  V30 8 N 3.725753 2.273183 -0.435719 0 CHG=1 VAL=4
M  V30 9 O 4.411338 3.274945 -0.089014 0
M  V30 10 O 3.895627 1.559021 -1.622816 0 CHG=-1 VAL=1
M  V30 11 C 1.942317 0.698156 0.019000 0
M  V30 12 C 0.930774 0.250941 0.874214 0
M  V30 13 C -0.033459 -0.861633 0.766243 0
M  V30 14 C -0.142866 -1.706925 -0.240466 0
M  V30 15 C -1.133683 -2.771034 -0.300325 0
M  V30 16 C -2.515710 -2.600070 -0.125022 0
M  V30 17 C -3.167231 -3.835843 -0.241188 0
M  V30 18 C -2.115891 -4.700169 -0.486580 0
M  V30 19 O -0.989008 -4.078395 -0.514296 0
M  V30 20 H -0.751253 0.563836 3.697864 0
M  V30 21 H 1.262548 2.500875 3.401273 0
M  V30 22 H 3.046433 3.313684 1.926957 0
M  V30 23 H 2.095981 0.167466 -0.908507 0
M  V30 24 H 0.541018 -1.625544 -1.099144 0
M  V30 25 H -3.145276 -1.737402 0.061191 0
M  V30 26 H -4.190474 -4.110031 -0.169159 0
M  V30 27 H -2.175006 -5.780637 -0.644270 0
M  V30 END ATOM
M  V30 BEGIN BOND
M  V30 1 2 1 2
M  V30 2 1 2 3
M  V30 3 1 3 4
M  V30 4 2 4 5
M  V30 5 1 5 6
M  V30 6 2 6 7
M  V30 7 1 7 8
M  V30 8 2 8 9
M  V30 9 1 8 10
M  V30 10 1 7 11
M  V30 11 2 11 12
M  V30 12 1 12 13
M  V30 13 2 13 14
M  V30 14 1 14 15
M  V30 15 2 15 16
M  V30 16 1 16 17
M  V30 17 2 17 18
M  V30 18 1 18 19
M  V30 19 1 13 2
M  V30 20 1 19 15
M  V30 21 1 12 4
M  V30 22 1 3 20
M  V30 23 1 5 21
M  V30 24 1 6 22
M  V30 25 1 11 23
M  V30 26 1 14 24
M  V30 27 1 16 25
M  V30 28 1 17 26
M  V30 29 1 18 27
M  V30 END BOND
M  V30 END CTAB
M  END
>  <Dataset>  (793) 
ChEMBL_Kinases

>  <Ligand_Instance>  (793) 
nan

>  <PDB_ID>  (793) 
nan

>  <Standardized_SMILES>  (793) 
O=C1Nc2ccc([N+](=O)[O-])cc2/C1=C/c1ccco1

>  <Name>  (793) 
nan

>  <Pocket>  (793) 
nan

>  <ATP_Site>  (793) 
nan

>  <Peripheral>  (793) 
nan

>  <Num_H_Atoms_ProtBoundConf>  (793) 
nan

>  <Num_Resolved_Atoms>  (793) 
nan

>  <Num_Not_Resolved_Atoms>  (793) 
nan

$$$$
CHEMBL4752942
     RDKit          3D

  0  0  0  0  0  0  0  0  0  0999 V3000
M  V30 BEGIN CTAB
M  V30 COUNTS 50 53 0 0 0
M  V30 BEGIN ATOM
M  V30 1 C 0.553553 -4.909193 3.648125 0
M  V30 2 C 1.397809 -3.980508 2.869668 0
M  V30 3 N 2.698037 -3.928793 2.657979 0
M  V30 4 O 2.941552 -2.919107 1.902505 0
M  V30 5 C 1.868772 -2.252434 1.569580 0
M  V30 6 C 1.871583 -1.063896 0.718223 0
M  V30 7 C 3.117445 -0.626187 0.321917 0
M  V30 8 N 3.287871 0.469081 -0.411307 0
M  V30 9 C 2.299315 1.252488 -0.838266 0
M  V30 10 N 2.476054 2.423138 -1.619808 0
M  V30 11 C 2.653643 3.756306 -1.093497 0
M  V30 12 C 3.934496 4.238263 -0.804197 0
M  V30 13 N 4.083693 5.483353 -0.314974 0
M  V30 14 C 3.025227 6.289471 -0.092502 0
M  V30 15 C 3.171485 7.617247 0.428416 0
M  V30 16 N 3.273038 8.710210 0.850877 0
M  V30 17 C 1.747935 5.818497 -0.377285 0
M  V30 18 N 1.594491 4.573399 -0.866915 0
M  V30 19 C 1.088778 0.792065 -0.431463 0
M  V30 20 C 0.760582 -0.339817 0.338128 0
M  V30 21 N -0.548891 -0.768109 0.646877 0
M  V30 22 C -1.826095 -1.174597 0.941880 0
M  V30 23 C -2.117368 -2.551461 1.438668 0
M  V30 24 C -3.646506 -2.571813 1.644940 0
M  V30 25 C -4.350136 -3.025575 0.419749 0
M  V30 26 N -3.691190 -2.862989 -0.825191 0
M  V30 27 C -2.351248 -3.400357 -0.862692 0
M  V30 28 C -1.845351 -3.693557 0.549361 0
M  V30 29 N 0.952620 -2.957565 2.197384 0
M  V30 30 H 1.128113 -5.496021 4.396780 0
M  V30 31 H -0.209707 -4.327777 4.208805 0
M  V30 32 H -0.004898 -5.552533 2.943911 0
M  V30 33 H 4.067113 -1.107526 0.554385 0
M  V30 34 H 2.479300 2.320401 -2.660656 0
M  V30 35 H 4.809662 3.598437 -0.977858 0
M  V30 36 H 0.915222 6.466095 -0.197294 0
M  V30 37 H 0.280387 1.455072 -0.797042 0
M  V30 38 H -1.043717 0.099252 0.265709 0
M  V30 39 H -2.550538 -1.020522 0.077283 0
M  V30 40 H -2.283578 -0.511359 1.758758 0
M  V30 41 H -1.720091 -2.734135 2.448475 0
M  V30 42 H -3.918021 -1.553283 1.992249 0
M  V30 43 H -3.889283 -3.226135 2.531272 0
M  V30 44 H -5.297991 -2.411534 0.356180 0
M  V30 45 H -4.737128 -4.062634 0.590599 0
M  V30 46 H -4.227402 -3.373853 -1.552948 0
M  V30 47 H -2.248624 -4.293109 -1.513251 0
M  V30 48 H -1.684035 -2.622796 -1.287158 0
M  V30 49 H -2.524924 -4.541041 0.879427 0
M  V30 50 H -0.859532 -4.143998 0.545457 0
M  V30 END ATOM
M  V30 BEGIN BOND
M  V30 1 1 1 2
M  V30 2 2 2 3
M  V30 3 1 3 4
M  V30 4 1 4 5
M  V30 5 1 5 6
M  V30 6 2 6 7
M  V30 7 1 7 8
M  V30 8 2 8 9
M  V30 9 1 9 10
M  V30 10 1 10 11
M  V30 11 2 11 12
M  V30 12 1 12 13
M  V30 13 2 13 14
M  V30 14 1 14 15
M  V30 15 3 15 16
M  V30 16 1 14 17
M  V30 17 2 17 18
M  V30 18 1 9 19
M  V30 19 2 19 20
M  V30 20 1 20 21
M  V30 21 1 21 22
M  V30 22 1 22 23
M  V30 23 1 23 24
M  V30 24 1 24 25
M  V30 25 1 25 26
M  V30 26 1 26 27
M  V30 27 1 27 28
M  V30 28 2 5 29
M  V30 29 1 29 2
M  V30 30 1 20 6
M  V30 31 1 28 23
M  V30 32 1 18 11
M  V30 33 1 1 30
M  V30 34 1 1 31
M  V30 35 1 1 32
M  V30 36 1 7 33
M  V30 37 1 10 34
M  V30 38 1 12 35
M  V30 39 1 17 36
M  V30 40 1 19 37
M  V30 41 1 21 38
M  V30 42 1 22 39
M  V30 43 1 22 40
M  V30 44 1 23 41
M  V30 45 1 24 42
M  V30 46 1 24 43
M  V30 47 1 25 44
M  V30 48 1 25 45
M  V30 49 1 26 46
M  V30 50 1 27 47
M  V30 51 1 27 48
M  V30 52 1 28 49
M  V30 53 1 28 50
M  V30 END BOND
M  V30 END CTAB
M  END
>  <Dataset>  (794) 
ChEMBL_Kinases

>  <Ligand_Instance>  (794) 
nan

>  <PDB_ID>  (794) 
nan

>  <Standardized_SMILES>  (794) 
Cc1noc(-c2cnc(Nc3cnc(C#N)cn3)cc2NCC2CCNCC2)n1

>  <Name>  (794) 
nan

>  <Pocket>  (794) 
nan

>  <ATP_Site>  (794) 
nan

>  <Peripheral>  (794) 
nan

>  <Num_H_Atoms_ProtBoundConf>  (794) 
nan

>  <Num_Resolved_Atoms>  (794) 
nan

>  <Num_Not_Resolved_Atoms>  (794) 
nan

$$$$
CHEMBL4436919
     RDKit          3D

  0  0  0  0  0  0  0  0  0  0999 V3000
M  V30 BEGIN CTAB
M  V30 COUNTS 55 57 0 0 0
M  V30 BEGIN ATOM
M  V30 1 C 2.015421 -1.928437 2.539569 0
M  V30 2 C 2.954507 -1.039072 1.801330 0
M  V30 3 N 2.435153 0.317621 1.626026 0
M  V30 4 C 3.346621 1.140327 0.913408 0
M  V30 5 C 4.624869 1.367761 1.765583 0
M  V30 6 C 1.080384 0.285723 1.146074 0
M  V30 7 C 0.545699 1.663479 0.971586 0
M  V30 8 C -0.909007 1.770392 0.576332 0
M  V30 9 C -1.269410 3.229359 0.426423 0
M  V30 10 C -1.798893 1.234569 1.699366 0
M  V30 11 N -1.150639 1.082409 -0.652137 0
M  V30 12 C -1.395489 -0.316172 -0.863435 0
M  V30 13 N -1.484000 -1.221911 0.123321 0
M  V30 14 C -1.738216 -2.523795 -0.039920 0
M  V30 15 C -1.821327 -3.455115 1.073360 0
M  V30 16 C -2.070596 -4.790348 0.834997 0
M  V30 17 C -2.169193 -5.750798 1.824337 0
M  V30 18 N -2.017211 -5.388718 3.105858 0
M  V30 19 C -1.773310 -4.092330 3.365029 0
M  V30 20 C -1.669003 -3.111213 2.402598 0
M  V30 21 N -1.922187 -2.972812 -1.291643 0
M  V30 22 C -1.855359 -2.148541 -2.357069 0
M  V30 23 C -2.049158 -2.641589 -3.625945 0
M  V30 24 N -1.986353 -1.828305 -4.714680 0
M  V30 25 C -1.725996 -0.495851 -4.549932 0
M  V30 26 C -1.538675 -0.047239 -3.261111 0
M  V30 27 C -1.590579 -0.817227 -2.133395 0
M  V30 28 H 1.623147 -1.424293 3.431119 0
M  V30 29 H 1.228979 -2.384444 1.904098 0
M  V30 30 H 2.626766 -2.797239 2.904843 0
M  V30 31 H 3.102218 -1.447906 0.781972 0
M  V30 32 H 3.908840 -1.032953 2.324528 0
M  V30 33 H 3.642384 0.621603 -0.015772 0
M  V30 34 H 2.927766 2.132791 0.692758 0
M  V30 35 H 5.358478 0.564341 1.572766 0
M  V30 36 H 5.038425 2.354310 1.478058 0
M  V30 37 H 4.297555 1.376863 2.832176 0
M  V30 38 H 0.447095 -0.245850 1.881389 0
M  V30 39 H 1.023117 -0.310748 0.192017 0
M  V30 40 H 1.155535 2.117979 0.115293 0
M  V30 41 H 0.760828 2.302225 1.833170 0
M  V30 42 H -2.150375 3.529017 1.003710 0
M  V30 43 H -0.413473 3.906855 0.659625 0
M  V30 44 H -1.511965 3.466055 -0.646981 0
M  V30 45 H -1.536939 0.224340 2.004409 0
M  V30 46 H -1.720373 1.986751 2.512197 0
M  V30 47 H -2.833036 1.246658 1.326587 0
M  V30 48 H -1.133529 1.721006 -1.469216 0
M  V30 49 H -2.206025 -5.168419 -0.160074 0
M  V30 50 H -2.365890 -6.793818 1.606570 0
M  V30 51 H -1.638587 -3.730026 4.393886 0
M  V30 52 H -1.472001 -2.078835 2.643114 0
M  V30 53 H -2.257436 -3.717047 -3.743351 0
M  V30 54 H -1.682335 0.124641 -5.432726 0
M  V30 55 H -1.342140 0.993043 -3.224846 0
M  V30 END ATOM
M  V30 BEGIN BOND
M  V30 1 1 1 2
M  V30 2 1 2 3
M  V30 3 1 3 4
M  V30 4 1 4 5
M  V30 5 1 3 6
M  V30 6 1 6 7
M  V30 7 1 7 8
M  V30 8 1 8 9
M  V30 9 1 8 10
M  V30 10 1 8 11
M  V30 11 1 11 12
M  V30 12 2 12 13
M  V30 13 1 13 14
M  V30 14 1 14 15
M  V30 15 2 15 16
M  V30 16 1 16 17
M  V30 17 2 17 18
M  V30 18 1 18 19
M  V30 19 2 19 20
M  V30 20 2 14 21
M  V30 21 1 21 22
M  V30 22 2 22 23
M  V30 23 1 23 24
M  V30 24 2 24 25
M  V30 25 1 25 26
M  V30 26 2 26 27
M  V30 27 1 27 12
M  V30 28 1 20 15
M  V30 29 1 27 22
M  V30 30 1 1 28
M  V30 31 1 1 29
M  V30 32 1 1 30
M  V30 33 1 2 31
M  V30 34 1 2 32
M  V30 35 1 4 33
M  V30 36 1 4 34
M  V30 37 1 5 35
M  V30 38 1 5 36
M  V30 39 1 5 37
M  V30 40 1 6 38
M  V30 41 1 6 39
M  V30 42 1 7 40
M  V30 43 1 7 41
M  V30 44 1 9 42
M  V30 45 1 9 43
M  V30 46 1 9 44
M  V30 47 1 10 45
M  V30 48 1 10 46
M  V30 49 1 10 47
M  V30 50 1 11 48
M  V30 51 1 16 49
M  V30 52 1 17 50
M  V30 53 1 19 51
M  V30 54 1 20 52
M  V30 55 1 23 53
M  V30 56 1 25 54
M  V30 57 1 26 55
M  V30 END BOND
M  V30 END CTAB
M  END
>  <Dataset>  (795) 
ChEMBL_Kinases

>  <Ligand_Instance>  (795) 
nan

>  <PDB_ID>  (795) 
nan

>  <Standardized_SMILES>  (795) 
CCN(CC)CCC(C)(C)Nc1nc(-c2ccncc2)nc2cnccc12

>  <Name>  (795) 
nan

>  <Pocket>  (795) 
nan

>  <ATP_Site>  (795) 
nan

>  <Peripheral>  (795) 
nan

>  <Num_H_Atoms_ProtBoundConf>  (795) 
nan

>  <Num_Resolved_Atoms>  (795) 
nan

>  <Num_Not_Resolved_Atoms>  (795) 
nan

$$$$
CHEMBL4752943
     RDKit          3D

  0  0  0  0  0  0  0  0  0  0999 V3000
M  V30 BEGIN CTAB
M  V30 COUNTS 41 43 0 0 0
M  V30 BEGIN ATOM
M  V30 1 C 1.289024 -3.706737 4.495536 0
M  V30 2 O 0.060622 -3.448294 3.842148 0
M  V30 3 C -0.045620 -2.602513 2.731643 0
M  V30 4 C 1.094855 -1.994609 2.253382 0
M  V30 5 C 0.942347 -1.170368 1.158178 0
M  V30 6 N 2.095317 -0.533908 0.632094 0
M  V30 7 C 2.339028 0.423867 -0.381170 0
M  V30 8 C 3.127426 0.124550 -1.494961 0
M  V30 9 C 3.412460 0.999911 -2.520638 0
M  V30 10 N 2.875017 2.220045 -2.404791 0
M  V30 11 C 2.112431 2.623241 -1.398751 0
M  V30 12 C 1.579646 3.893831 -1.314272 0
M  V30 13 C 0.789083 4.321562 -0.268393 0
M  V30 14 F 0.283484 5.571444 -0.216498 0
M  V30 15 C 0.532595 3.393114 0.745163 0
M  V30 16 C 1.067821 2.125384 0.654549 0
M  V30 17 C 1.854855 1.712940 -0.396090 0
M  V30 18 C -0.322166 -1.010267 0.620802 0
M  V30 19 C -1.462390 -1.619882 1.101323 0
M  V30 20 O -2.713103 -1.451813 0.557370 0
M  V30 21 C -2.909310 -0.607438 -0.574939 0
M  V30 22 C -1.306785 -2.443637 2.196677 0
M  V30 23 O -2.401105 -3.101164 2.750593 0
M  V30 24 C -2.802257 -4.401045 2.315303 0
M  V30 25 H 1.522124 -2.865242 5.204057 0
M  V30 26 H 1.120457 -4.622518 5.132505 0
M  V30 27 H 2.098153 -3.860707 3.772453 0
M  V30 28 H 2.073813 -2.133833 2.689747 0
M  V30 29 H 3.031826 -0.738711 0.996022 0
M  V30 30 H 3.551291 -0.870747 -1.565325 0
M  V30 31 H 4.020280 0.729537 -3.354475 0
M  V30 32 H 1.791968 4.598777 -2.112881 0
M  V30 33 H -0.084752 3.697745 1.580888 0
M  V30 34 H 0.833706 1.470656 1.468999 0
M  V30 35 H -0.430337 -0.352833 -0.249137 0
M  V30 36 H -2.449276 0.375919 -0.408541 0
M  V30 37 H -3.995958 -0.572336 -0.794027 0
M  V30 38 H -2.382156 -1.078704 -1.435148 0
M  V30 39 H -3.902931 -4.508657 2.319874 0
M  V30 40 H -2.427688 -4.537858 1.278559 0
M  V30 41 H -2.310958 -5.144753 2.947255 0
M  V30 END ATOM
M  V30 BEGIN BOND
M  V30 1 1 1 2
M  V30 2 1 2 3
M  V30 3 2 3 4
M  V30 4 1 4 5
M  V30 5 1 5 6
M  V30 6 1 6 7
M  V30 7 2 7 8
M  V30 8 1 8 9
M  V30 9 2 9 10
M  V30 10 1 10 11
M  V30 11 2 11 12
M  V30 12 1 12 13
M  V30 13 1 13 14
M  V30 14 2 13 15
M  V30 15 1 15 16
M  V30 16 2 16 17
M  V30 17 2 5 18
M  V30 18 1 18 19
M  V30 19 1 19 20
M  V30 20 1 20 21
M  V30 21 2 19 22
M  V30 22 1 22 23
M  V30 23 1 23 24
M  V30 24 1 22 3
M  V30 25 1 17 7
M  V30 26 1 17 11
M  V30 27 1 1 25
M  V30 28 1 1 26
M  V30 29 1 1 27
M  V30 30 1 4 28
M  V30 31 1 6 29
M  V30 32 1 8 30
M  V30 33 1 9 31
M  V30 34 1 12 32
M  V30 35 1 15 33
M  V30 36 1 16 34
M  V30 37 1 18 35
M  V30 38 1 21 36
M  V30 39 1 21 37
M  V30 40 1 21 38
M  V30 41 1 24 39
M  V30 42 1 24 40
M  V30 43 1 24 41
M  V30 END BOND
M  V30 END CTAB
M  END
>  <Dataset>  (796) 
ChEMBL_Kinases

>  <Ligand_Instance>  (796) 
nan

>  <PDB_ID>  (796) 
nan

>  <Standardized_SMILES>  (796) 
COc1cc(Nc2ccnc3cc(F)ccc23)cc(OC)c1OC

>  <Name>  (796) 
nan

>  <Pocket>  (796) 
nan

>  <ATP_Site>  (796) 
nan

>  <Peripheral>  (796) 
nan

>  <Num_H_Atoms_ProtBoundConf>  (796) 
nan

>  <Num_Resolved_Atoms>  (796) 
nan

>  <Num_Not_Resolved_Atoms>  (796) 
nan

$$$$
CHEMBL4752999
     RDKit          3D

  0  0  0  0  0  0  0  0  0  0999 V3000
M  V30 BEGIN CTAB
M  V30 COUNTS 34 36 0 0 0
M  V30 BEGIN ATOM
M  V30 1 C -0.645947 -3.684154 1.976576 0
M  V30 2 O 0.142968 -2.573765 1.657916 0
M  V30 3 C 1.518442 -2.551950 1.736776 0
M  V30 4 C 2.272562 -3.638140 2.143838 0
M  V30 5 C 3.665756 -3.552933 2.202691 0
M  V30 6 C 4.343674 -2.400047 1.863084 0
M  V30 7 C 3.602106 -1.310836 1.455871 0
M  V30 8 C 2.254385 -1.432953 1.412041 0
M  V30 9 C 1.522546 -0.237704 0.970653 0
M  V30 10 C 1.923841 1.014101 0.580083 0
M  V30 11 C 0.932934 1.883441 0.230993 0
M  V30 12 N 1.130302 3.170514 -0.183783 0
M  V30 13 C 0.102234 3.939069 -0.501690 0
M  V30 14 N -1.217743 3.582561 -0.464411 0
M  V30 15 C -1.428487 2.301713 -0.052528 0
M  V30 16 S -3.056522 1.575728 0.088550 0
M  V30 17 C -3.528142 0.793333 -1.490668 0
M  V30 18 C -4.879160 0.176373 -1.412439 0
M  V30 19 O -5.067050 -1.030613 -1.049156 0
M  V30 20 O -6.038982 0.898727 -1.738826 0
M  V30 21 C -0.372689 1.488662 0.281854 0
M  V30 22 S -0.281824 -0.168564 0.837055 0
M  V30 23 H -1.673989 -3.382588 2.328903 0
M  V30 24 H -0.185996 -4.235711 2.817826 0
M  V30 25 H -0.818778 -4.358433 1.110861 0
M  V30 26 H 1.787989 -4.560183 2.418976 0
M  V30 27 H 4.192797 -4.456203 2.535048 0
M  V30 28 H 5.421817 -2.368304 1.920047 0
M  V30 29 H 4.136010 -0.405305 1.189203 0
M  V30 30 H 2.990338 1.174195 0.592366 0
M  V30 31 H 0.296176 4.964537 -0.829999 0
M  V30 32 H -2.797413 -0.052871 -1.633356 0
M  V30 33 H -3.424369 1.477520 -2.353202 0
M  V30 34 H -6.821390 0.417296 -2.182912 0
M  V30 END ATOM
M  V30 BEGIN BOND
M  V30 1 1 1 2
M  V30 2 1 2 3
M  V30 3 2 3 4
M  V30 4 1 4 5
M  V30 5 2 5 6
M  V30 6 1 6 7
M  V30 7 2 7 8
M  V30 8 1 8 9
M  V30 9 2 9 10
M  V30 10 1 10 11
M  V30 11 2 11 12
M  V30 12 1 12 13
M  V30 13 2 13 14
M  V30 14 1 14 15
M  V30 15 1 15 16
M  V30 16 1 16 17
M  V30 17 1 17 18
M  V30 18 2 18 19
M  V30 19 1 18 20
M  V30 20 2 15 21
M  V30 21 1 21 22
M  V30 22 1 8 3
M  V30 23 1 22 9
M  V30 24 1 21 11
M  V30 25 1 1 23
M  V30 26 1 1 24
M  V30 27 1 1 25
M  V30 28 1 4 26
M  V30 29 1 5 27
M  V30 30 1 6 28
M  V30 31 1 7 29
M  V30 32 1 10 30
M  V30 33 1 13 31
M  V30 34 1 17 32
M  V30 35 1 17 33
M  V30 36 1 20 34
M  V30 END BOND
M  V30 END CTAB
M  END
>  <Dataset>  (797) 
ChEMBL_Kinases

>  <Ligand_Instance>  (797) 
nan

>  <PDB_ID>  (797) 
nan

>  <Standardized_SMILES>  (797) 
COc1ccccc1-c1cc2ncnc(SCC(=O)O)c2s1

>  <Name>  (797) 
nan

>  <Pocket>  (797) 
nan

>  <ATP_Site>  (797) 
nan

>  <Peripheral>  (797) 
nan

>  <Num_H_Atoms_ProtBoundConf>  (797) 
nan

>  <Num_Resolved_Atoms>  (797) 
nan

>  <Num_Not_Resolved_Atoms>  (797) 
nan

$$$$
CHEMBL4436895
     RDKit          3D

  0  0  0  0  0  0  0  0  0  0999 V3000
M  V30 BEGIN CTAB
M  V30 COUNTS 35 37 0 0 0
M  V30 BEGIN ATOM
M  V30 1 O 3.608717 -0.520853 1.188223 0
M  V30 2 C 2.364896 -0.564817 1.149040 0
M  V30 3 N 1.776760 -1.704475 1.787095 0
M  V30 4 C 2.788007 -2.565126 2.347925 0
M  V30 5 C 3.441599 -3.611003 1.771133 0
M  V30 6 C 4.389554 -4.303660 2.516268 0
M  V30 7 C 4.635219 -3.908379 3.812673 0
M  V30 8 N 3.981145 -2.872378 4.368646 0
M  V30 9 C 3.048532 -2.174130 3.667801 0
M  V30 10 C 1.482284 0.417416 0.526728 0
M  V30 11 C 0.108512 0.480484 0.425359 0
M  V30 12 C -0.267940 1.613338 -0.262839 0
M  V30 13 C -1.611043 2.028079 -0.609368 0
M  V30 14 O -1.709547 3.304981 -0.677849 0
M  V30 15 C -2.870165 1.390555 -0.897459 0
M  V30 16 C -4.017139 2.120702 -0.679658 0
M  V30 17 F -4.066131 3.371695 -0.198262 0
M  V30 18 C -5.245314 1.508809 -0.986226 0
M  V30 19 C -5.362024 0.237426 -1.484995 0
M  V30 20 C -4.204466 -0.520023 -1.713971 0
M  V30 21 C -3.019511 0.105316 -1.406140 0
M  V30 22 Br -1.490226 -0.961405 -1.807886 0
M  V30 23 C 0.912940 2.245532 -0.580864 0
M  V30 24 N 1.919177 1.526734 -0.108774 0
M  V30 25 H 0.722571 -1.796676 1.783147 0
M  V30 26 H 3.124705 -3.781100 0.750754 0
M  V30 27 H 4.864067 -5.123309 1.982816 0
M  V30 28 H 5.393886 -4.540306 4.259272 0
M  V30 29 H 2.597922 -1.370419 4.225986 0
M  V30 30 H -0.441752 -0.312394 0.888809 0
M  V30 31 H -6.177606 2.061733 -0.824460 0
M  V30 32 H -6.336247 -0.162541 -1.696643 0
M  V30 33 H -4.301168 -1.514444 -2.106018 0
M  V30 34 H 0.942091 3.188356 -1.135854 0
M  V30 35 H 2.911858 1.834825 -0.245114 0
M  V30 END ATOM
M  V30 BEGIN BOND
M  V30 1 2 1 2
M  V30 2 1 2 3
M  V30 3 1 3 4
M  V30 4 2 4 5
M  V30 5 1 5 6
M  V30 6 2 6 7
M  V30 7 1 7 8
M  V30 8 2 8 9
M  V30 9 1 2 10
M  V30 10 2 10 11
M  V30 11 1 11 12
M  V30 12 1 12 13
M  V30 13 2 13 14
M  V30 14 1 13 15
M  V30 15 2 15 16
M  V30 16 1 16 17
M  V30 17 1 16 18
M  V30 18 2 18 19
M  V30 19 1 19 20
M  V30 20 2 20 21
M  V30 21 1 21 22
M  V30 22 2 12 23
M  V30 23 1 23 24
M  V30 24 1 9 4
M  V30 25 1 24 10
M  V30 26 1 21 15
M  V30 27 1 3 25
M  V30 28 1 5 26
M  V30 29 1 6 27
M  V30 30 1 7 28
M  V30 31 1 9 29
M  V30 32 1 11 30
M  V30 33 1 18 31
M  V30 34 1 19 32
M  V30 35 1 20 33
M  V30 36 1 23 34
M  V30 37 1 24 35
M  V30 END BOND
M  V30 END CTAB
M  END
>  <Dataset>  (798) 
ChEMBL_Kinases

>  <Ligand_Instance>  (798) 
nan

>  <PDB_ID>  (798) 
nan

>  <Standardized_SMILES>  (798) 
O=C(Nc1cccnc1)c1cc(C(=O)c2c(F)cccc2Br)c[nH]1

>  <Name>  (798) 
nan

>  <Pocket>  (798) 
nan

>  <ATP_Site>  (798) 
nan

>  <Peripheral>  (798) 
nan

>  <Num_H_Atoms_ProtBoundConf>  (798) 
nan

>  <Num_Resolved_Atoms>  (798) 
nan

>  <Num_Not_Resolved_Atoms>  (798) 
nan

$$$$
CHEMBL4753038
     RDKit          3D

  0  0  0  0  0  0  0  0  0  0999 V3000
M  V30 BEGIN CTAB
M  V30 COUNTS 127 133 0 0 0
M  V30 BEGIN ATOM
M  V30 1 C 3.649944 4.962874 1.624275 0
M  V30 2 C 3.643370 6.256739 0.852674 0
M  V30 3 C 4.735674 7.133875 1.477390 0
M  V30 4 C 4.161812 5.954815 -0.524311 0
M  V30 5 C 5.450002 6.173869 -1.002716 0
M  V30 6 C 5.592670 5.800524 -2.311984 0
M  V30 7 N 4.379485 5.342289 -2.654890 0
M  V30 8 N 3.994130 4.851596 -3.833749 0
M  V30 9 C 2.738234 4.427100 -4.011243 0
M  V30 10 N 1.872170 4.498869 -2.996602 0
M  V30 11 C 2.228423 4.988363 -1.796566 0
M  V30 12 N 1.225171 5.004139 -0.792679 0
M  V30 13 C -0.094422 4.511163 -1.030404 0 CFG=1
M  V30 14 C -1.017874 4.701832 0.180550 0
M  V30 15 C -2.219513 3.819310 0.104927 0
M  V30 16 C -2.457698 3.388896 -1.332365 0 CFG=1
M  V30 17 N -3.838254 3.005766 -1.529221 0
M  V30 18 C -4.048382 2.406281 -2.811843 0
M  V30 19 C -5.192369 1.405595 -2.795974 0
M  V30 20 N -4.811341 0.340376 -1.879882 0
M  V30 21 C -4.907429 -1.077514 -2.168744 0
M  V30 22 O -5.451777 -0.918780 -3.281917 0
M  V30 23 C -4.360321 -1.903602 -1.101218 0
M  V30 24 C -4.747543 -3.346038 -1.170086 0
M  V30 25 O -4.142718 -4.073719 -0.142352 0
M  V30 26 C -4.595534 -5.371286 -0.092976 0
M  V30 27 C -3.895562 -6.165562 1.015059 0
M  V30 28 O -4.360417 -7.432772 1.110354 0
M  V30 29 C -3.876524 -8.287979 2.032914 0
M  V30 30 C -2.549021 -8.848421 1.992249 0
M  V30 31 O -1.424230 -7.995250 2.013311 0
M  V30 32 C -0.335196 -8.866754 2.008941 0
M  V30 33 C 1.033765 -8.417133 1.940232 0
M  V30 34 O 1.601063 -7.604225 2.869656 0
M  V30 35 C 1.125394 -6.345317 2.923838 0
M  V30 36 C 1.874912 -5.489738 3.961827 0
M  V30 37 O 1.322069 -4.251642 3.891338 0
M  V30 38 C 1.834426 -3.307089 4.705069 0
M  V30 39 C 1.198717 -1.924203 4.498740 0
M  V30 40 N 1.412022 -1.505538 3.120489 0
M  V30 41 C 0.638163 -1.984423 2.040479 0
M  V30 42 C -0.421545 -2.817230 2.316989 0
M  V30 43 C -1.238700 -3.324903 1.328146 0
M  V30 44 C -0.935142 -2.946265 0.037782 0
M  V30 45 C 0.104778 -2.115464 -0.305213 0
M  V30 46 C 0.888253 -1.640855 0.728050 0
M  V30 47 C 1.907334 -0.788228 0.136182 0
M  V30 48 O 2.829290 -0.151434 0.705181 0
M  V30 49 N 1.685822 -0.787890 -1.261347 0
M  V30 50 C 2.378423 -0.110699 -2.366505 0
M  V30 51 C 1.370094 0.814266 -2.986362 0
M  V30 52 C 1.500264 0.991532 -4.463204 0
M  V30 53 C 1.476520 -0.325521 -5.134661 0
M  V30 54 O 0.870453 -0.810302 -6.131296 0
M  V30 55 N 2.324987 -1.345948 -4.567800 0
M  V30 56 C 2.988161 -1.034839 -3.321842 0
M  V30 57 O 4.117387 -1.551382 -3.015985 0
M  V30 58 C 0.568559 -1.605248 -1.586158 0
M  V30 59 O 0.029098 -1.884589 -2.696256 0
M  V30 60 C -4.341092 0.815344 -0.565908 0
M  V30 61 C -4.443725 2.307885 -0.449450 0
M  V30 62 C -2.249242 4.632518 -2.169143 0
M  V30 63 C -0.780826 5.050362 -2.256619 0
M  V30 64 C 3.514985 5.423391 -1.612958 0
M  V30 65 H 4.357512 5.048414 2.461004 0
M  V30 66 H 4.031959 4.104518 1.002261 0
M  V30 67 H 2.638912 4.706921 2.030440 0
M  V30 68 H 2.704225 6.801409 0.865865 0
M  V30 69 H 5.690923 6.581067 1.494072 0
M  V30 70 H 4.824174 8.086136 0.958928 0
M  V30 71 H 4.434215 7.275550 2.534590 0
M  V30 72 H 6.292470 6.593203 -0.446099 0
M  V30 73 H 6.475630 5.860935 -2.927060 0
M  V30 74 H 2.489392 4.043851 -4.981046 0
M  V30 75 H 1.227523 5.318647 0.182546 0
M  V30 76 H 0.000812 3.405854 -1.166231 0
M  V30 77 H -0.429204 4.523649 1.090016 0
M  V30 78 H -1.296114 5.793586 0.232063 0
M  V30 79 H -2.046122 2.942803 0.774417 0
M  V30 80 H -3.082474 4.402691 0.470600 0
M  V30 81 H -1.807403 2.556119 -1.564149 0
M  V30 82 H -4.320692 3.207613 -3.531822 0
M  V30 83 H -3.168432 1.886710 -3.235664 0
M  V30 84 H -5.215934 0.935517 -3.815253 0
M  V30 85 H -6.166086 1.843758 -2.588284 0
M  V30 86 H -3.272971 -1.719253 -0.953614 0
M  V30 87 H -4.822387 -1.524915 -0.134218 0
M  V30 88 H -5.843996 -3.415659 -1.060750 0
M  V30 89 H -4.469741 -3.841202 -2.113117 0
M  V30 90 H -4.473320 -5.899591 -1.079499 0
M  V30 91 H -5.680444 -5.353916 0.117753 0
M  V30 92 H -4.147637 -5.638628 1.979884 0
M  V30 93 H -2.811942 -6.149506 0.911570 0
M  V30 94 H -4.081776 -7.913466 3.096416 0
M  V30 95 H -4.621636 -9.179348 2.013112 0
M  V30 96 H -2.372400 -9.641544 2.792183 0
M  V30 97 H -2.421366 -9.428843 1.011972 0
M  V30 98 H -0.433443 -9.585341 2.878488 0
M  V30 99 H -0.523911 -9.563307 1.127672 0
M  V30 100 H 1.696513 -9.366942 1.950352 0
M  V30 101 H 1.312564 -8.011174 0.897682 0
M  V30 102 H 1.315354 -5.850581 1.946695 0
M  V30 103 H 0.069696 -6.331218 3.218741 0
M  V30 104 H 2.935982 -5.433232 3.628943 0
M  V30 105 H 1.811445 -5.949258 4.960736 0
M  V30 106 H 1.630681 -3.590754 5.766482 0
M  V30 107 H 2.938451 -3.183207 4.652443 0
M  V30 108 H 0.154158 -1.941965 4.793791 0
M  V30 109 H 1.747415 -1.220710 5.146275 0
M  V30 110 H 2.164427 -0.821125 2.883262 0
M  V30 111 H -0.789639 -3.141705 3.296565 0
M  V30 112 H -2.065613 -3.982049 1.540756 0
M  V30 113 H -1.556423 -3.334940 -0.787910 0
M  V30 114 H 3.194635 0.460888 -1.871782 0
M  V30 115 H 1.488529 1.797616 -2.506711 0
M  V30 116 H 0.332616 0.414332 -2.799510 0
M  V30 117 H 2.338124 1.629506 -4.788536 0
M  V30 118 H 0.549094 1.506256 -4.794001 0
M  V30 119 H 2.516626 -2.300550 -4.964327 0
M  V30 120 H -5.131386 0.416106 0.139419 0
M  V30 121 H -3.395669 0.375198 -0.258630 0
M  V30 122 H -4.012764 2.613413 0.504931 0
M  V30 123 H -5.526520 2.611770 -0.406226 0
M  V30 124 H -2.695604 4.537062 -3.174079 0
M  V30 125 H -2.765320 5.456911 -1.654059 0
M  V30 126 H -0.426788 4.669588 -3.211101 0
M  V30 127 H -0.694774 6.169227 -2.184246 0
M  V30 END ATOM
M  V30 BEGIN BOND
M  V30 1 1 1 2
M  V30 2 1 2 3
M  V30 3 1 2 4
M  V30 4 1 4 5
M  V30 5 2 5 6
M  V30 6 1 6 7
M  V30 7 1 7 8
M  V30 8 2 8 9
M  V30 9 1 9 10
M  V30 10 2 10 11
M  V30 11 1 11 12
M  V30 12 1 12 13
M  V30 13 1 13 14
M  V30 14 1 14 15
M  V30 15 1 15 16
M  V30 16 1 16 17
M  V30 17 1 17 18
M  V30 18 1 18 19
M  V30 19 1 19 20
M  V30 20 1 20 21
M  V30 21 2 21 22
M  V30 22 1 21 23
M  V30 23 1 23 24
M  V30 24 1 24 25
M  V30 25 1 25 26
M  V30 26 1 26 27
M  V30 27 1 27 28
M  V30 28 1 28 29
M  V30 29 1 29 30
M  V30 30 1 30 31
M  V30 31 1 31 32
M  V30 32 1 32 33
M  V30 33 1 33 34
M  V30 34 1 34 35
M  V30 35 1 35 36
M  V30 36 1 36 37
M  V30 37 1 37 38
M  V30 38 1 38 39
M  V30 39 1 39 40
M  V30 40 1 40 41
M  V30 41 2 41 42
M  V30 42 1 42 43
M  V30 43 2 43 44
M  V30 44 1 44 45
M  V30 45 2 45 46
M  V30 46 1 46 47
M  V30 47 2 47 48
M  V30 48 1 47 49
M  V30 49 1 49 50
M  V30 50 1 50 51
M  V30 51 1 51 52
M  V30 52 1 52 53
M  V30 53 2 53 54
M  V30 54 1 53 55
M  V30 55 1 55 56
M  V30 56 2 56 57
M  V30 57 1 49 58
M  V30 58 2 58 59
M  V30 59 1 20 60
M  V30 60 1 60 61
M  V30 61 1 16 62
M  V30 62 1 62 63
M  V30 63 1 11 64
M  V30 64 2 64 4
M  V30 65 1 64 7
M  V30 66 1 63 13
M  V30 67 1 61 17
M  V30 68 1 46 41
M  V30 69 1 56 50
M  V30 70 1 58 45
M  V30 71 1 1 65
M  V30 72 1 1 66
M  V30 73 1 1 67
M  V30 74 1 2 68
M  V30 75 1 3 69
M  V30 76 1 3 70
M  V30 77 1 3 71
M  V30 78 1 5 72
M  V30 79 1 6 73
M  V30 80 1 9 74
M  V30 81 1 12 75
M  V30 82 1 13 76 CFG=3
M  V30 83 1 14 77
M  V30 84 1 14 78
M  V30 85 1 15 79
M  V30 86 1 15 80
M  V30 87 1 16 81 CFG=3
M  V30 88 1 18 82
M  V30 89 1 18 83
M  V30 90 1 19 84
M  V30 91 1 19 85
M  V30 92 1 23 86
M  V30 93 1 23 87
M  V30 94 1 24 88
M  V30 95 1 24 89
M  V30 96 1 26 90
M  V30 97 1 26 91
M  V30 98 1 27 92
M  V30 99 1 27 93
M  V30 100 1 29 94
M  V30 101 1 29 95
M  V30 102 1 30 96
M  V30 103 1 30 97
M  V30 104 1 32 98
M  V30 105 1 32 99
M  V30 106 1 33 100
M  V30 107 1 33 101
M  V30 108 1 35 102
M  V30 109 1 35 103
M  V30 110 1 36 104
M  V30 111 1 36 105
M  V30 112 1 38 106
M  V30 113 1 38 107
M  V30 114 1 39 108
M  V30 115 1 39 109
M  V30 116 1 40 110
M  V30 117 1 42 111
M  V30 118 1 43 112
M  V30 119 1 44 113
M  V30 120 1 50 114
M  V30 121 1 51 115
M  V30 122 1 51 116
M  V30 123 1 52 117
M  V30 124 1 52 118
M  V30 125 1 55 119
M  V30 126 1 60 120
M  V30 127 1 60 121
M  V30 128 1 61 122
M  V30 129 1 61 123
M  V30 130 1 62 124
M  V30 131 1 62 125
M  V30 132 1 63 126
M  V30 133 1 63 127
M  V30 END BOND
M  V30 END CTAB
M  END
>  <Dataset>  (799) 
ChEMBL_Kinases

>  <Ligand_Instance>  (799) 
nan

>  <PDB_ID>  (799) 
nan

>  <Standardized_SMILES>  (799) 
CC(C)c1ccn2ncnc(N[C@H]3CC[C@@H](N4CCN(C(=O)CCOCCOCCOCCOCCOCCNc5cccc6c5C(=O)N(C5CCC(=O)NC5=O)C6=O)CC4)CC3)c12

>  <Name>  (799) 
nan

>  <Pocket>  (799) 
nan

>  <ATP_Site>  (799) 
nan

>  <Peripheral>  (799) 
nan

>  <Num_H_Atoms_ProtBoundConf>  (799) 
nan

>  <Num_Resolved_Atoms>  (799) 
nan

>  <Num_Not_Resolved_Atoms>  (799) 
nan

$$$$
CHEMBL4436805
     RDKit          3D

  0  0  0  0  0  0  0  0  0  0999 V3000
M  V30 BEGIN CTAB
M  V30 COUNTS 69 73 0 0 0
M  V30 BEGIN ATOM
M  V30 1 N 3.546021 3.025559 5.621752 0
M  V30 2 C 2.171699 3.003224 5.255762 0
M  V30 3 O 1.911559 3.771563 6.210103 0
M  V30 4 C 1.660922 2.243640 4.123379 0
M  V30 5 C 2.582535 1.525341 3.391440 0
M  V30 6 C 2.030827 0.831528 2.335908 0
M  V30 7 C 2.933014 0.040044 1.504738 0
M  V30 8 C 4.255847 0.370151 1.248928 0
M  V30 9 C 5.053512 -0.442985 0.443608 0
M  V30 10 C 4.491333 -1.601139 -0.102535 0
M  V30 11 C 3.176695 -1.926607 0.153279 0
M  V30 12 C 2.407261 -1.107984 0.952269 0
M  V30 13 C 0.672958 0.864880 2.051877 0
M  V30 14 C -0.193469 1.589658 2.806092 0
M  V30 15 C -1.556777 1.787004 2.733432 0
M  V30 16 C -2.547784 1.240722 1.786446 0
M  V30 17 C -2.538422 2.007570 0.480083 0
M  V30 18 C -3.578400 1.433132 -0.403696 0
M  V30 19 N -3.330544 0.071236 -0.699672 0
M  V30 20 S -3.437473 -0.253307 -2.330785 0
M  V30 21 O -4.051456 0.913812 -3.117274 0
M  V30 22 O -4.500257 -1.343693 -2.506452 0
M  V30 23 C -2.038920 -0.738453 -3.211788 0
M  V30 24 C -1.337915 -1.984285 -2.845741 0
M  V30 25 C -2.186902 -3.226585 -2.939641 0
M  V30 26 N -1.467380 -4.400294 -2.586670 0
M  V30 27 C -0.430332 -4.817116 -3.454569 0
M  V30 28 C 0.683678 -5.388271 -2.622509 0
M  V30 29 C 0.231151 -5.288045 -1.199405 0
M  V30 30 C -1.084933 -4.548381 -1.230973 0
M  V30 31 C -2.449751 -0.629829 0.127898 0
M  V30 32 C -2.529014 -0.233724 1.593949 0
M  V30 33 C -1.799444 2.647129 3.813133 0
M  V30 34 N -0.683166 2.955111 4.495413 0
M  V30 35 C 0.305636 2.303252 3.875047 0
M  V30 36 H 4.385481 3.623916 5.391892 0
M  V30 37 H 4.284840 2.557178 6.190705 0
M  V30 38 H 3.625133 1.525091 3.643628 0
M  V30 39 H 4.611120 1.285034 1.712367 0
M  V30 40 H 6.075348 -0.142204 0.274576 0
M  V30 41 H 5.179045 -2.166530 -0.708723 0
M  V30 42 H 2.873952 -2.838839 -0.326220 0
M  V30 43 H 1.395680 -1.437035 1.097468 0
M  V30 44 H 0.314318 0.304430 1.207908 0
M  V30 45 H -3.563699 1.489821 2.219838 0
M  V30 46 H -2.848885 3.065557 0.710755 0
M  V30 47 H -1.526541 2.047654 0.066758 0
M  V30 48 H -3.705268 1.995772 -1.365689 0
M  V30 49 H -4.549966 1.482771 0.157975 0
M  V30 50 H -2.339573 -0.845664 -4.296733 0
M  V30 51 H -1.254073 0.074621 -3.256672 0
M  V30 52 H -0.555709 -2.129322 -3.661722 0
M  V30 53 H -0.770776 -2.008888 -1.925997 0
M  V30 54 H -2.540829 -3.353026 -3.988251 0
M  V30 55 H -3.105205 -3.204987 -2.330129 0
M  V30 56 H -0.825037 -5.627167 -4.106902 0
M  V30 57 H -0.027646 -4.039619 -4.134478 0
M  V30 58 H 1.666125 -4.896258 -2.794374 0
M  V30 59 H 0.840315 -6.472605 -2.850770 0
M  V30 60 H 0.135573 -6.294184 -0.720528 0
M  V30 61 H 0.952056 -4.661386 -0.616340 0
M  V30 62 H -1.834801 -5.208981 -0.702921 0
M  V30 63 H -1.071261 -3.595391 -0.705203 0
M  V30 64 H -2.672612 -1.710082 0.093661 0
M  V30 65 H -1.418155 -0.503719 -0.260090 0
M  V30 66 H -1.642464 -0.656355 2.087538 0
M  V30 67 H -3.388666 -0.742819 2.079600 0
M  V30 68 H -2.804555 3.013226 4.051316 0
M  V30 69 H -0.656736 3.570353 5.317260 0
M  V30 END ATOM
M  V30 BEGIN BOND
M  V30 1 1 1 2
M  V30 2 2 2 3
M  V30 3 1 2 4
M  V30 4 2 4 5
M  V30 5 1 5 6
M  V30 6 1 6 7
M  V30 7 2 7 8
M  V30 8 1 8 9
M  V30 9 2 9 10
M  V30 10 1 10 11
M  V30 11 2 11 12
M  V30 12 2 6 13
M  V30 13 1 13 14
M  V30 14 1 14 15
M  V30 15 1 15 16
M  V30 16 1 16 17
M  V30 17 1 17 18
M  V30 18 1 18 19
M  V30 19 1 19 20
M  V30 20 2 20 21
M  V30 21 2 20 22
M  V30 22 1 20 23
M  V30 23 1 23 24
M  V30 24 1 24 25
M  V30 25 1 25 26
M  V30 26 1 26 27
M  V30 27 1 27 28
M  V30 28 1 28 29
M  V30 29 1 29 30
M  V30 30 1 19 31
M  V30 31 1 31 32
M  V30 32 2 15 33
M  V30 33 1 33 34
M  V30 34 1 34 35
M  V30 35 1 35 4
M  V30 36 1 12 7
M  V30 37 2 35 14
M  V30 38 1 32 16
M  V30 39 1 30 26
M  V30 40 1 1 36
M  V30 41 1 1 37
M  V30 42 1 5 38
M  V30 43 1 8 39
M  V30 44 1 9 40
M  V30 45 1 10 41
M  V30 46 1 11 42
M  V30 47 1 12 43
M  V30 48 1 13 44
M  V30 49 1 16 45
M  V30 50 1 17 46
M  V30 51 1 17 47
M  V30 52 1 18 48
M  V30 53 1 18 49
M  V30 54 1 23 50
M  V30 55 1 23 51
M  V30 56 1 24 52
M  V30 57 1 24 53
M  V30 58 1 25 54
M  V30 59 1 25 55
M  V30 60 1 27 56
M  V30 61 1 27 57
M  V30 62 1 28 58
M  V30 63 1 28 59
M  V30 64 1 29 60
M  V30 65 1 29 61
M  V30 66 1 30 62
M  V30 67 1 30 63
M  V30 68 1 31 64
M  V30 69 1 31 65
M  V30 70 1 32 66
M  V30 71 1 32 67
M  V30 72 1 33 68
M  V30 73 1 34 69
M  V30 END BOND
M  V30 END CTAB
M  END
>  <Dataset>  (800) 
ChEMBL_Kinases

>  <Ligand_Instance>  (800) 
nan

>  <PDB_ID>  (800) 
nan

>  <Standardized_SMILES>  (800) 
NC(=O)c1cc(-c2ccccc2)cc2c(C3CCN(S(=O)(=O)CCCN4CCCC4)CC3)c[nH]c12

>  <Name>  (800) 
nan

>  <Pocket>  (800) 
nan

>  <ATP_Site>  (800) 
nan

>  <Peripheral>  (800) 
nan

>  <Num_H_Atoms_ProtBoundConf>  (800) 
nan

>  <Num_Resolved_Atoms>  (800) 
nan

>  <Num_Not_Resolved_Atoms>  (800) 
nan

$$$$
CHEMBL4753076
     RDKit          3D

  0  0  0  0  0  0  0  0  0  0999 V3000
M  V30 BEGIN CTAB
M  V30 COUNTS 61 64 0 0 0
M  V30 BEGIN ATOM
M  V30 1 C 0.298957 -0.250159 7.538179 0
M  V30 2 C 1.370404 -0.418068 6.494829 0
M  V30 3 O 1.864196 -1.564673 6.340236 0
M  V30 4 N 1.785216 0.692925 5.731977 0
M  V30 5 C 2.798872 0.488786 4.758644 0 CFG=2
M  V30 6 C 4.048859 1.304699 4.937149 0
M  V30 7 C 5.102725 0.768456 3.988145 0
M  V30 8 C 4.643413 0.812196 2.540074 0
M  V30 9 C 3.355676 0.073654 2.453718 0 CFG=2
M  V30 10 C 2.898749 -0.184918 1.069108 0
M  V30 11 O 3.609648 0.225122 0.107365 0
M  V30 12 N 1.681332 -0.882570 0.896548 0
M  V30 13 C 1.222683 -1.142301 -0.424807 0
M  V30 14 C 0.044616 -1.817289 -0.682393 0
M  V30 15 C -0.426480 -2.084235 -1.954241 0
M  V30 16 C -1.689012 -2.808034 -2.178960 0
M  V30 17 C -1.932656 -4.158671 -2.318034 0
M  V30 18 N -3.238079 -4.345450 -2.506025 0
M  V30 19 N -3.840281 -3.161279 -2.492323 0
M  V30 20 C -2.906122 -2.188795 -2.291476 0
M  V30 21 C -3.590699 -0.879292 -2.278914 0
M  V30 22 C -4.827808 -1.189902 -3.102426 0
M  V30 23 C -5.954542 -0.224643 -2.800209 0
M  V30 24 C -4.431870 -1.191325 -4.548598 0
M  V30 25 C -5.159681 -2.576749 -2.621238 0
M  V30 26 C 0.333644 -1.645591 -3.023152 0
M  V30 27 C -0.164847 -1.927737 -4.397657 0
M  V30 28 C 1.523405 -0.963922 -2.769322 0
M  V30 29 N 1.922112 -0.738469 -1.503578 0
M  V30 30 C 2.333334 0.750635 3.319909 0
M  V30 31 H -0.665777 -0.137613 6.989422 0
M  V30 32 H 0.248613 -1.149839 8.187314 0
M  V30 33 H 0.494901 0.642628 8.162867 0
M  V30 34 H 1.383641 1.660867 5.846890 0
M  V30 35 H 3.102957 -0.579903 4.774819 0
M  V30 36 H 3.917933 2.366068 4.671375 0
M  V30 37 H 4.430074 1.125745 5.955216 0
M  V30 38 H 6.067086 1.321919 4.101484 0
M  V30 39 H 5.327289 -0.284412 4.239527 0
M  V30 40 H 4.501699 1.867411 2.229663 0
M  V30 41 H 5.434174 0.290740 1.959549 0
M  V30 42 H 3.524728 -0.929903 2.911737 0
M  V30 43 H 1.090408 -1.223253 1.687474 0
M  V30 44 H -0.562885 -2.167716 0.160246 0
M  V30 45 H -1.085147 -4.843786 -2.259709 0
M  V30 46 H -3.977902 -0.649432 -1.243769 0
M  V30 47 H -3.020078 -0.047878 -2.698718 0
M  V30 48 H -5.797146 0.746676 -3.306157 0
M  V30 49 H -5.978251 -0.044200 -1.720789 0
M  V30 50 H -6.900344 -0.671273 -3.180220 0
M  V30 51 H -5.036303 -1.873278 -5.166476 0
M  V30 52 H -4.422393 -0.157004 -4.944404 0
M  V30 53 H -3.380501 -1.592412 -4.586925 0
M  V30 54 H -5.803869 -3.149996 -3.302668 0
M  V30 55 H -5.638482 -2.509603 -1.620342 0
M  V30 56 H -0.493916 -2.983746 -4.496275 0
M  V30 57 H 0.670399 -1.843348 -5.153402 0
M  V30 58 H -0.947902 -1.228204 -4.735852 0
M  V30 59 H 2.090510 -0.636417 -3.638679 0
M  V30 60 H 2.426524 1.847546 3.156170 0
M  V30 61 H 1.296380 0.400602 3.173534 0
M  V30 END ATOM
M  V30 BEGIN BOND
M  V30 1 1 1 2
M  V30 2 2 2 3
M  V30 3 1 2 4
M  V30 4 1 4 5
M  V30 5 1 5 6
M  V30 6 1 6 7
M  V30 7 1 7 8
M  V30 8 1 8 9
M  V30 9 1 9 10
M  V30 10 2 10 11
M  V30 11 1 10 12
M  V30 12 1 12 13
M  V30 13 2 13 14
M  V30 14 1 14 15
M  V30 15 1 15 16
M  V30 16 1 16 17
M  V30 17 2 17 18
M  V30 18 1 18 19
M  V30 19 1 19 20
M  V30 20 1 20 21
M  V30 21 1 21 22
M  V30 22 1 22 23
M  V30 23 1 22 24
M  V30 24 1 22 25
M  V30 25 2 15 26
M  V30 26 1 26 27
M  V30 27 1 26 28
M  V30 28 2 28 29
M  V30 29 1 9 30
M  V30 30 1 30 5
M  V30 31 1 29 13
M  V30 32 2 20 16
M  V30 33 1 25 19
M  V30 34 1 1 31
M  V30 35 1 1 32
M  V30 36 1 1 33
M  V30 37 1 4 34
M  V30 38 1 5 35 CFG=3
M  V30 39 1 6 36
M  V30 40 1 6 37
M  V30 41 1 7 38
M  V30 42 1 7 39
M  V30 43 1 8 40
M  V30 44 1 8 41
M  V30 45 1 9 42 CFG=1
M  V30 46 1 12 43
M  V30 47 1 14 44
M  V30 48 1 17 45
M  V30 49 1 21 46
M  V30 50 1 21 47
M  V30 51 1 23 48
M  V30 52 1 23 49
M  V30 53 1 23 50
M  V30 54 1 24 51
M  V30 55 1 24 52
M  V30 56 1 24 53
M  V30 57 1 25 54
M  V30 58 1 25 55
M  V30 59 1 27 56
M  V30 60 1 27 57
M  V30 61 1 27 58
M  V30 62 1 28 59
M  V30 63 1 30 60
M  V30 64 1 30 61
M  V30 END BOND
M  V30 END CTAB
M  END
>  <Dataset>  (801) 
ChEMBL_Kinases

>  <Ligand_Instance>  (801) 
nan

>  <PDB_ID>  (801) 
nan

>  <Standardized_SMILES>  (801) 
CC(=O)N[C@@H]1CCC[C@H](C(=O)Nc2cc(-c3cnn4c3CC(C)(C)C4)c(C)cn2)C1

>  <Name>  (801) 
nan

>  <Pocket>  (801) 
nan

>  <ATP_Site>  (801) 
nan

>  <Peripheral>  (801) 
nan

>  <Num_H_Atoms_ProtBoundConf>  (801) 
nan

>  <Num_Resolved_Atoms>  (801) 
nan

>  <Num_Not_Resolved_Atoms>  (801) 
nan

$$$$
CHEMBL4436796
     RDKit          3D

  0  0  0  0  0  0  0  0  0  0999 V3000
M  V30 BEGIN CTAB
M  V30 COUNTS 38 40 0 0 0
M  V30 BEGIN ATOM
M  V30 1 C -2.381641 -0.953245 3.551062 0
M  V30 2 C -2.085029 -2.349431 3.077404 0
M  V30 3 C -0.819282 -2.831026 3.750433 0
M  V30 4 C -1.987450 -2.445865 1.575219 0
M  V30 5 N -1.020182 -1.689619 0.921133 0
M  V30 6 C -0.042369 -0.925106 0.259918 0
M  V30 7 N 0.187792 0.394064 0.214253 0
M  V30 8 C 1.182025 0.951438 -0.478852 0
M  V30 9 C 1.303756 2.401193 -0.429994 0
M  V30 10 C 2.346775 2.908797 -1.172252 0
M  V30 11 C 2.517692 4.298454 -1.168926 0
M  V30 12 N 1.669146 5.052725 -0.453556 0
M  V30 13 C 0.667609 4.499190 0.252924 0
M  V30 14 C 0.409176 3.133331 0.318252 0
M  V30 15 N 1.970585 0.120268 -1.151366 0
M  V30 16 C 1.862880 -1.214677 -1.199213 0
M  V30 17 C 2.795914 -1.876088 -1.963686 0
M  V30 18 N 2.658528 -3.226984 -1.990570 0
M  V30 19 C 1.675346 -3.841804 -1.311356 0
M  V30 20 C 0.768636 -3.126245 -0.561480 0
M  V30 21 C 0.816632 -1.730335 -0.463018 0
M  V30 22 H -1.607427 -0.213217 3.331817 0
M  V30 23 H -2.472346 -0.990878 4.656345 0
M  V30 24 H -3.387495 -0.646406 3.168245 0
M  V30 25 H -2.904754 -3.004065 3.431492 0
M  V30 26 H -0.122514 -3.166678 2.957435 0
M  V30 27 H -0.981682 -3.661084 4.452682 0
M  V30 28 H -0.292291 -1.971815 4.257288 0
M  V30 29 H -1.853471 -3.577165 1.402331 0
M  V30 30 H -3.012866 -2.301100 1.121916 0
M  V30 31 H -1.509545 -0.848682 1.383672 0
M  V30 32 H 3.019154 2.276243 -1.742732 0
M  V30 33 H 3.326332 4.727455 -1.741535 0
M  V30 34 H 0.018605 5.186598 0.811195 0
M  V30 35 H -0.395906 2.706286 0.887904 0
M  V30 36 H 3.565399 -1.335992 -2.489125 0
M  V30 37 H 1.600199 -4.909189 -1.357712 0
M  V30 38 H -0.011215 -3.640480 -0.025368 0
M  V30 END ATOM
M  V30 BEGIN BOND
M  V30 1 1 1 2
M  V30 2 1 2 3
M  V30 3 1 2 4
M  V30 4 1 4 5
M  V30 5 1 5 6
M  V30 6 2 6 7
M  V30 7 1 7 8
M  V30 8 1 8 9
M  V30 9 2 9 10
M  V30 10 1 10 11
M  V30 11 2 11 12
M  V30 12 1 12 13
M  V30 13 2 13 14
M  V30 14 2 8 15
M  V30 15 1 15 16
M  V30 16 2 16 17
M  V30 17 1 17 18
M  V30 18 2 18 19
M  V30 19 1 19 20
M  V30 20 2 20 21
M  V30 21 1 21 6
M  V30 22 1 14 9
M  V30 23 1 21 16
M  V30 24 1 1 22
M  V30 25 1 1 23
M  V30 26 1 1 24
M  V30 27 1 2 25
M  V30 28 1 3 26
M  V30 29 1 3 27
M  V30 30 1 3 28
M  V30 31 1 4 29
M  V30 32 1 4 30
M  V30 33 1 5 31
M  V30 34 1 10 32
M  V30 35 1 11 33
M  V30 36 1 13 34
M  V30 37 1 14 35
M  V30 38 1 17 36
M  V30 39 1 19 37
M  V30 40 1 20 38
M  V30 END BOND
M  V30 END CTAB
M  END
>  <Dataset>  (802) 
ChEMBL_Kinases

>  <Ligand_Instance>  (802) 
nan

>  <PDB_ID>  (802) 
nan

>  <Standardized_SMILES>  (802) 
CC(C)CNc1nc(-c2ccncc2)nc2cnccc12

>  <Name>  (802) 
nan

>  <Pocket>  (802) 
nan

>  <ATP_Site>  (802) 
nan

>  <Peripheral>  (802) 
nan

>  <Num_H_Atoms_ProtBoundConf>  (802) 
nan

>  <Num_Resolved_Atoms>  (802) 
nan

>  <Num_Not_Resolved_Atoms>  (802) 
nan

$$$$
CHEMBL4436762
     RDKit          3D

  0  0  0  0  0  0  0  0  0  0999 V3000
M  V30 BEGIN CTAB
M  V30 COUNTS 47 51 0 0 0
M  V30 BEGIN ATOM
M  V30 1 O 2.144849 -0.951696 4.442498 0
M  V30 2 S 1.876930 -0.257052 3.104281 0
M  V30 3 O 1.102033 -1.296400 2.294374 0
M  V30 4 C 3.406886 0.045070 2.387812 0
M  V30 5 C 4.094759 1.142845 1.968818 0
M  V30 6 C 5.356158 1.118039 1.431259 0
M  V30 7 C 5.995643 -0.094377 1.295207 0
M  V30 8 F 7.236757 0.006198 0.753179 0
M  V30 9 C 5.372453 -1.258383 1.695628 0
M  V30 10 C 4.088893 -1.178039 2.235520 0
M  V30 11 F 3.657024 -2.441885 2.562589 0
M  V30 12 N 0.848248 1.066616 3.304256 0
M  V30 13 C 0.417078 1.749597 2.138342 0
M  V30 14 C -0.465065 0.935573 1.211088 0
M  V30 15 C -1.487938 0.233261 2.047582 0
M  V30 16 C -1.312994 0.204761 3.435764 0
M  V30 17 S -2.739442 -0.711360 4.039447 0
M  V30 18 C -3.457499 -0.989125 2.458165 0
M  V30 19 N -4.598316 -1.642361 2.198420 0
M  V30 20 C -5.019614 -1.764012 0.930404 0
M  V30 21 N -4.231256 -1.202282 0.024345 0
M  V30 22 C -3.093158 -0.553075 0.297669 0
M  V30 23 N -2.488259 -0.051969 -0.886371 0
M  V30 24 C -2.007499 -1.028903 -1.842502 0
M  V30 25 C -2.134658 -2.393163 -1.616305 0
M  V30 26 C -1.702263 -3.352735 -2.507747 0
M  V30 27 C -1.107092 -2.941490 -3.694462 0
M  V30 28 C -0.957749 -1.600172 -3.964711 0
M  V30 29 F -0.369985 -1.164584 -5.127362 0
M  V30 30 C -1.403270 -0.672202 -3.048508 0
M  V30 31 C -2.613981 -0.398461 1.580133 0
M  V30 32 C -0.239367 0.779326 4.218440 0
M  V30 33 H 3.522771 2.027980 2.122474 0
M  V30 34 H 5.736219 2.092388 1.159412 0
M  V30 35 H 5.960319 -2.136820 1.544381 0
M  V30 36 H -0.165208 2.654451 2.515272 0
M  V30 37 H 1.259969 2.176371 1.600094 0
M  V30 38 H 0.150388 0.310851 0.594785 0
M  V30 39 H -0.944553 1.694328 0.550783 0
M  V30 40 H -5.940766 -2.304146 0.834061 0
M  V30 41 H -2.325181 0.934842 -1.199824 0
M  V30 42 H -2.591194 -2.760384 -0.714487 0
M  V30 43 H -1.821707 -4.413578 -2.300180 0
M  V30 44 H -0.755402 -3.676156 -4.417657 0
M  V30 45 H -1.272012 0.379686 -3.284461 0
M  V30 46 H 0.133481 0.052350 4.960390 0
M  V30 47 H -0.525345 1.686007 4.789302 0
M  V30 END ATOM
M  V30 BEGIN BOND
M  V30 1 2 1 2
M  V30 2 2 2 3
M  V30 3 1 2 4
M  V30 4 2 4 5
M  V30 5 1 5 6
M  V30 6 2 6 7
M  V30 7 1 7 8
M  V30 8 1 7 9
M  V30 9 2 9 10
M  V30 10 1 10 11
M  V30 11 1 2 12
M  V30 12 1 12 13
M  V30 13 1 13 14
M  V30 14 1 14 15
M  V30 15 2 15 16
M  V30 16 1 16 17
M  V30 17 1 17 18
M  V30 18 2 18 19
M  V30 19 1 19 20
M  V30 20 2 20 21
M  V30 21 1 21 22
M  V30 22 1 22 23
M  V30 23 1 23 24
M  V30 24 2 24 25
M  V30 25 1 25 26
M  V30 26 2 26 27
M  V30 27 1 27 28
M  V30 28 1 28 29
M  V30 29 2 28 30
M  V30 30 2 22 31
M  V30 31 1 16 32
M  V30 32 1 10 4
M  V30 33 1 32 12
M  V30 34 1 31 15
M  V30 35 1 31 18
M  V30 36 1 30 24
M  V30 37 1 5 33
M  V30 38 1 6 34
M  V30 39 1 9 35
M  V30 40 1 13 36
M  V30 41 1 13 37
M  V30 42 1 14 38
M  V30 43 1 14 39
M  V30 44 1 20 40
M  V30 45 1 23 41
M  V30 46 1 25 42
M  V30 47 1 26 43
M  V30 48 1 27 44
M  V30 49 1 30 45
M  V30 50 1 32 46
M  V30 51 1 32 47
M  V30 END BOND
M  V30 END CTAB
M  END
>  <Dataset>  (803) 
ChEMBL_Kinases

>  <Ligand_Instance>  (803) 
nan

>  <PDB_ID>  (803) 
nan

>  <Standardized_SMILES>  (803) 
O=S(=O)(c1ccc(F)cc1F)N1CCc2c(sc3ncnc(Nc4cccc(F)c4)c23)C1

>  <Name>  (803) 
nan

>  <Pocket>  (803) 
nan

>  <ATP_Site>  (803) 
nan

>  <Peripheral>  (803) 
nan

>  <Num_H_Atoms_ProtBoundConf>  (803) 
nan

>  <Num_Resolved_Atoms>  (803) 
nan

>  <Num_Not_Resolved_Atoms>  (803) 
nan

$$$$
CHEMBL4753192
     RDKit          3D

  0  0  0  0  0  0  0  0  0  0999 V3000
M  V30 BEGIN CTAB
M  V30 COUNTS 46 49 0 0 0
M  V30 BEGIN ATOM
M  V30 1 C 1.786525 -3.522180 0.928715 0
M  V30 2 C 3.072968 -3.681349 0.107893 0
M  V30 3 C 2.745671 -3.378025 -1.309378 0
M  V30 4 N 4.091998 -2.839748 0.695137 0
M  V30 5 C 5.027528 -3.239791 1.587089 0
M  V30 6 N 5.817074 -2.176720 1.918434 0
M  V30 7 N 5.371675 -1.127056 1.235275 0
M  V30 8 C 4.310219 -1.535618 0.482747 0
M  V30 9 C 3.574268 -0.648775 -0.391040 0
M  V30 10 C 4.287166 -0.279238 -1.534365 0
M  V30 11 C 3.724236 0.563977 -2.469748 0
M  V30 12 C 2.432155 1.006412 -2.198788 0
M  V30 13 C 1.728916 0.640470 -1.068671 0
M  V30 14 N 0.417954 1.124609 -0.850793 0
M  V30 15 C -0.286158 0.740708 0.309117 0
M  V30 16 O 0.228149 -0.028378 1.161590 0
M  V30 17 N -1.605519 1.196312 0.579653 0
M  V30 18 C -2.415568 0.883470 1.705445 0
M  V30 19 C -3.694762 1.330441 1.959143 0
M  V30 20 C -4.096147 0.779748 3.157819 0
M  V30 21 C -5.451801 1.065274 3.731408 0
M  V30 22 C -6.017901 2.465272 3.499315 0
M  V30 23 C -6.555424 1.313078 2.758629 0
M  V30 24 N -3.096181 0.015594 3.631233 0
M  V30 25 N -2.111528 0.095022 2.750072 0
M  V30 26 N 2.323872 -0.182179 -0.191064 0
M  V30 27 H 1.264451 -4.491891 1.057749 0
M  V30 28 H 2.010440 -3.120189 1.952794 0
M  V30 29 H 1.088816 -2.829333 0.416152 0
M  V30 30 H 3.333422 -4.751059 0.199009 0
M  V30 31 H 1.916901 -2.653152 -1.443281 0
M  V30 32 H 3.668297 -3.098758 -1.872727 0
M  V30 33 H 2.387215 -4.308012 -1.798457 0
M  V30 34 H 5.091362 -4.270754 1.949931 0
M  V30 35 H 5.305195 -0.622252 -1.756889 0
M  V30 36 H 4.253572 0.870123 -3.370110 0
M  V30 37 H 1.939324 1.664823 -2.888437 0
M  V30 38 H -0.022272 1.755689 -1.536383 0
M  V30 39 H -1.999992 1.836642 -0.155894 0
M  V30 40 H -4.242058 1.987856 1.312651 0
M  V30 41 H -5.630812 0.556032 4.693376 0
M  V30 42 H -6.629048 2.935664 4.285514 0
M  V30 43 H -5.294728 3.196513 3.033750 0
M  V30 44 H -6.316997 1.119047 1.692994 0
M  V30 45 H -7.612483 1.025967 3.002078 0
M  V30 46 H -1.231694 -0.430752 2.929217 0
M  V30 END ATOM
M  V30 BEGIN BOND
M  V30 1 1 1 2
M  V30 2 1 2 3
M  V30 3 1 2 4
M  V30 4 1 4 5
M  V30 5 2 5 6
M  V30 6 1 6 7
M  V30 7 2 7 8
M  V30 8 1 8 9
M  V30 9 2 9 10
M  V30 10 1 10 11
M  V30 11 2 11 12
M  V30 12 1 12 13
M  V30 13 1 13 14
M  V30 14 1 14 15
M  V30 15 2 15 16
M  V30 16 1 15 17
M  V30 17 1 17 18
M  V30 18 2 18 19
M  V30 19 1 19 20
M  V30 20 1 20 21
M  V30 21 1 21 22
M  V30 22 1 22 23
M  V30 23 2 20 24
M  V30 24 1 24 25
M  V30 25 2 13 26
M  V30 26 1 8 4
M  V30 27 1 26 9
M  V30 28 1 25 18
M  V30 29 1 23 21
M  V30 30 1 1 27
M  V30 31 1 1 28
M  V30 32 1 1 29
M  V30 33 1 2 30
M  V30 34 1 3 31
M  V30 35 1 3 32
M  V30 36 1 3 33
M  V30 37 1 5 34
M  V30 38 1 10 35
M  V30 39 1 11 36
M  V30 40 1 12 37
M  V30 41 1 14 38
M  V30 42 1 17 39
M  V30 43 1 19 40
M  V30 44 1 21 41
M  V30 45 1 22 42
M  V30 46 1 22 43
M  V30 47 1 23 44
M  V30 48 1 23 45
M  V30 49 1 25 46
M  V30 END BOND
M  V30 END CTAB
M  END
>  <Dataset>  (804) 
ChEMBL_Kinases

>  <Ligand_Instance>  (804) 
nan

>  <PDB_ID>  (804) 
nan

>  <Standardized_SMILES>  (804) 
CC(C)n1cnnc1-c1cccc(NC(=O)Nc2cc(C3CC3)n[nH]2)n1

>  <Name>  (804) 
nan

>  <Pocket>  (804) 
nan

>  <ATP_Site>  (804) 
nan

>  <Peripheral>  (804) 
nan

>  <Num_H_Atoms_ProtBoundConf>  (804) 
nan

>  <Num_Resolved_Atoms>  (804) 
nan

>  <Num_Not_Resolved_Atoms>  (804) 
nan

$$$$
CHEMBL4436727
     RDKit          3D

  0  0  0  0  0  0  0  0  0  0999 V3000
M  V30 BEGIN CTAB
M  V30 COUNTS 47 50 0 0 0
M  V30 BEGIN ATOM
M  V30 1 C 0.883032 -3.901772 0.094679 0
M  V30 2 C 1.060548 -2.400877 0.134924 0
M  V30 3 C 0.576746 -1.803195 -1.169779 0
M  V30 4 C 2.501318 -2.081869 0.320383 0
M  V30 5 C 2.957186 -1.871670 1.726570 0
M  V30 6 O 4.246899 -2.396079 1.832477 0
M  V30 7 C 2.123981 -2.480254 2.794099 0
M  V30 8 C 0.671740 -2.629512 2.449808 0
M  V30 9 N 0.320226 -1.849111 1.254528 0
M  V30 10 C -0.587802 -0.730443 1.155617 0
M  V30 11 C -0.130479 0.513908 0.722266 0
M  V30 12 C -0.952126 1.617487 0.609357 0
M  V30 13 C -0.447858 2.913235 0.152033 0
M  V30 14 C 0.854548 3.190636 -0.210233 0
M  V30 15 C 1.220561 4.457018 -0.628837 0
M  V30 16 N 0.322438 5.476133 -0.701727 0
M  V30 17 C -0.954903 5.237807 -0.355475 0
M  V30 18 C -1.323719 3.976599 0.062406 0
M  V30 19 N -2.250228 1.466383 0.936789 0
M  V30 20 C -2.742587 0.286544 1.360679 0
M  V30 21 C -4.087903 0.230454 1.672869 0
M  V30 22 N -4.565319 -0.955466 2.094676 0
M  V30 23 C -3.787858 -2.059360 2.217369 0
M  V30 24 C -2.439151 -2.027970 1.911064 0
M  V30 25 C -1.927794 -0.822291 1.476492 0
M  V30 26 H 1.010998 -4.291784 -0.952391 0
M  V30 27 H 1.631491 -4.415343 0.724820 0
M  V30 28 H -0.140266 -4.218210 0.388844 0
M  V30 29 H -0.516514 -1.631383 -1.197961 0
M  V30 30 H 0.833604 -2.544651 -1.975970 0
M  V30 31 H 1.175263 -0.909608 -1.397003 0
M  V30 32 H 2.746425 -1.190124 -0.300857 0
M  V30 33 H 3.075555 -2.915311 -0.180978 0
M  V30 34 H 3.111428 -0.763336 1.883347 0
M  V30 35 H 4.866029 -1.793488 1.346719 0
M  V30 36 H 2.264943 -1.842125 3.713962 0
M  V30 37 H 2.536168 -3.472021 3.057078 0
M  V30 38 H 0.092159 -2.314759 3.341688 0
M  V30 39 H 0.435490 -3.696734 2.274136 0
M  V30 40 H 0.906900 0.559866 0.480705 0
M  V30 41 H 1.563882 2.377228 -0.150319 0
M  V30 42 H 2.257171 4.635174 -0.905816 0
M  V30 43 H -1.648918 6.067572 -0.423052 0
M  V30 44 H -2.373152 3.868768 0.323367 0
M  V30 45 H -4.741251 1.096457 1.586196 0
M  V30 46 H -4.226736 -3.002887 2.566070 0
M  V30 47 H -1.812083 -2.903909 2.005978 0
M  V30 END ATOM
M  V30 BEGIN BOND
M  V30 1 1 1 2
M  V30 2 1 2 3
M  V30 3 1 2 4
M  V30 4 1 4 5
M  V30 5 1 5 6
M  V30 6 1 5 7
M  V30 7 1 7 8
M  V30 8 1 8 9
M  V30 9 1 9 10
M  V30 10 2 10 11
M  V30 11 1 11 12
M  V30 12 1 12 13
M  V30 13 2 13 14
M  V30 14 1 14 15
M  V30 15 2 15 16
M  V30 16 1 16 17
M  V30 17 2 17 18
M  V30 18 2 12 19
M  V30 19 1 19 20
M  V30 20 2 20 21
M  V30 21 1 21 22
M  V30 22 2 22 23
M  V30 23 1 23 24
M  V30 24 2 24 25
M  V30 25 1 9 2
M  V30 26 1 25 10
M  V30 27 1 18 13
M  V30 28 1 25 20
M  V30 29 1 1 26
M  V30 30 1 1 27
M  V30 31 1 1 28
M  V30 32 1 3 29
M  V30 33 1 3 30
M  V30 34 1 3 31
M  V30 35 1 4 32
M  V30 36 1 4 33
M  V30 37 1 5 34
M  V30 38 1 6 35
M  V30 39 1 7 36
M  V30 40 1 7 37
M  V30 41 1 8 38
M  V30 42 1 8 39
M  V30 43 1 11 40
M  V30 44 1 14 41
M  V30 45 1 15 42
M  V30 46 1 17 43
M  V30 47 1 18 44
M  V30 48 1 21 45
M  V30 49 1 23 46
M  V30 50 1 24 47
M  V30 END BOND
M  V30 END CTAB
M  END
>  <Dataset>  (805) 
ChEMBL_Kinases

>  <Ligand_Instance>  (805) 
nan

>  <PDB_ID>  (805) 
nan

>  <Standardized_SMILES>  (805) 
CC1(C)CC(O)CCN1c1cc(-c2ccncc2)nc2cnccc12

>  <Name>  (805) 
nan

>  <Pocket>  (805) 
nan

>  <ATP_Site>  (805) 
nan

>  <Peripheral>  (805) 
nan

>  <Num_H_Atoms_ProtBoundConf>  (805) 
nan

>  <Num_Resolved_Atoms>  (805) 
nan

>  <Num_Not_Resolved_Atoms>  (805) 
nan

$$$$
CHEMBL4753107
     RDKit          3D

  0  0  0  0  0  0  0  0  0  0999 V3000
M  V30 BEGIN CTAB
M  V30 COUNTS 50 53 0 0 0
M  V30 BEGIN ATOM
M  V30 1 O 1.699544 0.173673 1.418335 0
M  V30 2 C 1.522581 0.805031 2.486574 0
M  V30 3 C 2.969058 0.869066 2.684865 0
M  V30 4 C 3.604494 0.277090 1.484917 0
M  V30 5 C 4.008181 -1.040075 1.492709 0
M  V30 6 C 4.568795 -1.610283 0.372864 0
M  V30 7 C 4.742316 -0.872619 -0.794061 0
M  V30 8 C 4.315061 0.421877 -0.711525 0
M  V30 9 C 3.734560 1.109000 0.362982 0
M  V30 10 C 3.362672 2.532179 0.259101 0
M  V30 11 F 4.063160 3.301576 1.206930 0
M  V30 12 F 2.047749 2.826584 0.192482 0
M  V30 13 F 3.906503 2.986413 -0.961630 0
M  V30 14 N 0.345660 1.230360 3.140692 0
M  V30 15 C -0.930172 0.910293 2.507011 0
M  V30 16 C -0.969534 1.572628 1.156268 0
M  V30 17 C -2.259835 1.310674 0.392547 0
M  V30 18 N -2.413907 -0.114191 0.184550 0
M  V30 19 C -3.082598 -0.947878 1.012802 0
M  V30 20 O -3.622889 -0.492128 2.026534 0
M  V30 21 C -3.212891 -2.292861 0.811220 0
M  V30 22 C -3.908564 -3.108502 1.686795 0
M  V30 23 C -3.990695 -4.463588 1.401772 0
M  V30 24 F -4.678997 -5.261174 2.271108 0
M  V30 25 C -3.418456 -5.057083 0.291465 0
M  V30 26 C -2.725393 -4.218387 -0.572759 0
M  V30 27 C -2.640211 -2.876894 -0.297118 0
M  V30 28 N -1.983468 -2.052284 -1.109161 0
M  V30 29 C -1.320318 -2.274545 -2.250263 0
M  V30 30 S -1.032986 -3.613837 -3.125109 0
M  V30 31 N -0.819691 -1.113509 -2.703914 0
M  V30 32 N -1.149651 -0.153570 -1.875429 0
M  V30 33 C -1.867413 -0.731830 -0.891664 0
M  V30 34 H 3.347465 1.873755 2.938364 0
M  V30 35 H 3.208817 0.221087 3.550245 0
M  V30 36 H 3.856407 -1.592550 2.429104 0
M  V30 37 H 4.875427 -2.642917 0.404907 0
M  V30 38 H 5.174766 -1.272149 -1.697337 0
M  V30 39 H 4.448876 1.005175 -1.628710 0
M  V30 40 H 0.689877 1.726402 4.016592 0
M  V30 41 H -0.924881 -0.202855 2.381788 0
M  V30 42 H -1.770618 1.164093 3.144859 0
M  V30 43 H -0.922764 2.683636 1.262921 0
M  V30 44 H -0.108244 1.246317 0.553073 0
M  V30 45 H -2.288917 1.851410 -0.557314 0
M  V30 46 H -3.092156 1.653929 1.068153 0
M  V30 47 H -4.374056 -2.691510 2.568361 0
M  V30 48 H -3.537074 -6.114988 0.156694 0
M  V30 49 H -2.300627 -4.721153 -1.416150 0
M  V30 50 H -0.243443 -0.860324 -3.558178 0
M  V30 END ATOM
M  V30 BEGIN BOND
M  V30 1 2 1 2
M  V30 2 1 2 3
M  V30 3 1 3 4
M  V30 4 2 4 5
M  V30 5 1 5 6
M  V30 6 2 6 7
M  V30 7 1 7 8
M  V30 8 2 8 9
M  V30 9 1 9 10
M  V30 10 1 10 11
M  V30 11 1 10 12
M  V30 12 1 10 13
M  V30 13 1 2 14
M  V30 14 1 14 15
M  V30 15 1 15 16
M  V30 16 1 16 17
M  V30 17 1 17 18
M  V30 18 1 18 19
M  V30 19 2 19 20
M  V30 20 1 19 21
M  V30 21 2 21 22
M  V30 22 1 22 23
M  V30 23 1 23 24
M  V30 24 2 23 25
M  V30 25 1 25 26
M  V30 26 2 26 27
M  V30 27 1 27 28
M  V30 28 1 28 29
M  V30 29 2 29 30
M  V30 30 1 29 31
M  V30 31 1 31 32
M  V30 32 2 32 33
M  V30 33 1 9 4
M  V30 34 1 33 18
M  V30 35 1 27 21
M  V30 36 1 33 28
M  V30 37 1 3 34
M  V30 38 1 3 35
M  V30 39 1 5 36
M  V30 40 1 6 37
M  V30 41 1 7 38
M  V30 42 1 8 39
M  V30 43 1 14 40
M  V30 44 1 15 41
M  V30 45 1 15 42
M  V30 46 1 16 43
M  V30 47 1 16 44
M  V30 48 1 17 45
M  V30 49 1 17 46
M  V30 50 1 22 47
M  V30 51 1 25 48
M  V30 52 1 26 49
M  V30 53 1 31 50
M  V30 END BOND
M  V30 END CTAB
M  END
>  <Dataset>  (806) 
ChEMBL_Kinases

>  <Ligand_Instance>  (806) 
nan

>  <PDB_ID>  (806) 
nan

>  <Standardized_SMILES>  (806) 
O=C(Cc1ccccc1C(F)(F)F)NCCCn1c(=O)c2cc(F)ccc2n2c(=S)[nH]nc12

>  <Name>  (806) 
nan

>  <Pocket>  (806) 
nan

>  <ATP_Site>  (806) 
nan

>  <Peripheral>  (806) 
nan

>  <Num_H_Atoms_ProtBoundConf>  (806) 
nan

>  <Num_Resolved_Atoms>  (806) 
nan

>  <Num_Not_Resolved_Atoms>  (806) 
nan

$$$$
CHEMBL443669
     RDKit          3D

  0  0  0  0  0  0  0  0  0  0999 V3000
M  V30 BEGIN CTAB
M  V30 COUNTS 34 36 0 0 0
M  V30 BEGIN ATOM
M  V30 1 N -0.298138 -5.827270 3.217407 0
M  V30 2 C 0.636351 -4.945009 2.610112 0
M  V30 3 N 1.962007 -5.136331 2.547843 0
M  V30 4 C 2.777759 -4.237017 1.946134 0
M  V30 5 C 2.165123 -3.117266 1.403607 0
M  V30 6 C 0.804951 -2.886068 1.448168 0
M  V30 7 C 0.202715 -1.690505 0.862355 0
M  V30 8 C -1.158970 -1.457650 0.906268 0
M  V30 9 C -1.369968 -0.253682 0.266080 0
M  V30 10 C -0.157178 0.236629 -0.159380 0
M  V30 11 N 0.795668 -0.665636 0.219361 0
M  V30 12 C -0.055853 1.547801 -0.894732 0
M  V30 13 C 0.433313 2.597861 0.034486 0
M  V30 14 C 0.603094 3.968528 -0.499273 0
M  V30 15 F -0.564264 4.515437 -0.982101 0
M  V30 16 C -1.328960 1.832077 -1.588886 0
M  V30 17 N -2.492965 1.734472 -0.700853 0
M  V30 18 C -2.625468 0.485840 0.011927 0
M  V30 19 O -3.732012 -0.000276 0.422505 0
M  V30 20 N 0.096988 -3.848920 2.071393 0
M  V30 21 H -0.533031 -5.400886 4.157671 0
M  V30 22 H -0.800067 -6.741273 3.008767 0
M  V30 23 H 3.841800 -4.408926 1.906324 0
M  V30 24 H 2.832664 -2.402095 0.922718 0
M  V30 25 H -1.917541 -2.107351 1.362514 0
M  V30 26 H 1.831545 -0.593156 0.047593 0
M  V30 27 H 0.726586 1.379665 -1.668406 0
M  V30 28 H 1.373667 2.322534 0.553770 0
M  V30 29 H -0.317723 2.682582 0.875542 0
M  V30 30 H 0.883856 4.612332 0.372079 0
M  V30 31 H 1.450850 4.089396 -1.202353 0
M  V30 32 H -1.325730 2.738012 -2.188726 0
M  V30 33 H -1.479427 0.998143 -2.340154 0
M  V30 34 H -3.263249 2.434522 -0.491519 0
M  V30 END ATOM
M  V30 BEGIN BOND
M  V30 1 1 1 2
M  V30 2 2 2 3
M  V30 3 1 3 4
M  V30 4 2 4 5
M  V30 5 1 5 6
M  V30 6 1 6 7
M  V30 7 2 7 8
M  V30 8 1 8 9
M  V30 9 2 9 10
M  V30 10 1 10 11
M  V30 11 1 10 12
M  V30 12 1 12 13
M  V30 13 1 13 14
M  V30 14 1 14 15
M  V30 15 1 12 16
M  V30 16 1 16 17
M  V30 17 1 17 18
M  V30 18 2 18 19
M  V30 19 2 6 20
M  V30 20 1 20 2
M  V30 21 1 11 7
M  V30 22 1 18 9
M  V30 23 1 1 21
M  V30 24 1 1 22
M  V30 25 1 4 23
M  V30 26 1 5 24
M  V30 27 1 8 25
M  V30 28 1 11 26
M  V30 29 1 12 27
M  V30 30 1 13 28
M  V30 31 1 13 29
M  V30 32 1 14 30
M  V30 33 1 14 31
M  V30 34 1 16 32
M  V30 35 1 16 33
M  V30 36 1 17 34
M  V30 END BOND
M  V30 END CTAB
M  END
>  <Dataset>  (807) 
ChEMBL_Kinases

>  <Ligand_Instance>  (807) 
nan

>  <PDB_ID>  (807) 
nan

>  <Standardized_SMILES>  (807) 
Nc1nccc(-c2cc3c([nH]2)C(CCF)CNC3=O)n1

>  <Name>  (807) 
nan

>  <Pocket>  (807) 
nan

>  <ATP_Site>  (807) 
nan

>  <Peripheral>  (807) 
nan

>  <Num_H_Atoms_ProtBoundConf>  (807) 
nan

>  <Num_Resolved_Atoms>  (807) 
nan

>  <Num_Not_Resolved_Atoms>  (807) 
nan

$$$$
CHEMBL4753120
     RDKit          3D

  0  0  0  0  0  0  0  0  0  0999 V3000
M  V30 BEGIN CTAB
M  V30 COUNTS 62 66 0 0 0
M  V30 BEGIN ATOM
M  V30 1 O 4.556821 1.121991 3.752293 0
M  V30 2 S 3.935626 -0.242956 3.853403 0
M  V30 3 O 4.352330 -0.976300 5.072748 0
M  V30 4 N 4.296989 -1.204809 2.450635 0
M  V30 5 C 3.892866 -0.500622 1.241026 0
M  V30 6 C 4.211058 -1.347074 0.030187 0
M  V30 7 N 3.862434 -0.756588 -1.224951 0
M  V30 8 C 2.596773 -0.425753 -1.754503 0
M  V30 9 C 1.391246 -0.672501 -1.144611 0
M  V30 10 C 0.168986 -0.336965 -1.676118 0
M  V30 11 C -1.130915 -0.574235 -1.067111 0
M  V30 12 N -1.607649 0.360481 -0.191384 0
M  V30 13 C -2.819147 -0.007136 0.276599 0
M  V30 14 C -3.654436 0.721821 1.224785 0
M  V30 15 C -3.223746 1.914130 1.731465 0
M  V30 16 C -4.039461 2.596587 2.637124 0
M  V30 17 C -5.257630 2.044944 2.993322 0
M  V30 18 C -5.724824 0.842908 2.501845 0
M  V30 19 C -4.874277 0.201541 1.602086 0
M  V30 20 N -3.112715 -1.179667 -0.303664 0
M  V30 21 C -2.112638 -1.558388 -1.127254 0
M  V30 22 C -1.862440 -2.697590 -2.005962 0
M  V30 23 C -2.836967 -2.762948 -3.009267 0
M  V30 24 C -2.781672 -3.785026 -3.964146 0
M  V30 25 C -1.754594 -4.702510 -3.879045 0
M  V30 26 C -0.795505 -4.635942 -2.888976 0
M  V30 27 O 0.259584 -5.534588 -2.757956 0
M  V30 28 C -0.847416 -3.629810 -1.947047 0
M  V30 29 C 0.138298 0.286221 -2.896815 0
M  V30 30 C 1.340407 0.538242 -3.517384 0
M  V30 31 N 2.499893 0.186228 -2.946716 0
M  V30 32 C 2.196799 0.009291 3.911155 0
M  V30 33 C 1.495676 1.047387 3.333478 0
M  V30 34 C 0.121997 1.082124 3.484331 0
M  V30 35 C -0.591449 0.123279 4.189180 0
M  V30 36 C 0.083437 -0.927702 4.778285 0
M  V30 37 C 1.446648 -0.940482 4.614898 0
M  V30 38 H 5.355141 -1.301544 2.470048 0
M  V30 39 H 2.872330 -0.133559 1.295479 0
M  V30 40 H 4.576295 0.382017 1.179178 0
M  V30 41 H 5.304754 -1.560193 0.098170 0
M  V30 42 H 3.740901 -2.375338 0.135978 0
M  V30 43 H 4.689972 -0.537985 -1.845771 0
M  V30 44 H 1.365243 -1.165936 -0.188512 0
M  V30 45 H -1.168434 1.271319 0.137155 0
M  V30 46 H -2.285864 2.352625 1.465709 0
M  V30 47 H -3.690842 3.537770 3.032182 0
M  V30 48 H -5.866672 2.591519 3.692137 0
M  V30 49 H -6.658240 0.402851 2.764933 0
M  V30 50 H -5.167725 -0.759681 1.162382 0
M  V30 51 H -3.668536 -2.098999 -3.155169 0
M  V30 52 H -3.522162 -3.872494 -4.764364 0
M  V30 53 H -1.668247 -5.511891 -4.593790 0
M  V30 54 H 0.120916 -6.272381 -2.062036 0
M  V30 55 H -0.171815 -3.460356 -1.129879 0
M  V30 56 H -0.727763 0.604789 -3.432326 0
M  V30 57 H 1.407171 1.026496 -4.481916 0
M  V30 58 H 2.090983 1.753610 2.805060 0
M  V30 59 H -0.406346 1.915452 3.016651 0
M  V30 60 H -1.681177 0.187157 4.283820 0
M  V30 61 H -0.422747 -1.693257 5.332948 0
M  V30 62 H 1.961294 -1.781815 5.089708 0
M  V30 END ATOM
M  V30 BEGIN BOND
M  V30 1 2 1 2
M  V30 2 2 2 3
M  V30 3 1 2 4
M  V30 4 1 4 5
M  V30 5 1 5 6
M  V30 6 1 6 7
M  V30 7 1 7 8
M  V30 8 2 8 9
M  V30 9 1 9 10
M  V30 10 1 10 11
M  V30 11 1 11 12
M  V30 12 1 12 13
M  V30 13 1 13 14
M  V30 14 2 14 15
M  V30 15 1 15 16
M  V30 16 2 16 17
M  V30 17 1 17 18
M  V30 18 2 18 19
M  V30 19 2 13 20
M  V30 20 1 20 21
M  V30 21 1 21 22
M  V30 22 2 22 23
M  V30 23 1 23 24
M  V30 24 2 24 25
M  V30 25 1 25 26
M  V30 26 1 26 27
M  V30 27 2 26 28
M  V30 28 2 10 29
M  V30 29 1 29 30
M  V30 30 2 30 31
M  V30 31 1 2 32
M  V30 32 2 32 33
M  V30 33 1 33 34
M  V30 34 2 34 35
M  V30 35 1 35 36
M  V30 36 2 36 37
M  V30 37 1 31 8
M  V30 38 1 37 32
M  V30 39 2 21 11
M  V30 40 1 28 22
M  V30 41 1 19 14
M  V30 42 1 4 38
M  V30 43 1 5 39
M  V30 44 1 5 40
M  V30 45 1 6 41
M  V30 46 1 6 42
M  V30 47 1 7 43
M  V30 48 1 9 44
M  V30 49 1 12 45
M  V30 50 1 15 46
M  V30 51 1 16 47
M  V30 52 1 17 48
M  V30 53 1 18 49
M  V30 54 1 19 50
M  V30 55 1 23 51
M  V30 56 1 24 52
M  V30 57 1 25 53
M  V30 58 1 27 54
M  V30 59 1 28 55
M  V30 60 1 29 56
M  V30 61 1 30 57
M  V30 62 1 33 58
M  V30 63 1 34 59
M  V30 64 1 35 60
M  V30 65 1 36 61
M  V30 66 1 37 62
M  V30 END BOND
M  V30 END CTAB
M  END
>  <Dataset>  (808) 
ChEMBL_Kinases

>  <Ligand_Instance>  (808) 
nan

>  <PDB_ID>  (808) 
nan

>  <Standardized_SMILES>  (808) 
O=S(=O)(NCCNc1cc(-c2[nH]c(-c3ccccc3)nc2-c2cccc(O)c2)ccn1)c1ccccc1

>  <Name>  (808) 
nan

>  <Pocket>  (808) 
nan

>  <ATP_Site>  (808) 
nan

>  <Peripheral>  (808) 
nan

>  <Num_H_Atoms_ProtBoundConf>  (808) 
nan

>  <Num_Resolved_Atoms>  (808) 
nan

>  <Num_Not_Resolved_Atoms>  (808) 
nan

$$$$
CHEMBL4753128
     RDKit          3D

  0  0  0  0  0  0  0  0  0  0999 V3000
M  V30 BEGIN CTAB
M  V30 COUNTS 57 63 0 0 0
M  V30 BEGIN ATOM
M  V30 1 O 3.217264 -1.006312 3.085872 0
M  V30 2 C 2.229809 -0.839225 3.853031 0
M  V30 3 N 1.545717 0.416507 3.827488 0
M  V30 4 C 2.191663 1.261689 2.859251 0
M  V30 5 C 3.232231 2.081952 3.246466 0
M  V30 6 N 3.820283 2.867202 2.307993 0
M  V30 7 C 3.389143 2.842260 1.014622 0
M  V30 8 C 2.354587 2.038209 0.588354 0
M  V30 9 C 1.985617 2.100705 -0.820131 0
M  V30 10 C 0.971862 1.349597 -1.369571 0
M  V30 11 C 0.616704 1.400461 -2.691533 0
M  V30 12 C -0.345237 0.742940 -3.411142 0
M  V30 13 C -1.336409 -0.242916 -3.043088 0
M  V30 14 C -1.721181 -0.901542 -1.908001 0
M  V30 15 C -2.766762 -1.770892 -2.132348 0
M  V30 16 C -3.449386 -2.617407 -1.283446 0
M  V30 17 C -3.122141 -2.710614 0.134291 0
M  V30 18 C -2.901383 -1.740180 1.089597 0
M  V30 19 C -2.600197 -2.101821 2.370070 0
M  V30 20 C -2.503191 -3.406693 2.767011 0
M  V30 21 C -2.716668 -4.406889 1.843089 0
M  V30 22 F -2.613462 -5.674880 2.267329 0
M  V30 23 C -3.024915 -4.049502 0.532074 0
M  V30 24 C -4.484804 -3.397269 -1.807678 0
M  V30 25 C -4.729924 -3.241328 -3.154666 0
M  V30 26 N -4.044072 -2.405746 -3.953018 0
M  V30 27 C -3.043524 -1.644047 -3.476148 0
M  V30 28 N -2.183660 -0.739155 -3.974133 0
M  V30 29 N -0.171926 1.241005 -4.646741 0
M  V30 30 N 0.794206 2.116096 -4.696208 0
M  V30 31 C 1.344960 2.268631 -3.478800 0
M  V30 32 C 2.360231 3.020412 -2.926943 0
M  V30 33 N 2.665890 2.925694 -1.605969 0
M  V30 34 C 1.763466 1.244351 1.547987 0
M  V30 35 C 1.874200 -1.995593 4.723734 0
M  V30 36 C 2.983667 -2.846709 5.274067 0
M  V30 37 C 2.090729 -3.388530 4.189908 0
M  V30 38 H 0.731374 0.457292 4.507596 0
M  V30 39 H 3.577204 2.102043 4.280950 0
M  V30 40 H 3.947192 3.521318 0.362006 0
M  V30 41 H 0.440946 0.693012 -0.710295 0
M  V30 42 H -1.271976 -0.766497 -0.962856 0
M  V30 43 H -3.005301 -0.749294 0.671855 0
M  V30 44 H -2.443380 -1.274083 3.050023 0
M  V30 45 H -2.255439 -3.548262 3.822350 0
M  V30 46 H -3.171107 -4.926950 -0.103115 0
M  V30 47 H -5.042126 -4.073586 -1.168570 0
M  V30 48 H -5.518651 -3.824224 -3.593921 0
M  V30 49 H -2.276911 -0.536041 -5.003413 0
M  V30 50 H 1.090822 2.620688 -5.559832 0
M  V30 51 H 2.899325 3.691151 -3.610598 0
M  V30 52 H 0.964128 0.615008 1.247666 0
M  V30 53 H 1.005761 -1.800045 5.374579 0
M  V30 54 H 2.855202 -3.323069 6.273423 0
M  V30 55 H 4.014037 -2.546928 4.985169 0
M  V30 56 H 2.566042 -3.532476 3.212119 0
M  V30 57 H 1.281484 -4.103268 4.473284 0
M  V30 END ATOM
M  V30 BEGIN BOND
M  V30 1 2 1 2
M  V30 2 1 2 3
M  V30 3 1 3 4
M  V30 4 2 4 5
M  V30 5 1 5 6
M  V30 6 2 6 7
M  V30 7 1 7 8
M  V30 8 1 8 9
M  V30 9 2 9 10
M  V30 10 1 10 11
M  V30 11 1 11 12
M  V30 12 1 12 13
M  V30 13 2 13 14
M  V30 14 1 14 15
M  V30 15 2 15 16
M  V30 16 1 16 17
M  V30 17 2 17 18
M  V30 18 1 18 19
M  V30 19 2 19 20
M  V30 20 1 20 21
M  V30 21 1 21 22
M  V30 22 2 21 23
M  V30 23 1 16 24
M  V30 24 2 24 25
M  V30 25 1 25 26
M  V30 26 2 26 27
M  V30 27 1 27 28
M  V30 28 2 12 29
M  V30 29 1 29 30
M  V30 30 1 30 31
M  V30 31 1 31 32
M  V30 32 2 32 33
M  V30 33 2 8 34
M  V30 34 1 2 35
M  V30 35 1 35 36
M  V30 36 1 36 37
M  V30 37 1 34 4
M  V30 38 1 37 35
M  V30 39 1 33 9
M  V30 40 2 31 11
M  V30 41 1 28 13
M  V30 42 1 27 15
M  V30 43 1 23 17
M  V30 44 1 3 38
M  V30 45 1 5 39
M  V30 46 1 7 40
M  V30 47 1 10 41
M  V30 48 1 14 42
M  V30 49 1 18 43
M  V30 50 1 19 44
M  V30 51 1 20 45
M  V30 52 1 23 46
M  V30 53 1 24 47
M  V30 54 1 25 48
M  V30 55 1 28 49
M  V30 56 1 30 50
M  V30 57 1 32 51
M  V30 58 1 34 52
M  V30 59 1 35 53
M  V30 60 1 36 54
M  V30 61 1 36 55
M  V30 62 1 37 56
M  V30 63 1 37 57
M  V30 END BOND
M  V30 END CTAB
M  END
>  <Dataset>  (809) 
ChEMBL_Kinases

>  <Ligand_Instance>  (809) 
nan

>  <PDB_ID>  (809) 
nan

>  <Standardized_SMILES>  (809) 
O=C(Nc1cncc(-c2cc3c(-c4cc5c(-c6cccc(F)c6)ccnc5[nH]4)n[nH]c3cn2)c1)C1CC1

>  <Name>  (809) 
nan

>  <Pocket>  (809) 
nan

>  <ATP_Site>  (809) 
nan

>  <Peripheral>  (809) 
nan

>  <Num_H_Atoms_ProtBoundConf>  (809) 
nan

>  <Num_Resolved_Atoms>  (809) 
nan

>  <Num_Not_Resolved_Atoms>  (809) 
nan

$$$$
CHEMBL4436510
     RDKit          3D

  0  0  0  0  0  0  0  0  0  0999 V3000
M  V30 BEGIN CTAB
M  V30 COUNTS 57 60 0 0 0
M  V30 BEGIN ATOM
M  V30 1 C -0.249998 3.079493 0.939651 0
M  V30 2 C 0.728530 1.973266 0.846177 0
M  V30 3 N 2.022939 2.194432 0.571596 0
M  V30 4 C 2.923679 1.202173 0.484006 0
M  V30 5 N 4.272496 1.533344 0.186233 0
M  V30 6 C 5.434315 0.671278 0.141659 0
M  V30 7 C 6.358609 1.105810 1.271749 0
M  V30 8 O 6.611985 2.474516 1.211666 0
M  V30 9 C 6.136373 3.022406 0.013127 0
M  V30 10 C 4.641376 2.898168 -0.137771 0
M  V30 11 C 2.494776 -0.093333 0.685059 0
M  V30 12 C 1.164711 -0.322969 0.967293 0
M  V30 13 C 0.249825 0.700236 1.055123 0
M  V30 14 N -1.110353 0.433963 1.353497 0
M  V30 15 C -1.706595 -0.838240 1.573811 0
M  V30 16 N -2.295794 -1.571834 0.625266 0
M  V30 17 C -2.864104 -2.766112 0.777700 0
M  V30 18 N -3.422473 -3.352741 -0.399218 0
M  V30 19 C -3.492401 -2.861745 -1.745076 0
M  V30 20 C -4.105661 -3.971005 -2.615723 0
M  V30 21 C -2.170551 -2.511981 -2.350999 0
M  V30 22 C -4.439168 -1.680621 -1.870973 0
M  V30 23 O -4.056335 -0.614218 -1.084980 0
M  V30 24 C -2.841117 -3.303583 2.055437 0
M  V30 25 C -3.349324 -4.502734 2.474967 0
M  V30 26 C -4.033577 -5.558973 1.820625 0
M  V30 27 N -4.580614 -6.431877 1.299794 0
M  V30 28 C -3.053260 -4.540796 3.842114 0
M  V30 29 N -2.409859 -3.398567 4.132196 0
M  V30 30 C -2.249293 -2.587298 3.053218 0
M  V30 31 N -1.703194 -1.399492 2.819730 0
M  V30 32 H -1.037051 3.028422 0.161062 0
M  V30 33 H 0.293356 4.026232 0.745943 0
M  V30 34 H -0.638914 3.144074 1.976039 0
M  V30 35 H 5.944877 0.713864 -0.849990 0
M  V30 36 H 5.085932 -0.369623 0.286608 0
M  V30 37 H 5.760053 0.959460 2.212381 0
M  V30 38 H 7.280517 0.497386 1.334212 0
M  V30 39 H 6.680997 2.617211 -0.867497 0
M  V30 40 H 6.393918 4.111067 0.076291 0
M  V30 41 H 4.426391 3.015933 -1.241645 0
M  V30 42 H 4.088009 3.657616 0.433372 0
M  V30 43 H 3.172844 -0.922813 0.626388 0
M  V30 44 H 0.825303 -1.321726 1.123486 0
M  V30 45 H -1.810948 1.200432 1.437594 0
M  V30 46 H -3.831283 -4.279658 -0.199804 0
M  V30 47 H -5.198980 -3.881571 -2.543851 0
M  V30 48 H -3.744256 -3.820034 -3.640503 0
M  V30 49 H -3.750725 -4.969093 -2.258746 0
M  V30 50 H -2.119122 -2.826906 -3.427989 0
M  V30 51 H -1.299776 -2.977531 -1.852720 0
M  V30 52 H -2.014834 -1.411936 -2.370853 0
M  V30 53 H -5.455455 -2.067472 -1.606801 0
M  V30 54 H -4.483851 -1.340958 -2.922099 0
M  V30 55 H -4.055759 0.215647 -1.587203 0
M  V30 56 H -3.287617 -5.325188 4.540863 0
M  V30 57 H -2.067553 -3.167554 5.109597 0
M  V30 END ATOM
M  V30 BEGIN BOND
M  V30 1 1 1 2
M  V30 2 2 2 3
M  V30 3 1 3 4
M  V30 4 1 4 5
M  V30 5 1 5 6
M  V30 6 1 6 7
M  V30 7 1 7 8
M  V30 8 1 8 9
M  V30 9 1 9 10
M  V30 10 2 4 11
M  V30 11 1 11 12
M  V30 12 2 12 13
M  V30 13 1 13 14
M  V30 14 1 14 15
M  V30 15 2 15 16
M  V30 16 1 16 17
M  V30 17 1 17 18
M  V30 18 1 18 19
M  V30 19 1 19 20
M  V30 20 1 19 21
M  V30 21 1 19 22
M  V30 22 1 22 23
M  V30 23 2 17 24
M  V30 24 1 24 25
M  V30 25 1 25 26
M  V30 26 3 26 27
M  V30 27 2 25 28
M  V30 28 1 28 29
M  V30 29 1 29 30
M  V30 30 2 30 31
M  V30 31 1 13 2
M  V30 32 1 31 15
M  V30 33 1 10 5
M  V30 34 1 30 24
M  V30 35 1 1 32
M  V30 36 1 1 33
M  V30 37 1 1 34
M  V30 38 1 6 35
M  V30 39 1 6 36
M  V30 40 1 7 37
M  V30 41 1 7 38
M  V30 42 1 9 39
M  V30 43 1 9 40
M  V30 44 1 10 41
M  V30 45 1 10 42
M  V30 46 1 11 43
M  V30 47 1 12 44
M  V30 48 1 14 45
M  V30 49 1 18 46
M  V30 50 1 20 47
M  V30 51 1 20 48
M  V30 52 1 20 49
M  V30 53 1 21 50
M  V30 54 1 21 51
M  V30 55 1 21 52
M  V30 56 1 22 53
M  V30 57 1 22 54
M  V30 58 1 23 55
M  V30 59 1 28 56
M  V30 60 1 29 57
M  V30 END BOND
M  V30 END CTAB
M  END
>  <Dataset>  (810) 
ChEMBL_Kinases

>  <Ligand_Instance>  (810) 
nan

>  <PDB_ID>  (810) 
nan

>  <Standardized_SMILES>  (810) 
Cc1nc(N2CCOCC2)ccc1Nc1nc(NC(C)(C)CO)c2c(C#N)c[nH]c2n1

>  <Name>  (810) 
nan

>  <Pocket>  (810) 
nan

>  <ATP_Site>  (810) 
nan

>  <Peripheral>  (810) 
nan

>  <Num_H_Atoms_ProtBoundConf>  (810) 
nan

>  <Num_Resolved_Atoms>  (810) 
nan

>  <Num_Not_Resolved_Atoms>  (810) 
nan

$$$$
CHEMBL4753139
     RDKit          3D

  0  0  0  0  0  0  0  0  0  0999 V3000
M  V30 BEGIN CTAB
M  V30 COUNTS 67 71 0 0 0
M  V30 BEGIN ATOM
M  V30 1 C -6.646609 0.433374 -2.909423 0
M  V30 2 N -5.250163 0.819460 -2.709543 0
M  V30 3 C -4.201452 -0.106022 -2.830199 0
M  V30 4 O -4.514489 -1.279259 -3.117213 0
M  V30 5 C -2.850636 0.499400 -2.584849 0
M  V30 6 S -2.417709 2.213315 -2.168074 0
M  V30 7 C -0.571473 1.772586 -2.110989 0
M  V30 8 C 0.407796 2.898165 -1.780902 0
M  V30 9 C 1.725915 2.530021 -1.743935 0
M  V30 10 C 2.667345 3.495549 -1.453117 0
M  V30 11 N 2.243466 4.771850 -1.215753 0
M  V30 12 C 0.939760 5.096122 -1.260983 0
M  V30 13 N 0.567227 6.462572 -0.999619 0
M  V30 14 C 0.561945 7.211048 -2.195195 0
M  V30 15 O 0.851331 6.713160 -3.320376 0
M  V30 16 C 0.224578 8.643856 -2.287233 0
M  V30 17 C -0.945163 9.186512 -1.488443 0
M  V30 18 C 0.449404 9.610460 -1.212890 0
M  V30 19 C -0.033129 4.175969 -1.544820 0
M  V30 20 N -0.595333 0.680782 -2.355459 0
M  V30 21 C -1.613503 -0.111877 -2.616838 0
M  V30 22 O -1.556961 -1.465963 -2.913295 0
M  V30 23 C -0.407945 -2.247990 -2.989460 0
M  V30 24 C 0.305502 -2.235896 -1.649878 0
M  V30 25 C -0.658648 -2.798901 -0.638401 0
M  V30 26 C 0.176329 -3.467580 0.464887 0
M  V30 27 N 0.694103 -4.668487 -0.090717 0
M  V30 28 C 1.707846 -5.342141 0.650818 0
M  V30 29 C 1.336135 -5.789040 1.995874 0
M  V30 30 C 1.030902 -7.152680 2.082378 0
M  V30 31 C 0.648043 -7.761641 3.259723 0
M  V30 32 C 0.555004 -7.014790 4.414285 0
M  V30 33 C 0.851642 -5.669762 4.350235 0
M  V30 34 C 1.231842 -5.078726 3.168601 0
M  V30 35 F 1.537140 -3.773543 3.074797 0
M  V30 36 C 0.985172 -4.581205 -1.503903 0
M  V30 37 C 1.525411 -3.162579 -1.728039 0
M  V30 38 H -6.667820 -0.653179 -3.055576 0
M  V30 39 H -7.184952 0.637879 -1.960062 0
M  V30 40 H -7.078395 0.982151 -3.766632 0
M  V30 41 H -5.203125 1.840400 -2.478259 0
M  V30 42 H 1.994528 1.504028 -1.940879 0
M  V30 43 H 3.705876 3.176758 -1.430042 0
M  V30 44 H 0.316767 6.948098 -0.110251 0
M  V30 45 H 0.282205 9.053480 -3.337208 0
M  V30 46 H -1.688580 9.846903 -1.980680 0
M  V30 47 H -1.413866 8.508547 -0.749924 0
M  V30 48 H 0.923788 9.330739 -0.251088 0
M  V30 49 H 0.689615 10.668156 -1.489048 0
M  V30 50 H -1.077411 4.404346 -1.587681 0
M  V30 51 H 0.279613 -1.960980 -3.811494 0
M  V30 52 H -0.745428 -3.291489 -3.234400 0
M  V30 53 H 0.636562 -1.210951 -1.450334 0
M  V30 54 H -1.278167 -1.979912 -0.218023 0
M  V30 55 H -1.238883 -3.607031 -1.092655 0
M  V30 56 H 1.007733 -2.759925 0.646958 0
M  V30 57 H -0.488290 -3.627440 1.339370 0
M  V30 58 H 2.181443 -6.152324 0.044600 0
M  V30 59 H 2.550677 -4.591638 0.766991 0
M  V30 60 H 1.073602 -7.822987 1.235642 0
M  V30 61 H 0.411553 -8.806937 3.339130 0
M  V30 62 H 0.254622 -7.485822 5.344107 0
M  V30 63 H 0.786973 -5.055170 5.244852 0
M  V30 64 H 1.830239 -5.269580 -1.707050 0
M  V30 65 H 0.144825 -4.815828 -2.162770 0
M  V30 66 H 2.257948 -2.943975 -0.950433 0
M  V30 67 H 1.942603 -3.038915 -2.736509 0
M  V30 END ATOM
M  V30 BEGIN BOND
M  V30 1 1 1 2
M  V30 2 1 2 3
M  V30 3 2 3 4
M  V30 4 1 3 5
M  V30 5 1 5 6
M  V30 6 1 6 7
M  V30 7 1 7 8
M  V30 8 2 8 9
M  V30 9 1 9 10
M  V30 10 2 10 11
M  V30 11 1 11 12
M  V30 12 1 12 13
M  V30 13 1 13 14
M  V30 14 2 14 15
M  V30 15 1 14 16
M  V30 16 1 16 17
M  V30 17 1 17 18
M  V30 18 2 12 19
M  V30 19 2 7 20
M  V30 20 1 20 21
M  V30 21 1 21 22
M  V30 22 1 22 23
M  V30 23 1 23 24
M  V30 24 1 24 25
M  V30 25 1 25 26
M  V30 26 1 26 27
M  V30 27 1 27 28
M  V30 28 1 28 29
M  V30 29 2 29 30
M  V30 30 1 30 31
M  V30 31 2 31 32
M  V30 32 1 32 33
M  V30 33 2 33 34
M  V30 34 1 34 35
M  V30 35 1 27 36
M  V30 36 1 36 37
M  V30 37 2 21 5
M  V30 38 1 37 24
M  V30 39 1 19 8
M  V30 40 1 34 29
M  V30 41 1 18 16
M  V30 42 1 1 38
M  V30 43 1 1 39
M  V30 44 1 1 40
M  V30 45 1 2 41
M  V30 46 1 9 42
M  V30 47 1 10 43
M  V30 48 1 13 44
M  V30 49 1 16 45
M  V30 50 1 17 46
M  V30 51 1 17 47
M  V30 52 1 18 48
M  V30 53 1 18 49
M  V30 54 1 19 50
M  V30 55 1 23 51
M  V30 56 1 23 52
M  V30 57 1 24 53
M  V30 58 1 25 54
M  V30 59 1 25 55
M  V30 60 1 26 56
M  V30 61 1 26 57
M  V30 62 1 28 58
M  V30 63 1 28 59
M  V30 64 1 30 60
M  V30 65 1 31 61
M  V30 66 1 32 62
M  V30 67 1 33 63
M  V30 68 1 36 64
M  V30 69 1 36 65
M  V30 70 1 37 66
M  V30 71 1 37 67
M  V30 END BOND
M  V30 END CTAB
M  END
>  <Dataset>  (811) 
ChEMBL_Kinases

>  <Ligand_Instance>  (811) 
nan

>  <PDB_ID>  (811) 
nan

>  <Standardized_SMILES>  (811) 
CNC(=O)c1sc(-c2ccnc(NC(=O)C3CC3)c2)nc1OCC1CCN(Cc2ccccc2F)CC1

>  <Name>  (811) 
nan

>  <Pocket>  (811) 
nan

>  <ATP_Site>  (811) 
nan

>  <Peripheral>  (811) 
nan

>  <Num_H_Atoms_ProtBoundConf>  (811) 
nan

>  <Num_Resolved_Atoms>  (811) 
nan

>  <Num_Not_Resolved_Atoms>  (811) 
nan

$$$$
CHEMBL4753158
     RDKit          3D

  0  0  0  0  0  0  0  0  0  0999 V3000
M  V30 BEGIN CTAB
M  V30 COUNTS 41 43 0 0 0
M  V30 BEGIN ATOM
M  V30 1 O -0.325152 -2.257070 2.581417 0
M  V30 2 C -1.021394 -3.067733 1.888384 0
M  V30 3 N -1.375546 -2.587433 0.608995 0
M  V30 4 C -0.865488 -1.273183 0.368712 0
M  V30 5 C 0.386905 -1.213991 -0.203131 0
M  V30 6 C 0.911959 0.008406 -0.449667 0
M  V30 7 C 0.321121 1.222611 -0.186562 0
M  V30 8 O 0.549590 2.555430 -0.296543 0
M  V30 9 C 1.602814 3.274411 -0.717455 0
M  V30 10 C 1.264787 3.938461 -1.905530 0
M  V30 11 C 2.160519 4.772279 -2.588672 0
M  V30 12 C 3.429375 4.963319 -2.093594 0
M  V30 13 C 3.772019 4.317989 -0.928440 0
M  V30 14 C 2.876011 3.510607 -0.282900 0
M  V30 15 C 3.271426 2.888352 0.992443 0
M  V30 16 F 4.573594 3.231417 1.330880 0
M  V30 17 F 2.483950 3.500684 1.978940 0
M  V30 18 F 3.048685 1.561305 1.097115 0
M  V30 19 C -0.957856 1.133435 0.397364 0
M  V30 20 Cl -2.071560 2.420735 0.898167 0
M  V30 21 C -1.547285 -0.112910 0.673232 0
M  V30 22 C -1.383362 -4.369234 2.441877 0
M  V30 23 C -2.127718 -5.243165 1.708505 0
M  V30 24 C -2.466226 -6.484316 2.251057 0
M  V30 25 Cl -3.422318 -7.630895 1.334051 0
M  V30 26 C -2.037111 -6.793793 3.518310 0
M  V30 27 C -1.284533 -5.928474 4.278749 0
M  V30 28 Cl -0.718756 -6.288335 5.899571 0
M  V30 29 C -0.968471 -4.711907 3.712244 0
M  V30 30 O -0.216431 -3.812028 4.435609 0
M  V30 31 H -1.946852 -3.215377 0.001652 0
M  V30 32 H 1.030636 -2.018263 -0.492323 0
M  V30 33 H 1.886136 0.246935 -0.903972 0
M  V30 34 H 0.307397 3.910887 -2.451246 0
M  V30 35 H 1.945647 5.300485 -3.500684 0
M  V30 36 H 4.189697 5.580864 -2.541497 0
M  V30 37 H 4.758728 4.441827 -0.506775 0
M  V30 38 H -2.510287 -0.321679 1.113698 0
M  V30 39 H -2.487037 -5.048433 0.714252 0
M  V30 40 H -2.279870 -7.742065 3.967818 0
M  V30 41 H 0.795094 -3.756206 4.411028 0
M  V30 END ATOM
M  V30 BEGIN BOND
M  V30 1 2 1 2
M  V30 2 1 2 3
M  V30 3 1 3 4
M  V30 4 2 4 5
M  V30 5 1 5 6
M  V30 6 2 6 7
M  V30 7 1 7 8
M  V30 8 1 8 9
M  V30 9 2 9 10
M  V30 10 1 10 11
M  V30 11 2 11 12
M  V30 12 1 12 13
M  V30 13 2 13 14
M  V30 14 1 14 15
M  V30 15 1 15 16
M  V30 16 1 15 17
M  V30 17 1 15 18
M  V30 18 1 7 19
M  V30 19 1 19 20
M  V30 20 2 19 21
M  V30 21 1 2 22
M  V30 22 2 22 23
M  V30 23 1 23 24
M  V30 24 1 24 25
M  V30 25 2 24 26
M  V30 26 1 26 27
M  V30 27 1 27 28
M  V30 28 2 27 29
M  V30 29 1 29 30
M  V30 30 1 21 4
M  V30 31 1 29 22
M  V30 32 1 14 9
M  V30 33 1 3 31
M  V30 34 1 5 32
M  V30 35 1 6 33
M  V30 36 1 10 34
M  V30 37 1 11 35
M  V30 38 1 12 36
M  V30 39 1 13 37
M  V30 40 1 21 38
M  V30 41 1 23 39
M  V30 42 1 26 40
M  V30 43 1 30 41
M  V30 END BOND
M  V30 END CTAB
M  END
>  <Dataset>  (812) 
ChEMBL_Kinases

>  <Ligand_Instance>  (812) 
nan

>  <PDB_ID>  (812) 
nan

>  <Standardized_SMILES>  (812) 
O=C(Nc1ccc(Oc2ccccc2C(F)(F)F)c(Cl)c1)c1cc(Cl)cc(Cl)c1O

>  <Name>  (812) 
nan

>  <Pocket>  (812) 
nan

>  <ATP_Site>  (812) 
nan

>  <Peripheral>  (812) 
nan

>  <Num_H_Atoms_ProtBoundConf>  (812) 
nan

>  <Num_Resolved_Atoms>  (812) 
nan

>  <Num_Not_Resolved_Atoms>  (812) 
nan

$$$$
CHEMBL4436508
     RDKit          3D

  0  0  0  0  0  0  0  0  0  0999 V3000
M  V30 BEGIN CTAB
M  V30 COUNTS 48 51 0 0 0
M  V30 BEGIN ATOM
M  V30 1 O -2.882555 -5.578820 -0.826472 0
M  V30 2 C -2.203832 -4.629917 -0.336380 0
M  V30 3 C -1.628121 -3.585915 -1.248432 0
M  V30 4 N -1.353912 -2.365452 -0.547284 0
M  V30 5 C -0.371323 -1.439363 -0.999056 0
M  V30 6 C 0.257508 -1.739574 -2.187094 0
M  V30 7 C 1.210439 -0.863871 -2.644326 0
M  V30 8 N 1.870534 -1.063710 -3.774742 0
M  V30 9 C 2.806377 -0.215523 -4.235590 0
M  V30 10 C 3.112724 0.922555 -3.518212 0
M  V30 11 N 2.438853 1.120319 -2.370390 0
M  V30 12 C 1.504024 0.264214 -1.918960 0
M  V30 13 C 0.857491 0.559038 -0.711423 0
M  V30 14 N 1.135852 1.710974 0.028975 0
M  V30 15 C 0.664692 2.256260 1.251773 0
M  V30 16 C 1.008889 1.549638 2.508460 0 CFG=1
M  V30 17 C 0.415706 2.298402 3.700054 0
M  V30 18 C -0.780303 1.581228 4.287379 0
M  V30 19 C -0.436499 0.190888 4.757472 0
M  V30 20 N 0.739920 -0.228246 4.066841 0
M  V30 21 C 0.541049 0.139130 2.645994 0
M  V30 22 N -0.064681 -0.331003 -0.311865 0
M  V30 23 C -2.161010 -2.155518 0.652677 0
M  V30 24 C -1.723792 -3.185074 1.678481 0
M  V30 25 N -1.952094 -4.496225 1.058106 0
M  V30 26 H -2.338773 -3.352608 -2.071335 0
M  V30 27 H -0.740349 -4.071742 -1.700845 0
M  V30 28 H 0.092681 -2.598083 -2.823046 0
M  V30 29 H 3.275059 -0.494001 -5.175541 0
M  V30 30 H 3.870682 1.590169 -3.911122 0
M  V30 31 H 1.878640 2.329417 -0.427616 0
M  V30 32 H -0.454093 2.307631 1.197324 0
M  V30 33 H 0.974105 3.327551 1.390566 0
M  V30 34 H 2.118588 1.531917 2.602487 0
M  V30 35 H 1.189739 2.391636 4.465537 0
M  V30 36 H 0.039196 3.287361 3.368331 0
M  V30 37 H -1.052182 2.153210 5.196540 0
M  V30 38 H -1.648777 1.575570 3.621477 0
M  V30 39 H -1.258694 -0.513205 4.521547 0
M  V30 40 H -0.318648 0.119821 5.867797 0
M  V30 41 H 1.630931 0.164426 4.397004 0
M  V30 42 H -0.520303 0.029959 2.394077 0
M  V30 43 H 1.241686 -0.503424 2.116615 0
M  V30 44 H -3.219214 -2.418747 0.364788 0
M  V30 45 H -2.086802 -1.130993 1.012221 0
M  V30 46 H -0.644837 -3.108371 1.862368 0
M  V30 47 H -2.354572 -3.122418 2.590053 0
M  V30 48 H -1.935972 -5.376724 1.629516 0
M  V30 END ATOM
M  V30 BEGIN BOND
M  V30 1 2 1 2
M  V30 2 1 2 3
M  V30 3 1 3 4
M  V30 4 1 4 5
M  V30 5 2 5 6
M  V30 6 1 6 7
M  V30 7 2 7 8
M  V30 8 1 8 9
M  V30 9 2 9 10
M  V30 10 1 10 11
M  V30 11 2 11 12
M  V30 12 1 12 13
M  V30 13 1 13 14
M  V30 14 1 14 15
M  V30 15 1 15 16
M  V30 16 1 16 17
M  V30 17 1 17 18
M  V30 18 1 18 19
M  V30 19 1 19 20
M  V30 20 1 20 21
M  V30 21 2 13 22
M  V30 22 1 4 23
M  V30 23 1 23 24
M  V30 24 1 24 25
M  V30 25 1 25 2
M  V30 26 1 22 5
M  V30 27 1 12 7
M  V30 28 1 21 16
M  V30 29 1 3 26
M  V30 30 1 3 27
M  V30 31 1 6 28
M  V30 32 1 9 29
M  V30 33 1 10 30
M  V30 34 1 14 31
M  V30 35 1 15 32
M  V30 36 1 15 33
M  V30 37 1 16 34 CFG=1
M  V30 38 1 17 35
M  V30 39 1 17 36
M  V30 40 1 18 37
M  V30 41 1 18 38
M  V30 42 1 19 39
M  V30 43 1 19 40
M  V30 44 1 20 41
M  V30 45 1 21 42
M  V30 46 1 21 43
M  V30 47 1 23 44
M  V30 48 1 23 45
M  V30 49 1 24 46
M  V30 50 1 24 47
M  V30 51 1 25 48
M  V30 END BOND
M  V30 END CTAB
M  END
>  <Dataset>  (813) 
ChEMBL_Kinases

>  <Ligand_Instance>  (813) 
nan

>  <PDB_ID>  (813) 
nan

>  <Standardized_SMILES>  (813) 
O=C1CN(c2cc3nccnc3c(NC[C@H]3CCCNC3)n2)CCN1

>  <Name>  (813) 
nan

>  <Pocket>  (813) 
nan

>  <ATP_Site>  (813) 
nan

>  <Peripheral>  (813) 
nan

>  <Num_H_Atoms_ProtBoundConf>  (813) 
nan

>  <Num_Resolved_Atoms>  (813) 
nan

>  <Num_Not_Resolved_Atoms>  (813) 
nan

$$$$
CHEMBL4753166
     RDKit          3D

  0  0  0  0  0  0  0  0  0  0999 V3000
M  V30 BEGIN CTAB
M  V30 COUNTS 44 47 0 0 0
M  V30 BEGIN ATOM
M  V30 1 C -0.363489 -5.553139 1.819345 0
M  V30 2 N 0.066834 -4.291746 1.405219 0
M  V30 3 C -0.083575 -3.844372 0.097737 0
M  V30 4 C 1.178413 -3.456510 -0.622222 0
M  V30 5 N 2.040878 -2.620332 0.179131 0
M  V30 6 C 1.473099 -1.333247 0.461963 0
M  V30 7 C 1.347241 -0.415781 -0.727398 0
M  V30 8 N 0.747457 0.819880 -0.221064 0
M  V30 9 C 1.529251 1.817967 0.248716 0
M  V30 10 O 2.767674 1.640343 0.234685 0
M  V30 11 C 0.946458 2.973309 0.717967 0
M  V30 12 C 1.771185 3.993487 1.201450 0
M  V30 13 C 1.165881 5.139647 1.666917 0
M  V30 14 F 1.979968 6.101393 2.126421 0
M  V30 15 C -0.210986 5.269145 1.652829 0
M  V30 16 C -0.991886 4.236504 1.165820 0
M  V30 17 C -0.424367 3.098714 0.702303 0
M  V30 18 N -1.206841 2.118470 0.239668 0
M  V30 19 C -2.536048 2.009175 0.125853 0
M  V30 20 S -3.747384 2.994681 0.490137 0
M  V30 21 N -2.740137 0.793391 -0.408087 0
M  V30 22 N -1.585395 0.185590 -0.611787 0
M  V30 23 C -0.605194 1.003519 -0.210097 0
M  V30 24 C 2.290813 -3.269976 1.448208 0
M  V30 25 C 1.013693 -3.596601 2.177467 0
M  V30 26 H -1.433157 -5.694628 1.530809 0
M  V30 27 H 0.201614 -6.426115 1.487144 0
M  V30 28 H -0.290679 -5.578461 2.948453 0
M  V30 29 H -0.745233 -2.922506 0.123408 0
M  V30 30 H -0.628134 -4.536199 -0.588432 0
M  V30 31 H 0.913240 -2.985786 -1.566043 0
M  V30 32 H 1.716308 -4.400931 -0.835910 0
M  V30 33 H 0.493927 -1.502868 0.935175 0
M  V30 34 H 2.118166 -0.833916 1.210814 0
M  V30 35 H 0.736702 -0.815982 -1.533451 0
M  V30 36 H 2.346251 -0.150659 -1.133724 0
M  V30 37 H 2.845004 3.888932 1.212251 0
M  V30 38 H -0.560889 6.226910 2.051574 0
M  V30 39 H -2.030538 4.496738 1.225848 0
M  V30 40 H -3.671785 0.346092 -0.649421 0
M  V30 41 H 2.866220 -4.205856 1.356344 0
M  V30 42 H 2.849479 -2.538795 2.069466 0
M  V30 43 H 0.521388 -2.686047 2.585849 0
M  V30 44 H 1.326459 -4.164256 3.086252 0
M  V30 END ATOM
M  V30 BEGIN BOND
M  V30 1 1 1 2
M  V30 2 1 2 3
M  V30 3 1 3 4
M  V30 4 1 4 5
M  V30 5 1 5 6
M  V30 6 1 6 7
M  V30 7 1 7 8
M  V30 8 1 8 9
M  V30 9 2 9 10
M  V30 10 1 9 11
M  V30 11 2 11 12
M  V30 12 1 12 13
M  V30 13 1 13 14
M  V30 14 2 13 15
M  V30 15 1 15 16
M  V30 16 2 16 17
M  V30 17 1 17 18
M  V30 18 1 18 19
M  V30 19 2 19 20
M  V30 20 1 19 21
M  V30 21 1 21 22
M  V30 22 2 22 23
M  V30 23 1 5 24
M  V30 24 1 24 25
M  V30 25 1 25 2
M  V30 26 1 23 8
M  V30 27 1 17 11
M  V30 28 1 23 18
M  V30 29 1 1 26
M  V30 30 1 1 27
M  V30 31 1 1 28
M  V30 32 1 3 29
M  V30 33 1 3 30
M  V30 34 1 4 31
M  V30 35 1 4 32
M  V30 36 1 6 33
M  V30 37 1 6 34
M  V30 38 1 7 35
M  V30 39 1 7 36
M  V30 40 1 12 37
M  V30 41 1 15 38
M  V30 42 1 16 39
M  V30 43 1 21 40
M  V30 44 1 24 41
M  V30 45 1 24 42
M  V30 46 1 25 43
M  V30 47 1 25 44
M  V30 END BOND
M  V30 END CTAB
M  END
>  <Dataset>  (814) 
ChEMBL_Kinases

>  <Ligand_Instance>  (814) 
nan

>  <PDB_ID>  (814) 
nan

>  <Standardized_SMILES>  (814) 
CN1CCN(CCn2c(=O)c3cc(F)ccc3n3c(=S)[nH]nc23)CC1

>  <Name>  (814) 
nan

>  <Pocket>  (814) 
nan

>  <ATP_Site>  (814) 
nan

>  <Peripheral>  (814) 
nan

>  <Num_H_Atoms_ProtBoundConf>  (814) 
nan

>  <Num_Resolved_Atoms>  (814) 
nan

>  <Num_Not_Resolved_Atoms>  (814) 
nan

$$$$
CHEMBL443643
     RDKit          3D

  0  0  0  0  0  0  0  0  0  0999 V3000
M  V30 BEGIN CTAB
M  V30 COUNTS 53 54 0 0 0
M  V30 BEGIN ATOM
M  V30 1 C 0.346657 -2.959371 2.901577 0
M  V30 2 C 1.239383 -1.932540 2.239771 0
M  V30 3 C 1.599970 -0.892770 3.273813 0
M  V30 4 C 2.483948 0.187235 2.708637 0
M  V30 5 C 3.784653 -0.295847 2.155924 0
M  V30 6 C 4.631615 -0.996260 3.207381 0
M  V30 7 C 5.913973 -1.418682 2.477998 0
M  V30 8 C 1.832990 1.075206 1.741712 0
M  V30 9 O 1.792742 2.313878 1.891425 0
M  V30 10 O 1.207663 0.958706 0.641666 0
M  V30 11 C 0.563282 0.840776 -0.491494 0
M  V30 12 C -0.887993 1.284003 -0.608628 0
M  V30 13 C -1.090690 2.765034 -0.457357 0
M  V30 14 O -0.791614 3.292274 0.763223 0
M  V30 15 C -1.724726 0.437492 0.290526 0
M  V30 16 C -2.556394 -0.394420 -0.647577 0
M  V30 17 C -3.189951 -1.566578 -0.550256 0
M  V30 18 C -3.955729 -2.227372 -1.581401 0
M  V30 19 C -3.616273 -2.365135 -2.911865 0
M  V30 20 C -4.447883 -3.009636 -3.819092 0
M  V30 21 N -5.625874 -3.529232 -3.431592 0
M  V30 22 C -6.014730 -3.424435 -2.126330 0
M  V30 23 C -5.170258 -2.773170 -1.220409 0
M  V30 24 C -2.600870 0.417451 -1.883271 0
M  V30 25 O -3.663363 0.449180 -2.599668 0
M  V30 26 O -1.329471 1.013368 -1.970237 0
M  V30 27 H 0.246487 -3.880557 2.303283 0
M  V30 28 H 0.656754 -3.129013 3.951462 0
M  V30 29 H -0.681673 -2.500114 2.953617 0
M  V30 30 H 0.710082 -1.536460 1.365712 0
M  V30 31 H 2.140488 -2.454392 1.850122 0
M  V30 32 H 2.067207 -1.357167 4.143840 0
M  V30 33 H 0.667007 -0.395391 3.600028 0
M  V30 34 H 2.751158 0.836562 3.603315 0
M  V30 35 H 4.374041 0.630492 1.896412 0
M  V30 36 H 3.711378 -0.879431 1.218496 0
M  V30 37 H 4.128362 -1.829215 3.697428 0
M  V30 38 H 4.929350 -0.262878 3.990989 0
M  V30 39 H 5.701584 -1.774885 1.457428 0
M  V30 40 H 6.559221 -0.519908 2.373183 0
M  V30 41 H 6.445340 -2.206818 3.049458 0
M  V30 42 H 0.586658 -0.227328 -0.928760 0
M  V30 43 H 1.119397 1.392763 -1.349557 0
M  V30 44 H -0.497615 3.255586 -1.265812 0
M  V30 45 H -2.165140 2.957070 -0.737666 0
M  V30 46 H -0.631263 4.259888 0.674237 0
M  V30 47 H -2.400184 1.155884 0.846732 0
M  V30 48 H -1.195250 -0.147555 1.038529 0
M  V30 49 H -3.085321 -2.038197 0.442537 0
M  V30 50 H -2.670617 -1.963936 -3.235540 0
M  V30 51 H -4.142125 -3.093464 -4.851023 0
M  V30 52 H -6.962480 -3.849771 -1.831391 0
M  V30 53 H -5.507841 -2.704906 -0.183933 0
M  V30 END ATOM
M  V30 BEGIN BOND
M  V30 1 1 1 2
M  V30 2 1 2 3
M  V30 3 1 3 4
M  V30 4 1 4 5
M  V30 5 1 5 6
M  V30 6 1 6 7
M  V30 7 1 4 8
M  V30 8 2 8 9
M  V30 9 1 8 10
M  V30 10 1 10 11
M  V30 11 1 11 12
M  V30 12 1 12 13
M  V30 13 1 13 14
M  V30 14 1 12 15
M  V30 15 1 15 16
M  V30 16 2 16 17
M  V30 17 1 17 18
M  V30 18 2 18 19
M  V30 19 1 19 20
M  V30 20 2 20 21
M  V30 21 1 21 22
M  V30 22 2 22 23
M  V30 23 1 16 24
M  V30 24 2 24 25
M  V30 25 1 24 26
M  V30 26 1 26 12
M  V30 27 1 23 18
M  V30 28 1 1 27
M  V30 29 1 1 28
M  V30 30 1 1 29
M  V30 31 1 2 30
M  V30 32 1 2 31
M  V30 33 1 3 32
M  V30 34 1 3 33
M  V30 35 1 4 34
M  V30 36 1 5 35
M  V30 37 1 5 36
M  V30 38 1 6 37
M  V30 39 1 6 38
M  V30 40 1 7 39
M  V30 41 1 7 40
M  V30 42 1 7 41
M  V30 43 1 11 42
M  V30 44 1 11 43
M  V30 45 1 13 44
M  V30 46 1 13 45
M  V30 47 1 14 46
M  V30 48 1 15 47
M  V30 49 1 15 48
M  V30 50 1 17 49
M  V30 51 1 19 50
M  V30 52 1 20 51
M  V30 53 1 22 52
M  V30 54 1 23 53
M  V30 END BOND
M  V30 END CTAB
M  END
>  <Dataset>  (815) 
ChEMBL_Kinases

>  <Ligand_Instance>  (815) 
nan

>  <PDB_ID>  (815) 
nan

>  <Standardized_SMILES>  (815) 
CCCC(CCC)C(=O)OCC1(CO)C/C(=C/c2ccncc2)C(=O)O1

>  <Name>  (815) 
nan

>  <Pocket>  (815) 
nan

>  <ATP_Site>  (815) 
nan

>  <Peripheral>  (815) 
nan

>  <Num_H_Atoms_ProtBoundConf>  (815) 
nan

>  <Num_Resolved_Atoms>  (815) 
nan

>  <Num_Not_Resolved_Atoms>  (815) 
nan

$$$$
CHEMBL4753188
     RDKit          3D

  0  0  0  0  0  0  0  0  0  0999 V3000
M  V30 BEGIN CTAB
M  V30 COUNTS 50 54 0 0 0
M  V30 BEGIN ATOM
M  V30 1 N 0.486933 -5.444474 1.321699 0
M  V30 2 C 0.600616 -4.065803 1.046048 0
M  V30 3 N 1.674931 -3.427521 1.494770 0
M  V30 4 C 1.844370 -2.093696 1.261330 0
M  V30 5 C 0.925614 -1.312654 0.550172 0
M  V30 6 C 1.190770 0.090713 0.337706 0
M  V30 7 C 1.196999 1.000995 -0.682395 0
M  V30 8 N 1.543481 2.214487 -0.184838 0
M  V30 9 N 1.760259 2.120096 1.113717 0
M  V30 10 C 2.147783 3.262054 1.918812 0
M  V30 11 C 2.947524 4.262390 1.142690 0
M  V30 12 C 3.213324 5.463468 1.992459 0
M  V30 13 N 3.628020 5.157665 3.338134 0
M  V30 14 C 3.985028 3.760946 3.494175 0
M  V30 15 C 2.796731 2.859713 3.209547 0
M  V30 16 C 1.553865 0.835421 1.467602 0
M  V30 17 C -0.169577 -2.024275 0.108228 0
M  V30 18 C -1.124590 -1.337135 -0.594937 0
M  V30 19 C -2.236799 -2.016475 -1.050774 0
M  V30 20 C -2.411417 -3.363746 -0.817680 0
M  V30 21 C -3.581609 -4.090516 -1.294565 0
M  V30 22 C -4.623718 -3.543638 -2.012546 0
M  V30 23 C -5.702219 -4.304188 -2.429905 0
M  V30 24 C -5.782917 -5.654475 -2.143576 0
M  V30 25 C -4.742404 -6.214254 -1.423310 0
M  V30 26 F -4.824925 -7.544511 -1.142912 0
M  V30 27 C -3.695538 -5.438749 -1.027344 0
M  V30 28 N -1.451339 -4.001437 -0.123357 0
M  V30 29 C -0.355346 -3.371666 0.335683 0
M  V30 30 H 0.300181 -5.557368 2.361239 0
M  V30 31 H 0.545771 -6.292880 0.753353 0
M  V30 32 H 2.732311 -1.606571 1.642232 0
M  V30 33 H 0.949834 0.664899 -1.674001 0
M  V30 34 H 1.175351 3.760758 2.194512 0
M  V30 35 H 2.299563 4.617936 0.296066 0
M  V30 36 H 3.837621 3.841397 0.668711 0
M  V30 37 H 2.293834 6.103155 1.996525 0
M  V30 38 H 4.005206 6.100591 1.517711 0
M  V30 39 H 4.437734 5.720357 3.623939 0
M  V30 40 H 4.805923 3.564966 2.796613 0
M  V30 41 H 4.313743 3.603553 4.535935 0
M  V30 42 H 2.111780 2.922590 4.075066 0
M  V30 43 H 3.187647 1.830439 3.204797 0
M  V30 44 H 1.690047 0.575824 2.514618 0
M  V30 45 H -1.023693 -0.294129 -0.789706 0
M  V30 46 H -2.964995 -1.444801 -1.598813 0
M  V30 47 H -4.579902 -2.495261 -2.245381 0
M  V30 48 H -6.481630 -3.820567 -2.985218 0
M  V30 49 H -6.613857 -6.260474 -2.460220 0
M  V30 50 H -2.914798 -5.954584 -0.463345 0
M  V30 END ATOM
M  V30 BEGIN BOND
M  V30 1 1 1 2
M  V30 2 2 2 3
M  V30 3 1 3 4
M  V30 4 2 4 5
M  V30 5 1 5 6
M  V30 6 1 6 7
M  V30 7 2 7 8
M  V30 8 1 8 9
M  V30 9 1 9 10
M  V30 10 1 10 11
M  V30 11 1 11 12
M  V30 12 1 12 13
M  V30 13 1 13 14
M  V30 14 1 14 15
M  V30 15 1 9 16
M  V30 16 1 5 17
M  V30 17 2 17 18
M  V30 18 1 18 19
M  V30 19 2 19 20
M  V30 20 1 20 21
M  V30 21 2 21 22
M  V30 22 1 22 23
M  V30 23 2 23 24
M  V30 24 1 24 25
M  V30 25 1 25 26
M  V30 26 2 25 27
M  V30 27 1 20 28
M  V30 28 2 28 29
M  V30 29 1 29 2
M  V30 30 2 16 6
M  V30 31 1 29 17
M  V30 32 1 15 10
M  V30 33 1 27 21
M  V30 34 1 1 30
M  V30 35 1 1 31
M  V30 36 1 4 32
M  V30 37 1 7 33
M  V30 38 1 10 34
M  V30 39 1 11 35
M  V30 40 1 11 36
M  V30 41 1 12 37
M  V30 42 1 12 38
M  V30 43 1 13 39
M  V30 44 1 14 40
M  V30 45 1 14 41
M  V30 46 1 15 42
M  V30 47 1 15 43
M  V30 48 1 16 44
M  V30 49 1 18 45
M  V30 50 1 19 46
M  V30 51 1 22 47
M  V30 52 1 23 48
M  V30 53 1 24 49
M  V30 54 1 27 50
M  V30 END BOND
M  V30 END CTAB
M  END
>  <Dataset>  (816) 
ChEMBL_Kinases

>  <Ligand_Instance>  (816) 
nan

>  <PDB_ID>  (816) 
nan

>  <Standardized_SMILES>  (816) 
Nc1ncc(-c2cnn(C3CCNCC3)c2)c2ccc(-c3cccc(F)c3)nc12

>  <Name>  (816) 
nan

>  <Pocket>  (816) 
nan

>  <ATP_Site>  (816) 
nan

>  <Peripheral>  (816) 
nan

>  <Num_H_Atoms_ProtBoundConf>  (816) 
nan

>  <Num_Resolved_Atoms>  (816) 
nan

>  <Num_Not_Resolved_Atoms>  (816) 
nan

$$$$
CHEMBL4753078
     RDKit          3D

  0  0  0  0  0  0  0  0  0  0999 V3000
M  V30 BEGIN CTAB
M  V30 COUNTS 38 39 0 0 0
M  V30 BEGIN ATOM
M  V30 1 C 1.936441 -6.071859 -2.201301 0
M  V30 2 C 2.178594 -5.089445 -3.309950 0
M  V30 3 O 1.354589 -3.950162 -3.239303 0
M  V30 4 C 1.315739 -3.055016 -2.196594 0
M  V30 5 C 2.086156 -3.126809 -1.031981 0
M  V30 6 C 1.967922 -2.176909 -0.051431 0
M  V30 7 C 1.112116 -1.103889 -0.118937 0
M  V30 8 N 1.072305 -0.183816 0.952208 0
M  V30 9 C 0.290774 0.986081 1.098718 0
M  V30 10 O -0.495200 1.296308 0.174919 0
M  V30 11 C 0.390959 1.829298 2.307731 0
M  V30 12 C -0.563515 2.971181 2.247068 0
M  V30 13 S -0.416508 4.024808 3.746919 0
M  V30 14 C -1.343720 3.130476 5.024276 0
M  V30 15 C -2.822885 3.306867 4.644540 0
M  V30 16 N -2.920880 3.114808 3.184941 0
M  V30 17 C -2.009736 2.545729 2.241803 0
M  V30 18 O -2.668376 1.715622 1.519372 0
M  V30 19 C 0.371629 -1.066858 -1.277456 0
M  V30 20 C 0.447053 -1.989210 -2.293286 0
M  V30 21 H 1.197086 -5.701850 -1.433966 0
M  V30 22 H 2.875422 -6.295444 -1.633013 0
M  V30 23 H 1.619757 -7.024935 -2.629818 0
M  V30 24 H 3.257358 -4.773263 -3.264315 0
M  V30 25 H 1.975949 -5.568125 -4.285021 0
M  V30 26 H 2.761235 -3.949364 -0.950472 0
M  V30 27 H 2.613091 -2.328201 0.811389 0
M  V30 28 H 1.701354 -0.368317 1.769957 0
M  V30 29 H 0.314046 1.236967 3.243658 0
M  V30 30 H 1.414684 2.266665 2.336025 0
M  V30 31 H -0.350857 3.612801 1.385770 0
M  V30 32 H -1.228699 3.616898 6.013400 0
M  V30 33 H -1.104077 2.052599 5.074179 0
M  V30 34 H -3.045634 4.376306 4.820522 0
M  V30 35 H -3.447107 2.591656 5.176387 0
M  V30 36 H -3.859218 3.484113 2.834588 0
M  V30 37 H -0.325792 -0.267430 -1.426013 0
M  V30 38 H -0.177336 -1.889417 -3.183334 0
M  V30 END ATOM
M  V30 BEGIN BOND
M  V30 1 1 1 2
M  V30 2 1 2 3
M  V30 3 1 3 4
M  V30 4 2 4 5
M  V30 5 1 5 6
M  V30 6 2 6 7
M  V30 7 1 7 8
M  V30 8 1 8 9
M  V30 9 2 9 10
M  V30 10 1 9 11
M  V30 11 1 11 12
M  V30 12 1 12 13
M  V30 13 1 13 14
M  V30 14 1 14 15
M  V30 15 1 15 16
M  V30 16 1 16 17
M  V30 17 2 17 18
M  V30 18 1 7 19
M  V30 19 2 19 20
M  V30 20 1 20 4
M  V30 21 1 17 12
M  V30 22 1 1 21
M  V30 23 1 1 22
M  V30 24 1 1 23
M  V30 25 1 2 24
M  V30 26 1 2 25
M  V30 27 1 5 26
M  V30 28 1 6 27
M  V30 29 1 8 28
M  V30 30 1 11 29
M  V30 31 1 11 30
M  V30 32 1 12 31
M  V30 33 1 14 32
M  V30 34 1 14 33
M  V30 35 1 15 34
M  V30 36 1 15 35
M  V30 37 1 16 36
M  V30 38 1 19 37
M  V30 39 1 20 38
M  V30 END BOND
M  V30 END CTAB
M  END
>  <Dataset>  (817) 
ChEMBL_Kinases

>  <Ligand_Instance>  (817) 
nan

>  <PDB_ID>  (817) 
nan

>  <Standardized_SMILES>  (817) 
CCOc1ccc(NC(=O)CC2SCCNC2=O)cc1

>  <Name>  (817) 
nan

>  <Pocket>  (817) 
nan

>  <ATP_Site>  (817) 
nan

>  <Peripheral>  (817) 
nan

>  <Num_H_Atoms_ProtBoundConf>  (817) 
nan

>  <Num_Resolved_Atoms>  (817) 
nan

>  <Num_Not_Resolved_Atoms>  (817) 
nan

$$$$
CHEMBL4434717
     RDKit          3D

  0  0  0  0  0  0  0  0  0  0999 V3000
M  V30 BEGIN CTAB
M  V30 COUNTS 65 68 0 0 0
M  V30 BEGIN ATOM
M  V30 1 C 5.202764 -2.239701 6.528168 0
M  V30 2 O 4.507289 -1.116402 6.971857 0
M  V30 3 C 3.777608 -0.266299 6.156300 0
M  V30 4 C 3.629697 -0.402439 4.785458 0
M  V30 5 C 2.889123 0.470759 3.999301 0
M  V30 6 C 2.848379 0.164870 2.574858 0
M  V30 7 C 4.093322 -0.126689 2.003851 0
M  V30 8 N 4.182437 -0.428344 0.689439 0
M  V30 9 C 3.053231 -0.440314 -0.045202 0
M  V30 10 C 1.783586 -0.157604 0.472265 0
M  V30 11 C 0.633837 -0.209618 -0.425571 0
M  V30 12 C -0.410155 0.678206 -0.580235 0
M  V30 13 C -1.397192 0.404439 -1.500233 0
M  V30 14 C -1.445858 -0.709564 -2.310556 0
M  V30 15 N -2.468755 -0.967977 -3.237504 0
M  V30 16 C -3.636192 -0.132644 -3.398908 0
M  V30 17 C -4.821855 -1.072460 -3.561974 0 CFG=1
M  V30 18 C -6.126455 -0.281102 -3.604493 0
M  V30 19 N -4.689182 -1.971047 -4.653591 0
M  V30 20 C -5.241679 -3.278641 -4.350033 0
M  V30 21 C -3.358724 -2.148316 -5.155218 0 CFG=1
M  V30 22 C -2.965619 -1.155753 -6.201037 0
M  V30 23 C -2.310333 -2.148069 -4.067380 0
M  V30 24 C -0.380555 -1.561741 -2.115741 0
M  V30 25 C 0.648759 -1.366410 -1.219110 0
M  V30 26 C 1.719789 0.145754 1.808076 0
M  V30 27 C 0.422327 0.447982 2.413551 0
M  V30 28 C 2.289005 1.513679 4.670161 0
M  V30 29 C 2.378017 1.726427 6.006319 0
M  V30 30 F 1.749824 2.785148 6.572753 0
M  V30 31 C 3.130660 0.815423 6.714945 0
M  V30 32 C 3.271688 0.979488 8.154789 0
M  V30 33 N 2.730991 1.975049 9.005330 0
M  V30 34 O 3.935082 0.214074 8.896961 0
M  V30 35 H 4.831292 -2.677767 5.582835 0
M  V30 36 H 5.203221 -3.068675 7.292928 0
M  V30 37 H 6.280187 -1.976451 6.413704 0
M  V30 38 H 4.131587 -1.247616 4.329429 0
M  V30 39 H 5.019111 -0.120382 2.594309 0
M  V30 40 H 3.134583 -0.686502 -1.114323 0
M  V30 41 H -0.342625 1.526212 0.056603 0
M  V30 42 H -2.159013 1.160258 -1.540784 0
M  V30 43 H -3.796943 0.498757 -2.499249 0
M  V30 44 H -3.566976 0.516825 -4.295866 0
M  V30 45 H -4.870795 -1.658545 -2.621194 0
M  V30 46 H -6.978468 -0.944120 -3.327034 0
M  V30 47 H -6.040081 0.573143 -2.905285 0
M  V30 48 H -6.334596 0.110713 -4.610985 0
M  V30 49 H -4.384494 -3.950860 -4.106265 0
M  V30 50 H -5.840798 -3.671478 -5.197915 0
M  V30 51 H -5.832444 -3.167785 -3.416010 0
M  V30 52 H -3.314790 -3.151049 -5.629017 0
M  V30 53 H -3.769820 -0.458503 -6.488774 0
M  V30 54 H -2.089686 -0.531585 -5.912283 0
M  V30 55 H -2.647529 -1.630161 -7.173190 0
M  V30 56 H -1.294588 -2.073063 -4.504839 0
M  V30 57 H -2.322383 -3.080285 -3.460422 0
M  V30 58 H -0.367930 -2.468606 -2.738045 0
M  V30 59 H 1.423725 -2.135674 -1.180723 0
M  V30 60 H 0.474164 0.199759 3.504085 0
M  V30 61 H -0.427200 -0.069972 1.919126 0
M  V30 62 H 0.152055 1.522981 2.386541 0
M  V30 63 H 1.718789 2.187605 4.047472 0
M  V30 64 H 1.994315 2.583738 9.381696 0
M  V30 65 H 1.712206 2.141120 8.820667 0
M  V30 END ATOM
M  V30 BEGIN BOND
M  V30 1 1 1 2
M  V30 2 1 2 3
M  V30 3 2 3 4
M  V30 4 1 4 5
M  V30 5 1 5 6
M  V30 6 2 6 7
M  V30 7 1 7 8
M  V30 8 2 8 9
M  V30 9 1 9 10
M  V30 10 1 10 11
M  V30 11 2 11 12
M  V30 12 1 12 13
M  V30 13 2 13 14
M  V30 14 1 14 15
M  V30 15 1 15 16
M  V30 16 1 16 17
M  V30 17 1 17 18
M  V30 18 1 17 19
M  V30 19 1 19 20
M  V30 20 1 19 21
M  V30 21 1 21 22
M  V30 22 1 21 23
M  V30 23 1 14 24
M  V30 24 2 24 25
M  V30 25 2 10 26
M  V30 26 1 26 27
M  V30 27 2 5 28
M  V30 28 1 28 29
M  V30 29 1 29 30
M  V30 30 2 29 31
M  V30 31 1 31 32
M  V30 32 1 32 33
M  V30 33 2 32 34
M  V30 34 1 31 3
M  V30 35 1 26 6
M  V30 36 1 25 11
M  V30 37 1 23 15
M  V30 38 1 1 35
M  V30 39 1 1 36
M  V30 40 1 1 37
M  V30 41 1 4 38
M  V30 42 1 7 39
M  V30 43 1 9 40
M  V30 44 1 12 41
M  V30 45 1 13 42
M  V30 46 1 16 43
M  V30 47 1 16 44
M  V30 48 1 17 45 CFG=1
M  V30 49 1 18 46
M  V30 50 1 18 47
M  V30 51 1 18 48
M  V30 52 1 20 49
M  V30 53 1 20 50
M  V30 54 1 20 51
M  V30 55 1 21 52 CFG=3
M  V30 56 1 22 53
M  V30 57 1 22 54
M  V30 58 1 22 55
M  V30 59 1 23 56
M  V30 60 1 23 57
M  V30 61 1 24 58
M  V30 62 1 25 59
M  V30 63 1 27 60
M  V30 64 1 27 61
M  V30 65 1 27 62
M  V30 66 1 28 63
M  V30 67 1 33 64
M  V30 68 1 33 65
M  V30 END BOND
M  V30 END CTAB
M  END
>  <Dataset>  (818) 
ChEMBL_Kinases

>  <Ligand_Instance>  (818) 
nan

>  <PDB_ID>  (818) 
nan

>  <Standardized_SMILES>  (818) 
COc1cc(-c2cncc(-c3ccc(N4C[C@@H](C)N(C)[C@@H](C)C4)cc3)c2C)cc(F)c1C(N)=O

>  <Name>  (818) 
nan

>  <Pocket>  (818) 
nan

>  <ATP_Site>  (818) 
nan

>  <Peripheral>  (818) 
nan

>  <Num_H_Atoms_ProtBoundConf>  (818) 
nan

>  <Num_Resolved_Atoms>  (818) 
nan

>  <Num_Not_Resolved_Atoms>  (818) 
nan

$$$$
CHEMBL4753751
     RDKit          3D

  0  0  0  0  0  0  0  0  0  0999 V3000
M  V30 BEGIN CTAB
M  V30 COUNTS 43 46 0 0 0
M  V30 BEGIN ATOM
M  V30 1 C 0.836467 -6.355339 1.652525 0
M  V30 2 O 1.467016 -5.217028 2.205682 0
M  V30 3 C 1.868981 -4.127957 1.471109 0
M  V30 4 C 2.470384 -3.112988 2.210294 0
M  V30 5 C 2.911356 -1.969893 1.559005 0
M  V30 6 C 2.749813 -1.853000 0.195146 0
M  V30 7 N 3.246333 -0.630170 -0.345927 0
M  V30 8 N 4.449056 -0.282718 -0.738903 0
M  V30 9 N 4.465482 0.961303 -1.179227 0
M  V30 10 C 3.231367 1.480909 -1.083494 0
M  V30 11 C 2.605062 2.678377 -1.362641 0
M  V30 12 N 1.277816 2.872860 -1.131808 0
M  V30 13 C 0.529819 1.857765 -0.606975 0
M  V30 14 N -0.868394 2.011035 -0.345688 0
M  V30 15 C -1.610402 0.898933 0.211830 0 CFG=2
M  V30 16 C -3.043879 1.370267 0.369393 0
M  V30 17 C -2.920806 2.217641 1.617785 0
M  V30 18 C -2.258000 1.190416 2.541733 0 CFG=2
M  V30 19 N -1.666844 1.778231 3.700751 0
M  V30 20 C -1.240102 0.535184 1.607574 0
M  V30 21 N 1.149085 0.682523 -0.334043 0
M  V30 22 C 2.456968 0.465347 -0.552547 0
M  V30 23 C 2.150554 -2.869589 -0.525733 0
M  V30 24 C 1.708321 -4.007985 0.103586 0
M  V30 25 H 0.230831 -6.876529 2.433958 0
M  V30 26 H 0.102254 -6.019332 0.882880 0
M  V30 27 H 1.574379 -7.061565 1.221572 0
M  V30 28 H 2.606974 -3.186014 3.286276 0
M  V30 29 H 3.378885 -1.196481 2.180351 0
M  V30 30 H 3.205671 3.471239 -1.776262 0
M  V30 31 H -1.291659 2.942421 -0.577195 0
M  V30 32 H -1.545528 0.032747 -0.477554 0
M  V30 33 H -3.675671 0.491649 0.609579 0
M  V30 34 H -3.403028 1.955556 -0.499143 0
M  V30 35 H -2.176566 3.016912 1.433649 0
M  V30 36 H -3.881867 2.580051 2.009772 0
M  V30 37 H -3.041577 0.428042 2.806198 0
M  V30 38 H -2.165962 2.642423 4.022214 0
M  V30 39 H -1.700457 1.118048 4.521480 0
M  V30 40 H -0.204608 0.804409 1.890186 0
M  V30 41 H -1.297364 -0.571980 1.707630 0
M  V30 42 H 2.053219 -2.718087 -1.590066 0
M  V30 43 H 1.241583 -4.807016 -0.436161 0
M  V30 END ATOM
M  V30 BEGIN BOND
M  V30 1 1 1 2
M  V30 2 1 2 3
M  V30 3 2 3 4
M  V30 4 1 4 5
M  V30 5 2 5 6
M  V30 6 1 6 7
M  V30 7 1 7 8
M  V30 8 2 8 9
M  V30 9 1 9 10
M  V30 10 2 10 11
M  V30 11 1 11 12
M  V30 12 2 12 13
M  V30 13 1 13 14
M  V30 14 1 14 15
M  V30 15 1 15 16
M  V30 16 1 16 17
M  V30 17 1 17 18
M  V30 18 1 18 19
M  V30 19 1 18 20
M  V30 20 1 13 21
M  V30 21 2 21 22
M  V30 22 1 6 23
M  V30 23 2 23 24
M  V30 24 1 24 3
M  V30 25 1 22 7
M  V30 26 1 22 10
M  V30 27 1 20 15
M  V30 28 1 1 25
M  V30 29 1 1 26
M  V30 30 1 1 27
M  V30 31 1 4 28
M  V30 32 1 5 29
M  V30 33 1 11 30
M  V30 34 1 14 31
M  V30 35 1 15 32 CFG=3
M  V30 36 1 16 33
M  V30 37 1 16 34
M  V30 38 1 17 35
M  V30 39 1 17 36
M  V30 40 1 18 37 CFG=1
M  V30 41 1 19 38
M  V30 42 1 19 39
M  V30 43 1 20 40
M  V30 44 1 20 41
M  V30 45 1 23 42
M  V30 46 1 24 43
M  V30 END BOND
M  V30 END CTAB
M  END
>  <Dataset>  (819) 
ChEMBL_Kinases

>  <Ligand_Instance>  (819) 
nan

>  <PDB_ID>  (819) 
nan

>  <Standardized_SMILES>  (819) 
COc1ccc(-n2nnc3cnc(N[C@@H]4CC[C@H](N)C4)nc32)cc1

>  <Name>  (819) 
nan

>  <Pocket>  (819) 
nan

>  <ATP_Site>  (819) 
nan

>  <Peripheral>  (819) 
nan

>  <Num_H_Atoms_ProtBoundConf>  (819) 
nan

>  <Num_Resolved_Atoms>  (819) 
nan

>  <Num_Not_Resolved_Atoms>  (819) 
nan

$$$$
CHEMBL4434694
     RDKit          3D

  0  0  0  0  0  0  0  0  0  0999 V3000
M  V30 BEGIN CTAB
M  V30 COUNTS 56 59 0 0 0
M  V30 BEGIN ATOM
M  V30 1 C -0.529758 -6.628444 1.445578 0
M  V30 2 O 0.028709 -6.886006 0.188850 0
M  V30 3 C 0.768399 -5.993809 -0.562636 0
M  V30 4 C 0.976653 -4.738761 -0.031452 0
M  V30 5 C 1.705009 -3.795842 -0.724108 0
M  V30 6 C 2.052927 -2.423719 -0.383962 0
M  V30 7 C 3.381358 -2.031876 -0.568011 0
M  V30 8 N 3.748045 -0.769713 -0.264619 0
M  V30 9 C 2.865900 0.119930 0.210560 0
M  V30 10 C 1.525062 -0.228551 0.410765 0
M  V30 11 C 0.657891 0.819174 0.931917 0
M  V30 12 C 0.800743 2.052358 0.280585 0
M  V30 13 C 0.084576 3.184810 0.607357 0
M  V30 14 C -0.834942 3.124862 1.635165 0
M  V30 15 N -1.631552 4.223961 2.061111 0
M  V30 16 C -2.608347 4.257276 3.133496 0
M  V30 17 C -3.966147 4.182465 2.450454 0
M  V30 18 N -3.948307 5.154138 1.386535 0
M  V30 19 C -2.915800 6.151898 1.523285 0
M  V30 20 C -1.523070 5.521821 1.395975 0
M  V30 21 C -0.986720 1.917147 2.286140 0
M  V30 22 C -0.267286 0.788254 1.954433 0
M  V30 23 C 1.139009 -1.515961 0.104032 0
M  V30 24 C -0.273126 -1.890903 0.306013 0
M  V30 25 C 2.205939 -4.189176 -1.971051 0
M  V30 26 C 2.005392 -5.441230 -2.514637 0
M  V30 27 Cl 2.644919 -5.904036 -4.077134 0
M  V30 28 C 1.271650 -6.359052 -1.793410 0
M  V30 29 C 1.042952 -7.684692 -2.337569 0
M  V30 30 N 1.542694 -8.081758 -3.587023 0
M  V30 31 O 0.382591 -8.555713 -1.719708 0
M  V30 32 H 0.082905 -5.960804 2.080886 0
M  V30 33 H -1.572525 -6.258330 1.396362 0
M  V30 34 H -0.590117 -7.611935 1.989937 0
M  V30 35 H 0.623571 -4.370754 0.920677 0
M  V30 36 H 4.096309 -2.759045 -0.954943 0
M  V30 37 H 3.295209 1.075497 0.405529 0
M  V30 38 H 1.508649 2.194903 -0.549436 0
M  V30 39 H 0.220784 4.116344 0.084842 0
M  V30 40 H -2.558174 5.211840 3.707432 0
M  V30 41 H -2.479773 3.424063 3.866963 0
M  V30 42 H -4.811756 4.324850 3.162844 0
M  V30 43 H -4.028481 3.161939 1.973792 0
M  V30 44 H -4.856659 5.663763 1.425458 0
M  V30 45 H -3.080273 6.871336 0.680550 0
M  V30 46 H -2.986023 6.757660 2.449465 0
M  V30 47 H -0.842595 6.184516 1.969613 0
M  V30 48 H -1.295987 5.452150 0.330660 0
M  V30 49 H -1.664720 1.722197 3.104507 0
M  V30 50 H -0.340788 -0.179175 2.427041 0
M  V30 51 H -0.435168 -2.278543 1.313462 0
M  V30 52 H -0.483818 -2.711342 -0.435685 0
M  V30 53 H -0.978818 -1.086032 0.022991 0
M  V30 54 H 2.802227 -3.528398 -2.620550 0
M  V30 55 H 2.412286 -8.630001 -3.823094 0
M  V30 56 H 1.241880 -7.971418 -4.583390 0
M  V30 END ATOM
M  V30 BEGIN BOND
M  V30 1 1 1 2
M  V30 2 1 2 3
M  V30 3 2 3 4
M  V30 4 1 4 5
M  V30 5 1 5 6
M  V30 6 2 6 7
M  V30 7 1 7 8
M  V30 8 2 8 9
M  V30 9 1 9 10
M  V30 10 1 10 11
M  V30 11 2 11 12
M  V30 12 1 12 13
M  V30 13 2 13 14
M  V30 14 1 14 15
M  V30 15 1 15 16
M  V30 16 1 16 17
M  V30 17 1 17 18
M  V30 18 1 18 19
M  V30 19 1 19 20
M  V30 20 1 14 21
M  V30 21 2 21 22
M  V30 22 2 10 23
M  V30 23 1 23 24
M  V30 24 2 5 25
M  V30 25 1 25 26
M  V30 26 1 26 27
M  V30 27 2 26 28
M  V30 28 1 28 29
M  V30 29 1 29 30
M  V30 30 2 29 31
M  V30 31 1 28 3
M  V30 32 1 23 6
M  V30 33 1 22 11
M  V30 34 1 20 15
M  V30 35 1 1 32
M  V30 36 1 1 33
M  V30 37 1 1 34
M  V30 38 1 4 35
M  V30 39 1 7 36
M  V30 40 1 9 37
M  V30 41 1 12 38
M  V30 42 1 13 39
M  V30 43 1 16 40
M  V30 44 1 16 41
M  V30 45 1 17 42
M  V30 46 1 17 43
M  V30 47 1 18 44
M  V30 48 1 19 45
M  V30 49 1 19 46
M  V30 50 1 20 47
M  V30 51 1 20 48
M  V30 52 1 21 49
M  V30 53 1 22 50
M  V30 54 1 24 51
M  V30 55 1 24 52
M  V30 56 1 24 53
M  V30 57 1 25 54
M  V30 58 1 30 55
M  V30 59 1 30 56
M  V30 END BOND
M  V30 END CTAB
M  END
>  <Dataset>  (820) 
ChEMBL_Kinases

>  <Ligand_Instance>  (820) 
nan

>  <PDB_ID>  (820) 
nan

>  <Standardized_SMILES>  (820) 
COc1cc(-c2cncc(-c3ccc(N4CCNCC4)cc3)c2C)cc(Cl)c1C(N)=O

>  <Name>  (820) 
nan

>  <Pocket>  (820) 
nan

>  <ATP_Site>  (820) 
nan

>  <Peripheral>  (820) 
nan

>  <Num_H_Atoms_ProtBoundConf>  (820) 
nan

>  <Num_Resolved_Atoms>  (820) 
nan

>  <Num_Not_Resolved_Atoms>  (820) 
nan

$$$$
CHEMBL475376
     RDKit          3D

  0  0  0  0  0  0  0  0  0  0999 V3000
M  V30 BEGIN CTAB
M  V30 COUNTS 49 52 0 0 0
M  V30 BEGIN ATOM
M  V30 1 C 2.211451 -4.116981 2.499875 0
M  V30 2 O 2.535822 -2.997419 1.685185 0
M  V30 3 C 3.353489 -1.988317 2.219370 0
M  V30 4 C 3.833918 -2.078341 3.508584 0
M  V30 5 C 4.628465 -1.106572 4.040580 0
M  V30 6 C 4.943439 -0.009562 3.235104 0
M  V30 7 C 4.445173 0.045371 1.952556 0
M  V30 8 C 3.639664 -0.924594 1.392024 0
M  V30 9 C 3.151487 -0.793894 -0.000158 0
M  V30 10 N 1.743304 -0.440735 -0.086419 0
M  V30 11 C 1.256154 0.764742 0.491252 0
M  V30 12 N 2.085568 1.592582 1.127900 0
M  V30 13 C 1.680340 2.741410 1.692412 0
M  V30 14 N 0.402461 3.152387 1.662079 0
M  V30 15 C -0.475079 2.376439 1.044516 0
M  V30 16 C -1.796826 2.771508 0.993895 0
M  V30 17 C -2.706551 1.961075 0.348183 0
M  V30 18 C -2.312783 0.763287 -0.246297 0
M  V30 19 C -3.310769 -0.066615 -0.925933 0
M  V30 20 C -4.130285 0.705914 -1.757392 0
M  V30 21 C -5.132195 0.091254 -2.484572 0
M  V30 22 C -5.328051 -1.270229 -2.396317 0
M  V30 23 C -4.513227 -2.015882 -1.573822 0
M  V30 24 C -3.503494 -1.429762 -0.834763 0
M  V30 25 O -2.619423 -2.063648 0.025237 0
M  V30 26 C -2.775629 -3.474418 0.156167 0
M  V30 27 C -0.983176 0.405825 -0.172720 0
M  V30 28 C -0.053247 1.198367 0.466952 0
M  V30 29 H 3.146906 -4.529761 2.967171 0
M  V30 30 H 1.559186 -3.863230 3.340133 0
M  V30 31 H 1.787037 -4.899850 1.837913 0
M  V30 32 H 3.601488 -2.920444 4.150921 0
M  V30 33 H 5.018806 -1.150432 5.047701 0
M  V30 34 H 5.574845 0.746213 3.681528 0
M  V30 35 H 4.760930 0.930677 1.432885 0
M  V30 36 H 3.786630 -0.058625 -0.545458 0
M  V30 37 H 3.311039 -1.768688 -0.484926 0
M  V30 38 H 1.129777 -1.116498 -0.589472 0
M  V30 39 H 2.471409 3.316417 2.178359 0
M  V30 40 H -2.174948 3.682665 1.430244 0
M  V30 41 H -3.753103 2.251549 0.295266 0
M  V30 42 H -4.079065 1.776067 -1.913623 0
M  V30 43 H -5.803661 0.626600 -3.147865 0
M  V30 44 H -6.114109 -1.751655 -2.966275 0
M  V30 45 H -4.612912 -3.082854 -1.459868 0
M  V30 46 H -1.958141 -3.942519 0.738101 0
M  V30 47 H -2.851394 -3.924792 -0.857434 0
M  V30 48 H -3.733540 -3.708734 0.688691 0
M  V30 49 H -0.744280 -0.512746 -0.641867 0
M  V30 END ATOM
M  V30 BEGIN BOND
M  V30 1 1 1 2
M  V30 2 1 2 3
M  V30 3 2 3 4
M  V30 4 1 4 5
M  V30 5 2 5 6
M  V30 6 1 6 7
M  V30 7 2 7 8
M  V30 8 1 8 9
M  V30 9 1 9 10
M  V30 10 1 10 11
M  V30 11 2 11 12
M  V30 12 1 12 13
M  V30 13 2 13 14
M  V30 14 1 14 15
M  V30 15 2 15 16
M  V30 16 1 16 17
M  V30 17 2 17 18
M  V30 18 1 18 19
M  V30 19 2 19 20
M  V30 20 1 20 21
M  V30 21 2 21 22
M  V30 22 1 22 23
M  V30 23 2 23 24
M  V30 24 1 24 25
M  V30 25 1 25 26
M  V30 26 1 18 27
M  V30 27 2 27 28
M  V30 28 1 8 3
M  V30 29 1 28 11
M  V30 30 1 28 15
M  V30 31 1 24 19
M  V30 32 1 1 29
M  V30 33 1 1 30
M  V30 34 1 1 31
M  V30 35 1 4 32
M  V30 36 1 5 33
M  V30 37 1 6 34
M  V30 38 1 7 35
M  V30 39 1 9 36
M  V30 40 1 9 37
M  V30 41 1 10 38
M  V30 42 1 13 39
M  V30 43 1 16 40
M  V30 44 1 17 41
M  V30 45 1 20 42
M  V30 46 1 21 43
M  V30 47 1 22 44
M  V30 48 1 23 45
M  V30 49 1 26 46
M  V30 50 1 26 47
M  V30 51 1 26 48
M  V30 52 1 27 49
M  V30 END BOND
M  V30 END CTAB
M  END
>  <Dataset>  (821) 
ChEMBL_Kinases

>  <Ligand_Instance>  (821) 
nan

>  <PDB_ID>  (821) 
nan

>  <Standardized_SMILES>  (821) 
COc1ccccc1CNc1ncnc2ccc(-c3ccccc3OC)cc12

>  <Name>  (821) 
nan

>  <Pocket>  (821) 
nan

>  <ATP_Site>  (821) 
nan

>  <Peripheral>  (821) 
nan

>  <Num_H_Atoms_ProtBoundConf>  (821) 
nan

>  <Num_Resolved_Atoms>  (821) 
nan

>  <Num_Not_Resolved_Atoms>  (821) 
nan

$$$$
CHEMBL442956
     RDKit          3D

  0  0  0  0  0  0  0  0  0  0999 V3000
M  V30 BEGIN CTAB
M  V30 COUNTS 38 41 0 0 0
M  V30 BEGIN ATOM
M  V30 1 O -3.285259 0.624314 3.526068 0
M  V30 2 C -2.420824 -0.258884 3.424134 0
M  V30 3 O -2.398695 -1.207013 4.435370 0
M  V30 4 C -1.474984 -0.257678 2.252692 0
M  V30 5 C -0.705115 1.049104 2.257793 0
M  V30 6 C 0.273663 0.982954 1.169842 0
M  V30 7 C 0.822518 -0.237071 0.850569 0
M  V30 8 N 1.679922 -0.041389 -0.164827 0
M  V30 9 C 1.679283 1.265846 -0.485470 0
M  V30 10 C 2.380398 1.976282 -1.451094 0
M  V30 11 C 2.183443 3.355372 -1.567932 0
M  V30 12 C 1.291087 3.972666 -0.712967 0
M  V30 13 C 0.570352 3.312398 0.262461 0
M  V30 14 C 0.798297 1.952551 0.339610 0
M  V30 15 C 0.486426 -1.495922 1.539193 0
M  V30 16 C 0.399180 -2.650716 0.613377 0
M  V30 17 C -0.777060 -2.940285 -0.046774 0
M  V30 18 C -0.913675 -4.002318 -0.919129 0
M  V30 19 C 0.167906 -4.826510 -1.155800 0
M  V30 20 C 1.358118 -4.567162 -0.513850 0
M  V30 21 C 1.469015 -3.508472 0.346383 0
M  V30 22 N -0.620753 -1.383459 2.429106 0
M  V30 23 H -3.054839 -1.226813 5.187410 0
M  V30 24 H -2.117178 -0.338565 1.368120 0
M  V30 25 H -1.397837 1.895201 2.140867 0
M  V30 26 H -0.194162 1.158532 3.240776 0
M  V30 27 H 2.264303 -0.758418 -0.647843 0
M  V30 28 H 3.084479 1.513929 -2.131749 0
M  V30 29 H 2.678526 3.989371 -2.282324 0
M  V30 30 H 1.115599 5.051911 -0.780310 0
M  V30 31 H -0.124283 3.766266 0.934541 0
M  V30 32 H 1.386359 -1.717608 2.186089 0
M  V30 33 H -1.663109 -2.325354 0.100495 0
M  V30 34 H -1.836223 -4.204391 -1.417523 0
M  V30 35 H 0.133436 -5.668358 -1.819929 0
M  V30 36 H 2.209562 -5.216676 -0.700712 0
M  V30 37 H 2.415493 -3.310367 0.850577 0
M  V30 38 H -0.388649 -1.544401 3.424943 0
M  V30 END ATOM
M  V30 BEGIN BOND
M  V30 1 2 1 2
M  V30 2 1 2 3
M  V30 3 1 2 4
M  V30 4 1 4 5
M  V30 5 1 5 6
M  V30 6 2 6 7
M  V30 7 1 7 8
M  V30 8 1 8 9
M  V30 9 2 9 10
M  V30 10 1 10 11
M  V30 11 2 11 12
M  V30 12 1 12 13
M  V30 13 2 13 14
M  V30 14 1 7 15
M  V30 15 1 15 16
M  V30 16 2 16 17
M  V30 17 1 17 18
M  V30 18 2 18 19
M  V30 19 1 19 20
M  V30 20 2 20 21
M  V30 21 1 15 22
M  V30 22 1 22 4
M  V30 23 1 14 6
M  V30 24 1 21 16
M  V30 25 1 14 9
M  V30 26 1 3 23
M  V30 27 1 4 24
M  V30 28 1 5 25
M  V30 29 1 5 26
M  V30 30 1 8 27
M  V30 31 1 10 28
M  V30 32 1 11 29
M  V30 33 1 12 30
M  V30 34 1 13 31
M  V30 35 1 15 32
M  V30 36 1 17 33
M  V30 37 1 18 34
M  V30 38 1 19 35
M  V30 39 1 20 36
M  V30 40 1 21 37
M  V30 41 1 22 38
M  V30 END BOND
M  V30 END CTAB
M  END
>  <Dataset>  (822) 
ChEMBL_Kinases

>  <Ligand_Instance>  (822) 
nan

>  <PDB_ID>  (822) 
nan

>  <Standardized_SMILES>  (822) 
O=C(O)C1Cc2c([nH]c3ccccc23)C(c2ccccc2)N1

>  <Name>  (822) 
nan

>  <Pocket>  (822) 
nan

>  <ATP_Site>  (822) 
nan

>  <Peripheral>  (822) 
nan

>  <Num_H_Atoms_ProtBoundConf>  (822) 
nan

>  <Num_Resolved_Atoms>  (822) 
nan

>  <Num_Not_Resolved_Atoms>  (822) 
nan

$$$$
CHEMBL4753801
     RDKit          3D

  0  0  0  0  0  0  0  0  0  0999 V3000
M  V30 BEGIN CTAB
M  V30 COUNTS 52 55 0 0 0
M  V30 BEGIN ATOM
M  V30 1 C 3.575191 -0.828005 0.289559 0
M  V30 2 C 3.732945 -0.904550 1.765011 0
M  V30 3 C 3.889105 -2.323284 2.217683 0
M  V30 4 N 4.749998 -0.031960 2.314887 0
M  V30 5 C 5.813749 -0.280215 3.135547 0
M  V30 6 N 6.478961 0.872237 3.372171 0
M  V30 7 N 5.831486 1.831787 2.701653 0
M  V30 8 C 4.778381 1.290141 2.055693 0
M  V30 9 C 3.830368 2.035604 1.213373 0
M  V30 10 C 4.123322 2.670109 0.015357 0
M  V30 11 C 3.116704 3.332118 -0.661697 0
M  V30 12 C 1.819402 3.385290 -0.184975 0
M  V30 13 C 1.582590 2.736046 1.013343 0
M  V30 14 N 0.226655 2.810362 1.477646 0
M  V30 15 C -0.532490 1.705512 0.971205 0
M  V30 16 O -0.115943 0.762808 0.214446 0
M  V30 17 N -1.913146 1.516788 1.266204 0
M  V30 18 C -2.648567 0.396473 0.742993 0
M  V30 19 C -3.354819 0.296071 -0.435715 0
M  V30 20 C -3.984919 -0.895688 -0.724044 0
M  V30 21 C -3.928718 -1.980635 0.126785 0
M  V30 22 C -4.605480 -3.228589 -0.205036 0
M  V30 23 C -5.128862 -4.087083 0.743375 0
M  V30 24 N -5.669323 -5.119653 0.073152 0
M  V30 25 N -5.518335 -4.963316 -1.232061 0
M  V30 26 C -5.904624 -5.760564 -2.379650 0
M  V30 27 C -4.861623 -3.798924 -1.437741 0
M  V30 28 C -3.224571 -1.866817 1.292451 0
M  V30 29 C -2.574923 -0.688469 1.624538 0
M  V30 30 N 2.557448 2.076666 1.699866 0
M  V30 31 H 3.326107 -1.848162 -0.087537 0
M  V30 32 H 4.513778 -0.560789 -0.243831 0
M  V30 33 H 2.728129 -0.194936 0.006888 0
M  V30 34 H 2.769075 -0.545494 2.231372 0
M  V30 35 H 3.747431 -2.321465 3.328856 0
M  V30 36 H 3.053627 -2.903144 1.752051 0
M  V30 37 H 4.859512 -2.744976 1.908120 0
M  V30 38 H 6.007290 -1.302667 3.491611 0
M  V30 39 H 5.143286 2.595313 -0.303878 0
M  V30 40 H 3.415945 3.814309 -1.605362 0
M  V30 41 H 1.053675 3.908883 -0.733651 0
M  V30 42 H -0.244995 3.515726 2.092845 0
M  V30 43 H -2.413583 2.218653 1.886254 0
M  V30 44 H -3.332122 1.193703 -1.017395 0
M  V30 45 H -4.530101 -0.926897 -1.666387 0
M  V30 46 H -5.130644 -3.994335 1.825105 0
M  V30 47 H -5.021247 -5.973024 -3.041661 0
M  V30 48 H -6.649382 -5.259163 -3.026147 0
M  V30 49 H -6.276111 -6.766931 -2.065447 0
M  V30 50 H -4.538770 -3.296004 -2.321107 0
M  V30 51 H -3.199939 -2.740846 1.941213 0
M  V30 52 H -2.056583 -0.724559 2.565757 0
M  V30 END ATOM
M  V30 BEGIN BOND
M  V30 1 1 1 2
M  V30 2 1 2 3
M  V30 3 1 2 4
M  V30 4 1 4 5
M  V30 5 2 5 6
M  V30 6 1 6 7
M  V30 7 2 7 8
M  V30 8 1 8 9
M  V30 9 2 9 10
M  V30 10 1 10 11
M  V30 11 2 11 12
M  V30 12 1 12 13
M  V30 13 1 13 14
M  V30 14 1 14 15
M  V30 15 2 15 16
M  V30 16 1 15 17
M  V30 17 1 17 18
M  V30 18 2 18 19
M  V30 19 1 19 20
M  V30 20 2 20 21
M  V30 21 1 21 22
M  V30 22 1 22 23
M  V30 23 2 23 24
M  V30 24 1 24 25
M  V30 25 1 25 26
M  V30 26 1 25 27
M  V30 27 1 21 28
M  V30 28 2 28 29
M  V30 29 2 13 30
M  V30 30 1 8 4
M  V30 31 1 30 9
M  V30 32 1 29 18
M  V30 33 2 27 22
M  V30 34 1 1 31
M  V30 35 1 1 32
M  V30 36 1 1 33
M  V30 37 1 2 34
M  V30 38 1 3 35
M  V30 39 1 3 36
M  V30 40 1 3 37
M  V30 41 1 5 38
M  V30 42 1 10 39
M  V30 43 1 11 40
M  V30 44 1 12 41
M  V30 45 1 14 42
M  V30 46 1 17 43
M  V30 47 1 19 44
M  V30 48 1 20 45
M  V30 49 1 23 46
M  V30 50 1 26 47
M  V30 51 1 26 48
M  V30 52 1 26 49
M  V30 53 1 27 50
M  V30 54 1 28 51
M  V30 55 1 29 52
M  V30 END BOND
M  V30 END CTAB
M  END
>  <Dataset>  (823) 
ChEMBL_Kinases

>  <Ligand_Instance>  (823) 
nan

>  <PDB_ID>  (823) 
nan

>  <Standardized_SMILES>  (823) 
CC(C)n1cnnc1-c1cccc(NC(=O)Nc2ccc(-c3cnn(C)c3)cc2)n1

>  <Name>  (823) 
nan

>  <Pocket>  (823) 
nan

>  <ATP_Site>  (823) 
nan

>  <Peripheral>  (823) 
nan

>  <Num_H_Atoms_ProtBoundConf>  (823) 
nan

>  <Num_Resolved_Atoms>  (823) 
nan

>  <Num_Not_Resolved_Atoms>  (823) 
nan

$$$$
CHEMBL4753817
     RDKit          3D

  0  0  0  0  0  0  0  0  0  0999 V3000
M  V30 BEGIN CTAB
M  V30 COUNTS 37 39 0 0 0
M  V30 BEGIN ATOM
M  V30 1 N 2.179061 -6.662103 4.634701 0
M  V30 2 C 1.653256 -5.896688 3.917622 0
M  V30 3 C 1.019467 -4.968726 3.020857 0
M  V30 4 C 0.465480 -5.415917 1.823526 0
M  V30 5 C -0.125218 -4.462022 1.016861 0
M  V30 6 C -0.159985 -3.142375 1.384571 0
M  V30 7 C -0.760816 -2.062952 0.593928 0
M  V30 8 C -0.085911 -0.855010 0.434092 0
M  V30 9 C -0.620015 0.189654 -0.305978 0
M  V30 10 C 0.148684 1.423744 -0.424691 0
M  V30 11 C 0.941704 1.763350 0.650645 0
M  V30 12 C 1.680784 2.921915 0.567371 0
M  V30 13 C 1.546107 3.631551 -0.604298 0
M  V30 14 C 2.287088 4.862977 -0.772851 0
M  V30 15 O 3.032208 5.206671 0.210232 0
M  V30 16 O 2.945176 6.017336 -1.000724 0
M  V30 17 C 0.752559 3.289077 -1.677064 0
M  V30 18 C 0.009861 2.130540 -1.600953 0
M  V30 19 C -1.855431 0.019341 -0.897393 0
M  V30 20 N -2.525139 -1.161077 -0.746577 0
M  V30 21 C -1.991276 -2.167666 -0.023110 0
M  V30 22 N -2.724013 -3.381504 0.108841 0
M  V30 23 C 0.391592 -2.678495 2.582933 0
M  V30 24 C 0.989176 -3.642702 3.399159 0
M  V30 25 H 0.488182 -6.449442 1.526679 0
M  V30 26 H -0.582096 -4.707188 0.070625 0
M  V30 27 H 0.883234 -0.795833 0.930212 0
M  V30 28 H 0.989760 1.146971 1.537208 0
M  V30 29 H 2.320611 3.245814 1.370526 0
M  V30 30 H 2.671398 6.721876 -1.679686 0
M  V30 31 H 0.680910 3.880086 -2.577490 0
M  V30 32 H -0.642647 1.768626 -2.379840 0
M  V30 33 H -2.228752 0.868752 -1.465712 0
M  V30 34 H -2.934711 -4.157082 -0.554626 0
M  V30 35 H -3.084216 -3.420283 1.089741 0
M  V30 36 H 0.406755 -1.674334 2.940852 0
M  V30 37 H 1.434821 -3.343308 4.342782 0
M  V30 END ATOM
M  V30 BEGIN BOND
M  V30 1 3 1 2
M  V30 2 1 2 3
M  V30 3 2 3 4
M  V30 4 1 4 5
M  V30 5 2 5 6
M  V30 6 1 6 7
M  V30 7 2 7 8
M  V30 8 1 8 9
M  V30 9 1 9 10
M  V30 10 2 10 11
M  V30 11 1 11 12
M  V30 12 2 12 13
M  V30 13 1 13 14
M  V30 14 2 14 15
M  V30 15 1 14 16
M  V30 16 1 13 17
M  V30 17 2 17 18
M  V30 18 2 9 19
M  V30 19 1 19 20
M  V30 20 2 20 21
M  V30 21 1 21 22
M  V30 22 1 6 23
M  V30 23 2 23 24
M  V30 24 1 24 3
M  V30 25 1 21 7
M  V30 26 1 18 10
M  V30 27 1 4 25
M  V30 28 1 5 26
M  V30 29 1 8 27
M  V30 30 1 11 28
M  V30 31 1 12 29
M  V30 32 1 16 30
M  V30 33 1 17 31
M  V30 34 1 18 32
M  V30 35 1 19 33
M  V30 36 1 22 34
M  V30 37 1 22 35
M  V30 38 1 23 36
M  V30 39 1 24 37
M  V30 END BOND
M  V30 END CTAB
M  END
>  <Dataset>  (824) 
ChEMBL_Kinases

>  <Ligand_Instance>  (824) 
nan

>  <PDB_ID>  (824) 
nan

>  <Standardized_SMILES>  (824) 
N#Cc1ccc(-c2cc(-c3ccc(C(=O)O)cc3)cnc2N)cc1

>  <Name>  (824) 
nan

>  <Pocket>  (824) 
nan

>  <ATP_Site>  (824) 
nan

>  <Peripheral>  (824) 
nan

>  <Num_H_Atoms_ProtBoundConf>  (824) 
nan

>  <Num_Resolved_Atoms>  (824) 
nan

>  <Num_Not_Resolved_Atoms>  (824) 
nan

$$$$
CHEMBL442802
     RDKit          3D

  0  0  0  0  0  0  0  0  0  0999 V3000
M  V30 BEGIN CTAB
M  V30 COUNTS 52 55 0 0 0
M  V30 BEGIN ATOM
M  V30 1 C 2.551538 -2.810540 -0.883868 0
M  V30 2 C 2.860297 -3.092559 0.550251 0
M  V30 3 O 2.076448 -3.777719 1.257862 0
M  V30 4 N 4.006112 -2.646990 1.241624 0
M  V30 5 C 4.211040 -2.971940 2.624971 0
M  V30 6 C 3.198383 -2.465833 3.590307 0
M  V30 7 S 3.011586 -0.710739 3.714837 0
M  V30 8 C 2.286647 0.128397 2.359205 0
M  V30 9 C 2.841561 1.375374 2.041481 0
M  V30 10 N 2.137771 1.880786 0.984377 0
M  V30 11 N 1.196983 1.056804 0.621163 0
M  V30 12 C 0.227078 1.033975 -0.318682 0
M  V30 13 N 0.174033 2.157512 -1.163292 0
M  V30 14 C -0.576783 3.313113 -0.737266 0
M  V30 15 C -2.005002 3.008894 -0.487227 0
M  V30 16 C -2.520905 2.612722 0.724695 0
M  V30 17 C -3.885321 2.356230 0.840493 0
M  V30 18 C -4.724248 2.494046 -0.243110 0
M  V30 19 N -4.221769 2.883213 -1.437014 0
M  V30 20 C -2.896589 3.126233 -1.524772 0
M  V30 21 C -0.608376 -0.065109 -0.371028 0
M  V30 22 C -0.507805 -1.143769 0.484965 0
M  V30 23 C -1.405121 -2.279652 0.396360 0
M  V30 24 C -2.430291 -2.428183 -0.512975 0
M  V30 25 C -3.268784 -3.519297 -0.577536 0
M  V30 26 C -3.091296 -4.546455 0.317800 0
M  V30 27 C -2.079131 -4.454893 1.254570 0
M  V30 28 C -1.261922 -3.331489 1.275396 0
M  V30 29 N 0.467873 -1.088814 1.407695 0
M  V30 30 C 1.269807 -0.011401 1.441579 0
M  V30 31 H 2.443823 -1.714709 -0.988887 0
M  V30 32 H 3.443963 -3.144728 -1.462784 0
M  V30 33 H 1.647762 -3.384984 -1.165332 0
M  V30 34 H 4.705690 -2.066020 0.701020 0
M  V30 35 H 5.226788 -2.676972 2.976079 0
M  V30 36 H 4.180849 -4.101592 2.719129 0
M  V30 37 H 2.201324 -2.942236 3.450184 0
M  V30 38 H 3.527122 -2.838016 4.605760 0
M  V30 39 H 3.625107 2.031898 2.365452 0
M  V30 40 H 0.710065 1.993628 -2.022502 0
M  V30 41 H -0.514042 4.085641 -1.532310 0
M  V30 42 H -0.179217 3.733474 0.229878 0
M  V30 43 H -1.822107 2.514583 1.563996 0
M  V30 44 H -4.277241 2.040446 1.819967 0
M  V30 45 H -5.796328 2.289935 -0.142533 0
M  V30 46 H -2.516335 3.440118 -2.503573 0
M  V30 47 H -1.361047 -0.013976 -1.149365 0
M  V30 48 H -2.583337 -1.628116 -1.224848 0
M  V30 49 H -4.060272 -3.542414 -1.343371 0
M  V30 50 H -3.767600 -5.380496 0.234157 0
M  V30 51 H -1.983182 -5.288939 1.934058 0
M  V30 52 H -0.521258 -3.384983 2.046651 0
M  V30 END ATOM
M  V30 BEGIN BOND
M  V30 1 1 1 2
M  V30 2 2 2 3
M  V30 3 1 2 4
M  V30 4 1 4 5
M  V30 5 1 5 6
M  V30 6 1 6 7
M  V30 7 1 7 8
M  V30 8 1 8 9
M  V30 9 2 9 10
M  V30 10 1 10 11
M  V30 11 1 11 12
M  V30 12 1 12 13
M  V30 13 1 13 14
M  V30 14 1 14 15
M  V30 15 2 15 16
M  V30 16 1 16 17
M  V30 17 2 17 18
M  V30 18 1 18 19
M  V30 19 2 19 20
M  V30 20 2 12 21
M  V30 21 1 21 22
M  V30 22 1 22 23
M  V30 23 2 23 24
M  V30 24 1 24 25
M  V30 25 2 25 26
M  V30 26 1 26 27
M  V30 27 2 27 28
M  V30 28 2 22 29
M  V30 29 1 29 30
M  V30 30 2 30 8
M  V30 31 1 30 11
M  V30 32 1 20 15
M  V30 33 1 28 23
M  V30 34 1 1 31
M  V30 35 1 1 32
M  V30 36 1 1 33
M  V30 37 1 4 34
M  V30 38 1 5 35
M  V30 39 1 5 36
M  V30 40 1 6 37
M  V30 41 1 6 38
M  V30 42 1 9 39
M  V30 43 1 13 40
M  V30 44 1 14 41
M  V30 45 1 14 42
M  V30 46 1 16 43
M  V30 47 1 17 44
M  V30 48 1 18 45
M  V30 49 1 20 46
M  V30 50 1 21 47
M  V30 51 1 24 48
M  V30 52 1 25 49
M  V30 53 1 26 50
M  V30 54 1 27 51
M  V30 55 1 28 52
M  V30 END BOND
M  V30 END CTAB
M  END
>  <Dataset>  (825) 
ChEMBL_Kinases

>  <Ligand_Instance>  (825) 
nan

>  <PDB_ID>  (825) 
nan

>  <Standardized_SMILES>  (825) 
CC(=O)NCCSc1cnn2c(NCc3cccnc3)cc(-c3ccccc3)nc12

>  <Name>  (825) 
nan

>  <Pocket>  (825) 
nan

>  <ATP_Site>  (825) 
nan

>  <Peripheral>  (825) 
nan

>  <Num_H_Atoms_ProtBoundConf>  (825) 
nan

>  <Num_Resolved_Atoms>  (825) 
nan

>  <Num_Not_Resolved_Atoms>  (825) 
nan

$$$$
CHEMBL4753827
     RDKit          3D

  0  0  0  0  0  0  0  0  0  0999 V3000
M  V30 BEGIN CTAB
M  V30 COUNTS 31 32 0 0 0
M  V30 BEGIN ATOM
M  V30 1 O 0.110265 -0.539309 1.050006 0
M  V30 2 C 0.773336 -0.454166 -0.004194 0
M  V30 3 C 1.308405 -1.426996 -0.951458 0
M  V30 4 C 1.011588 -2.861152 -0.609103 0
M  V30 5 S 1.728748 -3.252399 1.015019 0
M  V30 6 C 0.328400 -3.808486 2.026328 0
M  V30 7 C -0.443292 -4.781111 1.144073 0
M  V30 8 N -1.160504 -4.105521 0.089431 0
M  V30 9 C -0.411216 -3.202736 -0.682097 0
M  V30 10 O -0.998681 -2.554625 -1.596441 0
M  V30 11 N 1.031421 0.916713 -0.290473 0
M  V30 12 C 0.508512 1.889207 0.637296 0
M  V30 13 C 1.216297 2.339409 1.732894 0
M  V30 14 C 0.630502 3.271222 2.562412 0
M  V30 15 C -0.656052 3.723873 2.262715 0
M  V30 16 F -1.167291 4.650339 3.137393 0
M  V30 17 C -1.349661 3.259220 1.157825 0
M  V30 18 C -0.753923 2.327231 0.335041 0
M  V30 19 H 2.421353 -1.325092 -1.010935 0
M  V30 20 H 0.949108 -1.163946 -1.967564 0
M  V30 21 H 1.611747 -3.468987 -1.326962 0
M  V30 22 H -0.332906 -2.972041 2.262047 0
M  V30 23 H 0.652552 -4.386245 2.910587 0
M  V30 24 H -1.190750 -5.244687 1.806674 0
M  V30 25 H 0.219058 -5.565106 0.761191 0
M  V30 26 H -2.187726 -4.244410 -0.132464 0
M  V30 27 H 1.558664 1.331960 -1.096510 0
M  V30 28 H 2.199553 1.900012 1.837554 0
M  V30 29 H 1.228278 3.582080 3.395380 0
M  V30 30 H -2.357882 3.662004 0.986948 0
M  V30 31 H -1.323267 1.979433 -0.527149 0
M  V30 END ATOM
M  V30 BEGIN BOND
M  V30 1 2 1 2
M  V30 2 1 2 3
M  V30 3 1 3 4
M  V30 4 1 4 5
M  V30 5 1 5 6
M  V30 6 1 6 7
M  V30 7 1 7 8
M  V30 8 1 8 9
M  V30 9 2 9 10
M  V30 10 1 2 11
M  V30 11 1 11 12
M  V30 12 2 12 13
M  V30 13 1 13 14
M  V30 14 2 14 15
M  V30 15 1 15 16
M  V30 16 1 15 17
M  V30 17 2 17 18
M  V30 18 1 9 4
M  V30 19 1 18 12
M  V30 20 1 3 19
M  V30 21 1 3 20
M  V30 22 1 4 21
M  V30 23 1 6 22
M  V30 24 1 6 23
M  V30 25 1 7 24
M  V30 26 1 7 25
M  V30 27 1 8 26
M  V30 28 1 11 27
M  V30 29 1 13 28
M  V30 30 1 14 29
M  V30 31 1 17 30
M  V30 32 1 18 31
M  V30 END BOND
M  V30 END CTAB
M  END
>  <Dataset>  (826) 
ChEMBL_Kinases

>  <Ligand_Instance>  (826) 
nan

>  <PDB_ID>  (826) 
nan

>  <Standardized_SMILES>  (826) 
O=C(CC1SCCNC1=O)Nc1ccc(F)cc1

>  <Name>  (826) 
nan

>  <Pocket>  (826) 
nan

>  <ATP_Site>  (826) 
nan

>  <Peripheral>  (826) 
nan

>  <Num_H_Atoms_ProtBoundConf>  (826) 
nan

>  <Num_Resolved_Atoms>  (826) 
nan

>  <Num_Not_Resolved_Atoms>  (826) 
nan

$$$$
CHEMBL4753837
     RDKit          3D

  0  0  0  0  0  0  0  0  0  0999 V3000
M  V30 BEGIN CTAB
M  V30 COUNTS 75 79 0 0 0
M  V30 BEGIN ATOM
M  V30 1 C 6.058170 -5.110183 2.863595 0
M  V30 2 N 6.545471 -4.008588 2.117614 0
M  V30 3 C 7.615023 -4.246875 1.209008 0
M  V30 4 C 7.726087 -3.047126 0.264046 0
M  V30 5 N 6.530292 -2.304259 0.371570 0
M  V30 6 C 6.250184 -1.331160 -0.669583 0
M  V30 7 C 5.953136 -2.015347 -1.954064 0
M  V30 8 C 5.730405 -1.228214 -3.182935 0
M  V30 9 C 4.665584 -0.205016 -3.259937 0
M  V30 10 C 4.832124 1.009132 -2.441691 0
M  V30 11 O 3.754736 1.937552 -2.506857 0
M  V30 12 C 2.468894 1.735001 -2.103776 0
M  V30 13 C 1.722936 2.894707 -2.360819 0
M  V30 14 C 0.380103 3.013118 -2.063932 0
M  V30 15 C -0.284429 1.945503 -1.482975 0
M  V30 16 N -1.635625 1.766404 -1.067873 0
M  V30 17 C -2.529325 1.241420 -2.036548 0
M  V30 18 O -2.392433 0.864152 -3.223807 0
M  V30 19 S -4.152917 1.153469 -1.270664 0
M  V30 20 C -3.587835 1.751442 0.345241 0
M  V30 21 C -4.257429 1.902004 1.453050 0
M  V30 22 C -5.674756 1.586454 1.573039 0
M  V30 23 C -6.152422 1.052598 2.775656 0
M  V30 24 C -7.474782 0.700210 3.028445 0
M  V30 25 C -8.387553 0.894566 2.007046 0
M  V30 26 O -9.717670 0.567210 2.186518 0
M  V30 27 C -10.290089 -0.658755 1.944717 0
M  V30 28 C -10.843597 -1.144387 0.752216 0
M  V30 29 C -11.360450 -2.416572 0.762897 0
M  V30 30 C -11.365917 -3.237714 1.874497 0
M  V30 31 Br -12.151220 -4.946643 1.571161 0
M  V30 32 C -10.813939 -2.745854 3.051044 0
M  V30 33 C -10.288515 -1.469107 3.062539 0
M  V30 34 C -7.954629 1.427020 0.786195 0
M  V30 35 C -6.614352 1.765398 0.581359 0
M  V30 36 C -2.184980 2.045819 0.209635 0
M  V30 37 O -1.442023 2.521425 1.133241 0
M  V30 38 C 0.433519 0.774564 -1.213879 0
M  V30 39 C 1.776450 0.698706 -1.526715 0
M  V30 40 C 6.540340 -1.655616 1.676058 0
M  V30 41 C 6.561959 -2.734157 2.749487 0
M  V30 42 H 6.786749 -5.903998 3.098377 0
M  V30 43 H 5.579870 -4.714049 3.800098 0
M  V30 44 H 5.201307 -5.545576 2.269233 0
M  V30 45 H 7.440419 -5.170475 0.636241 0
M  V30 46 H 8.578400 -4.365942 1.755022 0
M  V30 47 H 8.561008 -2.388311 0.651811 0
M  V30 48 H 8.043800 -3.361554 -0.731511 0
M  V30 49 H 6.998825 -0.552938 -0.671712 0
M  V30 50 H 5.221573 -0.930094 -0.293374 0
M  V30 51 H 6.783797 -2.773862 -2.120428 0
M  V30 52 H 5.051269 -2.706290 -1.832648 0
M  V30 53 H 6.733445 -0.753516 -3.502434 0
M  V30 54 H 5.588113 -1.970060 -4.048916 0
M  V30 55 H 3.685907 -0.751898 -3.113384 0
M  V30 56 H 4.646180 0.143767 -4.356580 0
M  V30 57 H 5.146384 0.816918 -1.422329 0
M  V30 58 H 5.727015 1.560801 -2.902232 0
M  V30 59 H 2.064496 3.827050 -2.809257 0
M  V30 60 H -0.291207 3.840863 -2.206616 0
M  V30 61 H -3.786277 2.275225 2.361094 0
M  V30 62 H -5.427676 0.905254 3.573722 0
M  V30 63 H -7.739107 0.299370 3.981084 0
M  V30 64 H -10.793487 -0.437274 -0.052754 0
M  V30 65 H -11.765510 -2.690830 -0.222587 0
M  V30 66 H -10.861456 -3.450884 3.855276 0
M  V30 67 H -9.891429 -1.218118 4.045116 0
M  V30 68 H -8.649906 1.590622 -0.031050 0
M  V30 69 H -6.287892 2.177841 -0.365421 0
M  V30 70 H 0.066119 -0.153521 -0.760845 0
M  V30 71 H 2.388770 -0.158974 -1.332856 0
M  V30 72 H 5.721246 -0.946852 1.771882 0
M  V30 73 H 7.508515 -1.100757 1.717663 0
M  V30 74 H 5.663660 -2.623834 3.377385 0
M  V30 75 H 7.474665 -2.591518 3.399955 0
M  V30 END ATOM
M  V30 BEGIN BOND
M  V30 1 1 1 2
M  V30 2 1 2 3
M  V30 3 1 3 4
M  V30 4 1 4 5
M  V30 5 1 5 6
M  V30 6 1 6 7
M  V30 7 1 7 8
M  V30 8 1 8 9
M  V30 9 1 9 10
M  V30 10 1 10 11
M  V30 11 1 11 12
M  V30 12 2 12 13
M  V30 13 1 13 14
M  V30 14 2 14 15
M  V30 15 1 15 16
M  V30 16 1 16 17
M  V30 17 2 17 18
M  V30 18 1 17 19
M  V30 19 1 19 20
M  V30 20 2 20 21
M  V30 21 1 21 22
M  V30 22 2 22 23
M  V30 23 1 23 24
M  V30 24 2 24 25
M  V30 25 1 25 26
M  V30 26 1 26 27
M  V30 27 2 27 28
M  V30 28 1 28 29
M  V30 29 2 29 30
M  V30 30 1 30 31
M  V30 31 1 30 32
M  V30 32 2 32 33
M  V30 33 1 25 34
M  V30 34 2 34 35
M  V30 35 1 20 36
M  V30 36 2 36 37
M  V30 37 1 15 38
M  V30 38 2 38 39
M  V30 39 1 5 40
M  V30 40 1 40 41
M  V30 41 1 41 2
M  V30 42 1 39 12
M  V30 43 1 36 16
M  V30 44 1 35 22
M  V30 45 1 33 27
M  V30 46 1 1 42
M  V30 47 1 1 43
M  V30 48 1 1 44
M  V30 49 1 3 45
M  V30 50 1 3 46
M  V30 51 1 4 47
M  V30 52 1 4 48
M  V30 53 1 6 49
M  V30 54 1 6 50
M  V30 55 1 7 51
M  V30 56 1 7 52
M  V30 57 1 8 53
M  V30 58 1 8 54
M  V30 59 1 9 55
M  V30 60 1 9 56
M  V30 61 1 10 57
M  V30 62 1 10 58
M  V30 63 1 13 59
M  V30 64 1 14 60
M  V30 65 1 21 61
M  V30 66 1 23 62
M  V30 67 1 24 63
M  V30 68 1 28 64
M  V30 69 1 29 65
M  V30 70 1 32 66
M  V30 71 1 33 67
M  V30 72 1 34 68
M  V30 73 1 35 69
M  V30 74 1 38 70
M  V30 75 1 39 71
M  V30 76 1 40 72
M  V30 77 1 40 73
M  V30 78 1 41 74
M  V30 79 1 41 75
M  V30 END BOND
M  V30 END CTAB
M  END
>  <Dataset>  (827) 
ChEMBL_Kinases

>  <Ligand_Instance>  (827) 
nan

>  <PDB_ID>  (827) 
nan

>  <Standardized_SMILES>  (827) 
CN1CCN(CCCCCOc2ccc(N3C(=O)S/C(=C\c4ccc(Oc5ccc(Br)cc5)cc4)C3=O)cc2)CC1

>  <Name>  (827) 
nan

>  <Pocket>  (827) 
nan

>  <ATP_Site>  (827) 
nan

>  <Peripheral>  (827) 
nan

>  <Num_H_Atoms_ProtBoundConf>  (827) 
nan

>  <Num_Resolved_Atoms>  (827) 
nan

>  <Num_Not_Resolved_Atoms>  (827) 
nan

$$$$
CHEMBL442485
     RDKit          3D

  0  0  0  0  0  0  0  0  0  0999 V3000
M  V30 BEGIN CTAB
M  V30 COUNTS 78 82 0 0 0
M  V30 BEGIN ATOM
M  V30 1 C 1.523815 -5.327835 4.014692 0
M  V30 2 O 2.297085 -5.725888 2.898683 0
M  V30 3 C 1.903785 -5.350981 1.629236 0
M  V30 4 C 2.649347 -5.730501 0.527783 0
M  V30 5 C 2.278658 -5.367953 -0.773756 0
M  V30 6 C 1.124824 -4.600002 -0.983694 0
M  V30 7 O 0.788005 -4.259251 -2.283235 0
M  V30 8 C 1.570005 -4.663966 -3.369667 0
M  V30 9 C 0.417999 -4.248063 0.142987 0
M  V30 10 N -0.737970 -3.486018 -0.010213 0
M  V30 11 C -1.242037 -3.043303 -1.228411 0
M  V30 12 O -2.214004 -2.374926 -1.664904 0
M  V30 13 O -1.385302 -2.820816 -2.573118 0
M  V30 14 C -2.430893 -2.095619 -3.131317 0
M  V30 15 C -3.557751 -2.836278 -3.503512 0
M  V30 16 C -3.718625 -4.316179 -3.352293 0
M  V30 17 C -4.668571 -2.246402 -4.068918 0
M  V30 18 C -4.671746 -0.873594 -4.277144 0
M  V30 19 C -3.547142 -0.121961 -3.907367 0
M  V30 20 C -2.429096 -0.731718 -3.335610 0
M  V30 21 C -1.226033 0.039134 -2.935660 0
M  V30 22 C -1.649853 -2.987477 0.961332 0
M  V30 23 C -2.733946 -3.719729 1.316362 0
M  V30 24 C -3.565716 -3.162162 2.260276 0
M  V30 25 N -3.251191 -1.973520 2.743201 0
M  V30 26 C -2.189298 -1.227938 2.413286 0
M  V30 27 N -1.984558 0.025224 3.008402 0
M  V30 28 C -0.929981 0.927671 2.827253 0
M  V30 29 C 0.182033 0.718676 2.040376 0
M  V30 30 C 1.227823 1.598665 1.852776 0
M  V30 31 C 1.183389 2.808907 2.501745 0
M  V30 32 N 2.204252 3.795065 2.393442 0
M  V30 33 C 2.258183 5.139565 2.921679 0
M  V30 34 C 2.414679 6.204809 1.890629 0
M  V30 35 N 3.239655 5.911696 0.775267 0
M  V30 36 C 2.636123 6.493608 -0.421738 0
M  V30 37 C 3.477513 4.538432 0.486345 0
M  V30 38 C 3.468104 3.626191 1.691475 0
M  V30 39 C 0.105747 3.072711 3.295711 0
M  V30 40 C -0.916532 2.160802 3.452309 0
M  V30 41 N -1.401200 -1.787750 1.499716 0
M  V30 42 C 0.767817 -4.595853 1.427994 0
M  V30 43 H 1.327670 -4.225655 4.021226 0
M  V30 44 H 2.095164 -5.626673 4.918297 0
M  V30 45 H 0.585292 -5.930389 4.059218 0
M  V30 46 H 3.558685 -6.331035 0.653084 0
M  V30 47 H 2.924477 -5.710024 -1.586556 0
M  V30 48 H 1.220525 -4.252211 -4.319261 0
M  V30 49 H 1.535543 -5.784066 -3.496668 0
M  V30 50 H 2.636529 -4.441030 -3.157564 0
M  V30 51 H -3.743643 -4.711530 -4.406322 0
M  V30 52 H -4.689279 -4.596244 -2.906289 0
M  V30 53 H -2.840909 -4.753404 -2.882456 0
M  V30 54 H -5.561574 -2.746211 -4.377938 0
M  V30 55 H -5.516991 -0.355644 -4.716095 0
M  V30 56 H -3.496733 0.952201 -4.047210 0
M  V30 57 H -0.342946 -0.635441 -3.086343 0
M  V30 58 H -1.075038 0.963369 -3.521192 0
M  V30 59 H -1.284156 0.219555 -1.841731 0
M  V30 60 H -2.955238 -4.680152 0.902954 0
M  V30 61 H -4.457978 -3.714648 2.582214 0
M  V30 62 H -2.733066 0.342294 3.697487 0
M  V30 63 H 0.287550 -0.206666 1.503689 0
M  V30 64 H 2.063467 1.350436 1.213387 0
M  V30 65 H 1.352741 5.427478 3.509849 0
M  V30 66 H 3.084956 5.177829 3.660741 0
M  V30 67 H 1.430550 6.626109 1.550429 0
M  V30 68 H 2.891629 7.087749 2.411068 0
M  V30 69 H 1.781877 7.180509 -0.160921 0
M  V30 70 H 3.360434 7.012150 -1.060004 0
M  V30 71 H 2.148062 5.685090 -1.037060 0
M  V30 72 H 2.835274 4.089738 -0.297751 0
M  V30 73 H 4.520177 4.471434 0.058505 0
M  V30 74 H 4.340680 3.811705 2.358590 0
M  V30 75 H 3.627093 2.613043 1.288487 0
M  V30 76 H -0.015566 4.000116 3.847644 0
M  V30 77 H -1.762049 2.415704 4.098008 0
M  V30 78 H 0.134245 -4.261427 2.236003 0
M  V30 END ATOM
M  V30 BEGIN BOND
M  V30 1 1 1 2
M  V30 2 1 2 3
M  V30 3 2 3 4
M  V30 4 1 4 5
M  V30 5 2 5 6
M  V30 6 1 6 7
M  V30 7 1 7 8
M  V30 8 1 6 9
M  V30 9 1 9 10
M  V30 10 1 10 11
M  V30 11 2 11 12
M  V30 12 1 11 13
M  V30 13 1 13 14
M  V30 14 2 14 15
M  V30 15 1 15 16
M  V30 16 1 15 17
M  V30 17 2 17 18
M  V30 18 1 18 19
M  V30 19 2 19 20
M  V30 20 1 20 21
M  V30 21 1 10 22
M  V30 22 2 22 23
M  V30 23 1 23 24
M  V30 24 2 24 25
M  V30 25 1 25 26
M  V30 26 1 26 27
M  V30 27 1 27 28
M  V30 28 2 28 29
M  V30 29 1 29 30
M  V30 30 2 30 31
M  V30 31 1 31 32
M  V30 32 1 32 33
M  V30 33 1 33 34
M  V30 34 1 34 35
M  V30 35 1 35 36
M  V30 36 1 35 37
M  V30 37 1 37 38
M  V30 38 1 31 39
M  V30 39 2 39 40
M  V30 40 2 26 41
M  V30 41 2 9 42
M  V30 42 1 42 3
M  V30 43 1 20 14
M  V30 44 1 41 22
M  V30 45 1 40 28
M  V30 46 1 38 32
M  V30 47 1 1 43
M  V30 48 1 1 44
M  V30 49 1 1 45
M  V30 50 1 4 46
M  V30 51 1 5 47
M  V30 52 1 8 48
M  V30 53 1 8 49
M  V30 54 1 8 50
M  V30 55 1 16 51
M  V30 56 1 16 52
M  V30 57 1 16 53
M  V30 58 1 17 54
M  V30 59 1 18 55
M  V30 60 1 19 56
M  V30 61 1 21 57
M  V30 62 1 21 58
M  V30 63 1 21 59
M  V30 64 1 23 60
M  V30 65 1 24 61
M  V30 66 1 27 62
M  V30 67 1 29 63
M  V30 68 1 30 64
M  V30 69 1 33 65
M  V30 70 1 33 66
M  V30 71 1 34 67
M  V30 72 1 34 68
M  V30 73 1 36 69
M  V30 74 1 36 70
M  V30 75 1 36 71
M  V30 76 1 37 72
M  V30 77 1 37 73
M  V30 78 1 38 74
M  V30 79 1 38 75
M  V30 80 1 39 76
M  V30 81 1 40 77
M  V30 82 1 42 78
M  V30 END BOND
M  V30 END CTAB
M  END
>  <Dataset>  (828) 
ChEMBL_Kinases

>  <Ligand_Instance>  (828) 
nan

>  <PDB_ID>  (828) 
nan

>  <Standardized_SMILES>  (828) 
COc1ccc(OC)c(N(C(=O)Oc2c(C)cccc2C)c2ccnc(Nc3ccc(N4CCN(C)CC4)cc3)n2)c1

>  <Name>  (828) 
nan

>  <Pocket>  (828) 
nan

>  <ATP_Site>  (828) 
nan

>  <Peripheral>  (828) 
nan

>  <Num_H_Atoms_ProtBoundConf>  (828) 
nan

>  <Num_Resolved_Atoms>  (828) 
nan

>  <Num_Not_Resolved_Atoms>  (828) 
nan

$$$$
CHEMBL4435423
     RDKit          3D

  0  0  0  0  0  0  0  0  0  0999 V3000
M  V30 BEGIN CTAB
M  V30 COUNTS 48 52 0 0 0
M  V30 BEGIN ATOM
M  V30 1 C 2.160723 -1.579941 6.320987 0
M  V30 2 C 2.545587 -1.673777 4.873343 0
M  V30 3 C 3.811708 -1.311506 4.466446 0
M  V30 4 N 3.829391 -1.509553 3.142438 0
M  V30 5 N 2.646949 -1.967234 2.747764 0
M  V30 6 C 2.227247 -2.321509 1.369933 0
M  V30 7 C 1.657593 -1.201508 0.667089 0
M  V30 8 N 2.623851 -0.274086 0.349229 0
M  V30 9 C 2.063302 0.781761 -0.265345 0
M  V30 10 C 2.696573 1.911132 -0.722623 0
M  V30 11 N 1.893851 2.826132 -1.284572 0
M  V30 12 C 0.567174 2.663350 -1.396464 0
M  V30 13 C -0.162698 3.682263 -1.961678 0
M  V30 14 C -1.527690 3.532284 -2.044817 0
M  V30 15 C -2.133281 2.366464 -1.560053 0
M  V30 16 C -3.550072 2.291985 -1.682964 0
M  V30 17 N -4.697821 2.211915 -1.778364 0
M  V30 18 C -1.324051 1.393817 -1.008818 0
M  V30 19 C 0.038633 1.495139 -0.906047 0
M  V30 20 C 0.718322 0.458680 -0.307878 0
M  V30 21 N 0.463059 -0.736762 0.247157 0
M  V30 22 C -0.769977 -1.339322 0.308625 0
M  V30 23 C -1.292888 -1.966813 -0.992162 0
M  V30 24 N -2.502865 -2.661465 -0.635245 0
M  V30 25 C -3.650174 -1.853390 -0.939958 0
M  V30 26 C -2.403691 -2.993525 0.766873 0
M  V30 27 C -0.858945 -2.719054 0.999270 0
M  V30 28 F -0.325532 -3.729886 0.241826 0
M  V30 29 F -0.748597 -2.741930 2.314120 0
M  V30 30 N 1.867279 -2.069303 3.783802 0
M  V30 31 H 1.136747 -1.968716 6.497111 0
M  V30 32 H 2.853825 -2.249987 6.874681 0
M  V30 33 H 2.182755 -0.534966 6.678010 0
M  V30 34 H 4.652709 -0.943273 5.024340 0
M  V30 35 H 3.216585 -2.614303 0.908609 0
M  V30 36 H 1.719973 -3.286104 1.379899 0
M  V30 37 H 3.752270 2.039517 -0.631467 0
M  V30 38 H 0.351145 4.560777 -2.319873 0
M  V30 39 H -2.076440 4.341864 -2.491076 0
M  V30 40 H -1.864563 0.606093 -0.664000 0
M  V30 41 H -1.562701 -0.873470 0.933963 0
M  V30 42 H -0.532756 -2.729997 -1.276541 0
M  V30 43 H -1.450768 -1.338369 -1.827939 0
M  V30 44 H -3.478128 -1.338455 -1.893708 0
M  V30 45 H -4.584800 -2.472477 -1.024411 0
M  V30 46 H -3.779926 -1.069957 -0.165095 0
M  V30 47 H -2.657785 -3.998472 1.049594 0
M  V30 48 H -2.997078 -2.261275 1.330714 0
M  V30 END ATOM
M  V30 BEGIN BOND
M  V30 1 1 1 2
M  V30 2 1 2 3
M  V30 3 2 3 4
M  V30 4 1 4 5
M  V30 5 1 5 6
M  V30 6 1 6 7
M  V30 7 2 7 8
M  V30 8 1 8 9
M  V30 9 2 9 10
M  V30 10 1 10 11
M  V30 11 2 11 12
M  V30 12 1 12 13
M  V30 13 2 13 14
M  V30 14 1 14 15
M  V30 15 1 15 16
M  V30 16 3 16 17
M  V30 17 2 15 18
M  V30 18 1 18 19
M  V30 19 2 19 20
M  V30 20 1 20 21
M  V30 21 1 21 22
M  V30 22 1 22 23
M  V30 23 1 23 24
M  V30 24 1 24 25
M  V30 25 1 24 26
M  V30 26 1 26 27
M  V30 27 1 27 28
M  V30 28 1 27 29
M  V30 29 1 5 30
M  V30 30 2 30 2
M  V30 31 1 21 7
M  V30 32 1 27 22
M  V30 33 1 20 9
M  V30 34 1 19 12
M  V30 35 1 1 31
M  V30 36 1 1 32
M  V30 37 1 1 33
M  V30 38 1 3 34
M  V30 39 1 6 35
M  V30 40 1 6 36
M  V30 41 1 10 37
M  V30 42 1 13 38
M  V30 43 1 14 39
M  V30 44 1 18 40
M  V30 45 1 22 41
M  V30 46 1 23 42
M  V30 47 1 23 43
M  V30 48 1 25 44
M  V30 49 1 25 45
M  V30 50 1 25 46
M  V30 51 1 26 47
M  V30 52 1 26 48
M  V30 END BOND
M  V30 END CTAB
M  END
>  <Dataset>  (829) 
ChEMBL_Kinases

>  <Ligand_Instance>  (829) 
nan

>  <PDB_ID>  (829) 
nan

>  <Standardized_SMILES>  (829) 
Cc1cnn(Cc2nc3cnc4ccc(C#N)cc4c3n2C2CN(C)CC2(F)F)n1

>  <Name>  (829) 
nan

>  <Pocket>  (829) 
nan

>  <ATP_Site>  (829) 
nan

>  <Peripheral>  (829) 
nan

>  <Num_H_Atoms_ProtBoundConf>  (829) 
nan

>  <Num_Resolved_Atoms>  (829) 
nan

>  <Num_Not_Resolved_Atoms>  (829) 
nan

$$$$
CHEMBL442282
     RDKit          3D

  0  0  0  0  0  0  0  0  0  0999 V3000
M  V30 BEGIN CTAB
M  V30 COUNTS 48 51 0 0 0
M  V30 BEGIN ATOM
M  V30 1 C -2.029583 -7.993025 -0.423719 0
M  V30 2 N -1.476237 -6.670924 -0.302170 0
M  V30 3 C -0.105875 -6.622560 -0.782630 0
M  V30 4 C 0.307871 -5.167192 -0.900047 0
M  V30 5 C -0.157903 -4.388895 0.327768 0
M  V30 6 O 0.759361 -3.377629 0.667151 0
M  V30 7 C 0.424766 -2.036079 0.669491 0
M  V30 8 C 1.556252 -1.300345 1.050131 0
M  V30 9 C 1.509899 0.096093 1.139526 0
M  V30 10 C 0.344915 0.779627 0.853653 0
M  V30 11 C 0.213958 2.235948 0.922505 0
M  V30 12 N 1.252546 3.023783 1.281521 0
M  V30 13 C 0.852909 4.322317 1.261178 0
M  V30 14 C 1.519219 5.499629 1.540738 0
M  V30 15 C 0.746711 6.616943 1.398877 0
M  V30 16 C 1.382938 7.898002 1.677079 0
M  V30 17 N 2.752361 8.033966 2.085055 0
M  V30 18 O 1.205820 9.121002 1.714475 0
M  V30 19 C -0.575491 6.692682 1.021251 0
M  V30 20 C -1.195563 5.467007 0.751471 0
M  V30 21 C -0.473096 4.282346 0.873772 0
M  V30 22 N -0.857418 3.011022 0.668990 0
M  V30 23 C -0.754894 0.035454 0.481567 0
M  V30 24 C -0.730970 -1.340089 0.387277 0
M  V30 25 C -0.383100 -5.361012 1.467157 0
M  V30 26 C -1.559058 -6.255262 1.082377 0
M  V30 27 H -1.437398 -8.567838 -1.173251 0
M  V30 28 H -3.102894 -8.006811 -0.699857 0
M  V30 29 H -1.936799 -8.580697 0.517343 0
M  V30 30 H 0.589661 -7.076506 -0.048354 0
M  V30 31 H -0.025462 -7.082823 -1.769898 0
M  V30 32 H 1.404483 -5.101263 -0.962672 0
M  V30 33 H -0.113508 -4.699102 -1.794075 0
M  V30 34 H -1.158437 -3.993595 0.072033 0
M  V30 35 H 2.558487 -1.670441 1.311937 0
M  V30 36 H 2.345181 0.714115 1.425635 0
M  V30 37 H 2.554979 5.534475 1.844028 0
M  V30 38 H 3.693111 8.339877 1.716038 0
M  V30 39 H 3.395593 7.893853 2.897185 0
M  V30 40 H -1.102292 7.627050 0.937158 0
M  V30 41 H -2.233206 5.494332 0.452334 0
M  V30 42 H -1.806627 2.644571 0.367398 0
M  V30 43 H -1.719443 0.482410 0.235940 0
M  V30 44 H -1.523538 -2.010223 0.109027 0
M  V30 45 H 0.528408 -5.931115 1.689797 0
M  V30 46 H -0.677024 -4.839206 2.399684 0
M  V30 47 H -2.493452 -5.755527 1.350833 0
M  V30 48 H -1.526138 -7.185559 1.702017 0
M  V30 END ATOM
M  V30 BEGIN BOND
M  V30 1 1 1 2
M  V30 2 1 2 3
M  V30 3 1 3 4
M  V30 4 1 4 5
M  V30 5 1 5 6
M  V30 6 1 6 7
M  V30 7 2 7 8
M  V30 8 1 8 9
M  V30 9 2 9 10
M  V30 10 1 10 11
M  V30 11 2 11 12
M  V30 12 1 12 13
M  V30 13 2 13 14
M  V30 14 1 14 15
M  V30 15 1 15 16
M  V30 16 1 16 17
M  V30 17 2 16 18
M  V30 18 2 15 19
M  V30 19 1 19 20
M  V30 20 2 20 21
M  V30 21 1 21 22
M  V30 22 1 10 23
M  V30 23 2 23 24
M  V30 24 1 5 25
M  V30 25 1 25 26
M  V30 26 1 26 2
M  V30 27 1 24 7
M  V30 28 1 22 11
M  V30 29 1 21 13
M  V30 30 1 1 27
M  V30 31 1 1 28
M  V30 32 1 1 29
M  V30 33 1 3 30
M  V30 34 1 3 31
M  V30 35 1 4 32
M  V30 36 1 4 33
M  V30 37 1 5 34
M  V30 38 1 8 35
M  V30 39 1 9 36
M  V30 40 1 14 37
M  V30 41 1 17 38
M  V30 42 1 17 39
M  V30 43 1 19 40
M  V30 44 1 20 41
M  V30 45 1 22 42
M  V30 46 1 23 43
M  V30 47 1 24 44
M  V30 48 1 25 45
M  V30 49 1 25 46
M  V30 50 1 26 47
M  V30 51 1 26 48
M  V30 END BOND
M  V30 END CTAB
M  END
>  <Dataset>  (830) 
ChEMBL_Kinases

>  <Ligand_Instance>  (830) 
nan

>  <PDB_ID>  (830) 
nan

>  <Standardized_SMILES>  (830) 
CN1CCC(Oc2ccc(-c3nc4cc(C(N)=O)ccc4[nH]3)cc2)CC1

>  <Name>  (830) 
nan

>  <Pocket>  (830) 
nan

>  <ATP_Site>  (830) 
nan

>  <Peripheral>  (830) 
nan

>  <Num_H_Atoms_ProtBoundConf>  (830) 
nan

>  <Num_Resolved_Atoms>  (830) 
nan

>  <Num_Not_Resolved_Atoms>  (830) 
nan

$$$$
CHEMBL442232
     RDKit          3D

  0  0  0  0  0  0  0  0  0  0999 V3000
M  V30 BEGIN CTAB
M  V30 COUNTS 63 63 0 0 0
M  V30 BEGIN ATOM
M  V30 1 C 1.587995 -4.078368 5.513937 0
M  V30 2 C 1.991584 -3.026357 4.435724 0
M  V30 3 C 1.994338 -1.715151 5.183233 0
M  V30 4 C 0.992913 -3.093268 3.346685 0
M  V30 5 C 1.174369 -2.212220 2.181555 0
M  V30 6 C 1.160093 -0.706166 2.439183 0
M  V30 7 C 1.351319 0.003700 1.145746 0
M  V30 8 C 0.669097 0.920790 0.517110 0
M  V30 9 O 0.814709 1.588701 -0.666070 0
M  V30 10 C -0.038214 2.698838 -0.650071 0
M  V30 11 C 0.699894 3.919866 -0.088791 0
M  V30 12 O 1.124731 3.654813 1.206485 0
M  V30 13 C -0.595275 3.113860 -1.967562 0
M  V30 14 O -1.374245 2.178494 -2.642485 0
M  V30 15 C -0.943077 0.967978 -3.080593 0
M  V30 16 O 0.222730 0.529357 -2.938096 0
M  V30 17 C -1.974217 0.155750 -3.768565 0
M  V30 18 C -3.154774 -0.144511 -2.875237 0
M  V30 19 C -1.339509 -1.115324 -4.289891 0
M  V30 20 C -2.498658 0.968197 -4.933351 0
M  V30 21 O -1.076607 2.370255 0.285613 0
M  V30 22 C -0.550325 1.419674 1.139627 0
M  V30 23 O -1.109959 1.126521 2.224087 0
M  V30 24 C 0.601619 -2.631070 0.893947 0
M  V30 25 C -0.802039 -2.880466 0.639789 0
M  V30 26 C -1.435928 -3.979018 1.467337 0
M  V30 27 C -1.757445 -1.742630 0.471742 0
M  V30 28 H 2.432378 -4.317807 6.162663 0
M  V30 29 H 0.732521 -3.716003 6.103118 0
M  V30 30 H 1.250261 -4.987818 4.969237 0
M  V30 31 H 3.015664 -3.310925 4.141177 0
M  V30 32 H 2.028593 -1.907069 6.312967 0
M  V30 33 H 1.060700 -1.138085 5.077850 0
M  V30 34 H 2.928321 -1.123981 5.033536 0
M  V30 35 H -0.005376 -3.039438 3.831167 0
M  V30 36 H 1.022931 -4.152515 2.939565 0
M  V30 37 H 2.322621 -2.354552 1.987991 0
M  V30 38 H 2.012035 -0.358253 3.056890 0
M  V30 39 H 0.254857 -0.510261 2.974719 0
M  V30 40 H 2.269715 -0.340646 0.638653 0
M  V30 41 H 1.569717 4.141288 -0.751779 0
M  V30 42 H 0.052431 4.799767 -0.064100 0
M  V30 43 H 1.998928 3.224030 1.227398 0
M  V30 44 H -1.167792 4.051528 -1.794593 0
M  V30 45 H 0.287914 3.398492 -2.600930 0
M  V30 46 H -3.014500 0.225505 -1.833783 0
M  V30 47 H -3.277917 -1.262962 -2.824453 0
M  V30 48 H -4.112278 0.253561 -3.238754 0
M  V30 49 H -1.156999 -1.834686 -3.462508 0
M  V30 50 H -0.330879 -0.822287 -4.664591 0
M  V30 51 H -1.915091 -1.545504 -5.113973 0
M  V30 52 H -3.136797 0.274733 -5.520977 0
M  V30 53 H -3.083389 1.829574 -4.541489 0
M  V30 54 H -1.619414 1.331770 -5.491133 0
M  V30 55 H 1.014380 -1.918235 0.117549 0
M  V30 56 H 1.137532 -3.593051 0.598147 0
M  V30 57 H -0.825336 -3.362026 -0.400361 0
M  V30 58 H -1.807873 -3.650879 2.453390 0
M  V30 59 H -0.767326 -4.839946 1.543705 0
M  V30 60 H -2.362512 -4.296725 0.886293 0
M  V30 61 H -2.122638 -1.245881 1.351698 0
M  V30 62 H -2.678802 -2.155517 -0.040821 0
M  V30 63 H -1.397163 -0.970006 -0.234265 0
M  V30 END ATOM
M  V30 BEGIN BOND
M  V30 1 1 1 2
M  V30 2 1 2 3
M  V30 3 1 2 4
M  V30 4 1 4 5
M  V30 5 1 5 6
M  V30 6 1 6 7
M  V30 7 2 7 8
M  V30 8 1 8 9
M  V30 9 1 9 10
M  V30 10 1 10 11
M  V30 11 1 11 12
M  V30 12 1 10 13
M  V30 13 1 13 14
M  V30 14 1 14 15
M  V30 15 2 15 16
M  V30 16 1 15 17
M  V30 17 1 17 18
M  V30 18 1 17 19
M  V30 19 1 17 20
M  V30 20 1 10 21
M  V30 21 1 21 22
M  V30 22 2 22 23
M  V30 23 1 5 24
M  V30 24 1 24 25
M  V30 25 1 25 26
M  V30 26 1 25 27
M  V30 27 1 22 8
M  V30 28 1 1 28
M  V30 29 1 1 29
M  V30 30 1 1 30
M  V30 31 1 2 31
M  V30 32 1 3 32
M  V30 33 1 3 33
M  V30 34 1 3 34
M  V30 35 1 4 35
M  V30 36 1 4 36
M  V30 37 1 5 37
M  V30 38 1 6 38
M  V30 39 1 6 39
M  V30 40 1 7 40
M  V30 41 1 11 41
M  V30 42 1 11 42
M  V30 43 1 12 43
M  V30 44 1 13 44
M  V30 45 1 13 45
M  V30 46 1 18 46
M  V30 47 1 18 47
M  V30 48 1 18 48
M  V30 49 1 19 49
M  V30 50 1 19 50
M  V30 51 1 19 51
M  V30 52 1 20 52
M  V30 53 1 20 53
M  V30 54 1 20 54
M  V30 55 1 24 55
M  V30 56 1 24 56
M  V30 57 1 25 57
M  V30 58 1 26 58
M  V30 59 1 26 59
M  V30 60 1 26 60
M  V30 61 1 27 61
M  V30 62 1 27 62
M  V30 63 1 27 63
M  V30 END BOND
M  V30 END CTAB
M  END
>  <Dataset>  (831) 
ChEMBL_Kinases

>  <Ligand_Instance>  (831) 
nan

>  <PDB_ID>  (831) 
nan

>  <Standardized_SMILES>  (831) 
CC(C)CC(C/C=C1/OC(CO)(COC(=O)C(C)(C)C)OC1=O)CC(C)C

>  <Name>  (831) 
nan

>  <Pocket>  (831) 
nan

>  <ATP_Site>  (831) 
nan

>  <Peripheral>  (831) 
nan

>  <Num_H_Atoms_ProtBoundConf>  (831) 
nan

>  <Num_Resolved_Atoms>  (831) 
nan

>  <Num_Not_Resolved_Atoms>  (831) 
nan

$$$$
CHEMBL4753926
     RDKit          3D

  0  0  0  0  0  0  0  0  0  0999 V3000
M  V30 BEGIN CTAB
M  V30 COUNTS 43 46 0 0 0
M  V30 BEGIN ATOM
M  V30 1 O -1.307553 -8.102069 0.189856 0
M  V30 2 C -1.781307 -7.284089 -0.668870 0
M  V30 3 O -3.155842 -7.443334 -0.792684 0
M  V30 4 C -0.669487 -6.464823 -1.214256 0
M  V30 5 S -1.218047 -5.260046 -2.449920 0
M  V30 6 C 0.199182 -4.315343 -3.052419 0
M  V30 7 N 0.984367 -4.653936 -4.113962 0
M  V30 8 C 1.984090 -3.772570 -4.357453 0
M  V30 9 N 2.269944 -2.663109 -3.703189 0
M  V30 10 C 1.513162 -2.278099 -2.630530 0
M  V30 11 C 1.658124 -1.188695 -1.854169 0
M  V30 12 C 0.831175 -0.973485 -0.855649 0
M  V30 13 C 0.677538 0.069505 0.176558 0
M  V30 14 C -0.329336 0.002225 1.113675 0
M  V30 15 C -0.463847 0.982170 2.074226 0
M  V30 16 C 0.399379 2.054334 2.127809 0
M  V30 17 N 0.305510 3.089638 3.097165 0
M  V30 18 C 1.129324 4.272316 3.241807 0
M  V30 19 C 1.876585 4.108004 4.571589 0
M  V30 20 O 0.916149 4.296821 5.564692 0
M  V30 21 C -0.046077 3.325109 5.532359 0
M  V30 22 C -0.674337 3.146969 4.160724 0
M  V30 23 C 1.401233 2.106977 1.183298 0
M  V30 24 C 1.553553 1.130483 0.208046 0
M  V30 25 S -0.265737 -2.359486 -0.942093 0
M  V30 26 C 0.489660 -3.121858 -2.331765 0
M  V30 27 H -3.711937 -7.539526 0.063704 0
M  V30 28 H 0.127289 -7.146634 -1.604034 0
M  V30 29 H -0.174429 -5.878223 -0.388196 0
M  V30 30 H 2.617893 -4.043475 -5.212263 0
M  V30 31 H 2.437765 -0.416298 -1.972186 0
M  V30 32 H -1.022171 -0.825707 1.098212 0
M  V30 33 H -1.259740 0.874921 2.768565 0
M  V30 34 H 0.520661 5.207581 3.261891 0
M  V30 35 H 1.895487 4.296837 2.467778 0
M  V30 36 H 2.283444 3.092594 4.590994 0
M  V30 37 H 2.670597 4.846114 4.677097 0
M  V30 38 H -0.886222 3.690770 6.190410 0
M  V30 39 H 0.351336 2.389206 5.945671 0
M  V30 40 H -1.276186 4.087700 3.983008 0
M  V30 41 H -1.349916 2.269393 4.196877 0
M  V30 42 H 2.147187 2.872511 1.093939 0
M  V30 43 H 2.326503 1.139247 -0.547519 0
M  V30 END ATOM
M  V30 BEGIN BOND
M  V30 1 2 1 2
M  V30 2 1 2 3
M  V30 3 1 2 4
M  V30 4 1 4 5
M  V30 5 1 5 6
M  V30 6 2 6 7
M  V30 7 1 7 8
M  V30 8 2 8 9
M  V30 9 1 9 10
M  V30 10 1 10 11
M  V30 11 2 11 12
M  V30 12 1 12 13
M  V30 13 2 13 14
M  V30 14 1 14 15
M  V30 15 2 15 16
M  V30 16 1 16 17
M  V30 17 1 17 18
M  V30 18 1 18 19
M  V30 19 1 19 20
M  V30 20 1 20 21
M  V30 21 1 21 22
M  V30 22 1 16 23
M  V30 23 2 23 24
M  V30 24 1 12 25
M  V30 25 1 25 26
M  V30 26 1 26 6
M  V30 27 2 26 10
M  V30 28 1 24 13
M  V30 29 1 22 17
M  V30 30 1 3 27
M  V30 31 1 4 28
M  V30 32 1 4 29
M  V30 33 1 8 30
M  V30 34 1 11 31
M  V30 35 1 14 32
M  V30 36 1 15 33
M  V30 37 1 18 34
M  V30 38 1 18 35
M  V30 39 1 19 36
M  V30 40 1 19 37
M  V30 41 1 21 38
M  V30 42 1 21 39
M  V30 43 1 22 40
M  V30 44 1 22 41
M  V30 45 1 23 42
M  V30 46 1 24 43
M  V30 END BOND
M  V30 END CTAB
M  END
>  <Dataset>  (832) 
ChEMBL_Kinases

>  <Ligand_Instance>  (832) 
nan

>  <PDB_ID>  (832) 
nan

>  <Standardized_SMILES>  (832) 
O=C(O)CSc1ncnc2cc(-c3ccc(N4CCOCC4)cc3)sc12

>  <Name>  (832) 
nan

>  <Pocket>  (832) 
nan

>  <ATP_Site>  (832) 
nan

>  <Peripheral>  (832) 
nan

>  <Num_H_Atoms_ProtBoundConf>  (832) 
nan

>  <Num_Resolved_Atoms>  (832) 
nan

>  <Num_Not_Resolved_Atoms>  (832) 
nan

$$$$
CHEMBL4753929
     RDKit          3D

  0  0  0  0  0  0  0  0  0  0999 V3000
M  V30 BEGIN CTAB
M  V30 COUNTS 37 40 0 0 0
M  V30 BEGIN ATOM
M  V30 1 O -1.302198 -2.783499 2.283811 0
M  V30 2 C -0.450311 -1.882262 2.090507 0
M  V30 3 C 0.852108 -2.079482 2.499252 0
M  V30 4 C 1.170990 -3.268185 3.109193 0
M  V30 5 C 2.482772 -3.429923 3.504349 0
M  V30 6 C 3.486873 -2.471778 3.323087 0
M  V30 7 C 3.107261 -1.300007 2.705768 0
M  V30 8 F 4.162968 -0.489590 2.603184 0
M  V30 9 C 1.813172 -1.127247 2.310043 0
M  V30 10 N 1.462633 -0.006039 1.722498 0
M  V30 11 C 2.155004 1.081826 1.407536 0
M  V30 12 S 3.673774 1.602474 1.549223 0
M  V30 13 N 1.325549 1.950886 0.815505 0
M  V30 14 N 0.098224 1.406215 0.756334 0
M  V30 15 C 0.200558 0.190723 1.323880 0
M  V30 16 N -0.793665 -0.728876 1.490282 0
M  V30 17 C -2.157678 -0.584830 1.088129 0
M  V30 18 C -2.422557 -1.087262 -0.313679 0
M  V30 19 C -1.595428 -0.340039 -1.296090 0
M  V30 20 C -2.056411 0.821675 -1.889966 0
M  V30 21 C -1.251070 1.472228 -2.793506 0
M  V30 22 C 0.007489 1.026003 -3.146028 0
M  V30 23 C 0.446077 -0.148836 -2.530623 0
M  V30 24 C -0.326795 -0.837067 -1.617226 0
M  V30 25 H 0.424422 -4.013908 3.258867 0
M  V30 26 H 2.706032 -4.373132 3.981008 0
M  V30 27 H 4.472437 -2.771299 3.699556 0
M  V30 28 H 1.384056 2.912051 0.401025 0
M  V30 29 H -2.884226 -0.985367 1.798617 0
M  V30 30 H -2.377273 0.521741 1.036220 0
M  V30 31 H -3.483159 -1.002935 -0.570536 0
M  V30 32 H -2.153450 -2.159019 -0.427220 0
M  V30 33 H -3.030442 1.173843 -1.622086 0
M  V30 34 H -1.677781 2.374511 -3.217895 0
M  V30 35 H 0.591586 1.584771 -3.864316 0
M  V30 36 H 1.440778 -0.465615 -2.835232 0
M  V30 37 H 0.095327 -1.739176 -1.190499 0
M  V30 END ATOM
M  V30 BEGIN BOND
M  V30 1 2 1 2
M  V30 2 1 2 3
M  V30 3 2 3 4
M  V30 4 1 4 5
M  V30 5 2 5 6
M  V30 6 1 6 7
M  V30 7 1 7 8
M  V30 8 2 7 9
M  V30 9 1 9 10
M  V30 10 1 10 11
M  V30 11 2 11 12
M  V30 12 1 11 13
M  V30 13 1 13 14
M  V30 14 2 14 15
M  V30 15 1 15 16
M  V30 16 1 16 17
M  V30 17 1 17 18
M  V30 18 1 18 19
M  V30 19 2 19 20
M  V30 20 1 20 21
M  V30 21 2 21 22
M  V30 22 1 22 23
M  V30 23 2 23 24
M  V30 24 1 16 2
M  V30 25 1 24 19
M  V30 26 1 9 3
M  V30 27 1 15 10
M  V30 28 1 4 25
M  V30 29 1 5 26
M  V30 30 1 6 27
M  V30 31 1 13 28
M  V30 32 1 17 29
M  V30 33 1 17 30
M  V30 34 1 18 31
M  V30 35 1 18 32
M  V30 36 1 20 33
M  V30 37 1 21 34
M  V30 38 1 22 35
M  V30 39 1 23 36
M  V30 40 1 24 37
M  V30 END BOND
M  V30 END CTAB
M  END
>  <Dataset>  (833) 
ChEMBL_Kinases

>  <Ligand_Instance>  (833) 
nan

>  <PDB_ID>  (833) 
nan

>  <Standardized_SMILES>  (833) 
O=c1c2cccc(F)c2n2c(=S)[nH]nc2n1CCc1ccccc1

>  <Name>  (833) 
nan

>  <Pocket>  (833) 
nan

>  <ATP_Site>  (833) 
nan

>  <Peripheral>  (833) 
nan

>  <Num_H_Atoms_ProtBoundConf>  (833) 
nan

>  <Num_Resolved_Atoms>  (833) 
nan

>  <Num_Not_Resolved_Atoms>  (833) 
nan

$$$$
CHEMBL4753946
     RDKit          3D

  0  0  0  0  0  0  0  0  0  0999 V3000
M  V30 BEGIN CTAB
M  V30 COUNTS 59 63 0 0 0
M  V30 BEGIN ATOM
M  V30 1 C 0.028199 -0.626902 6.211147 0
M  V30 2 O 0.711672 -1.809991 6.585624 0
M  V30 3 C 1.337619 -2.621337 5.658821 0
M  V30 4 C 1.339803 -2.330945 4.288768 0
M  V30 5 C 1.981988 -3.170650 3.368451 0
M  V30 6 C 1.940631 -2.812005 1.968650 0
M  V30 7 C 1.909894 -1.455980 1.721371 0
M  V30 8 N 1.868801 -1.018429 0.455597 0
M  V30 9 C 1.855367 -1.814585 -0.627617 0
M  V30 10 C 1.818360 -1.421372 -1.937734 0
M  V30 11 N 1.759522 -0.102167 -2.547710 0
M  V30 12 C 2.626449 1.033085 -2.595175 0
M  V30 13 C 2.029243 2.203590 -1.894039 0
M  V30 14 C 0.611396 1.911048 -1.502973 0
M  V30 15 C -0.159040 1.395682 -2.704971 0
M  V30 16 C -1.477023 0.894311 -2.225695 0
M  V30 17 N -2.313142 1.849804 -1.570696 0
M  V30 18 S -3.782447 1.015282 -1.113897 0
M  V30 19 O -3.347320 -0.178471 -0.282644 0
M  V30 20 O -4.715793 1.889058 -0.362781 0
M  V30 21 C -4.537622 0.453892 -2.623561 0
M  V30 22 C -5.586929 1.315293 -3.264916 0
M  V30 23 C -5.995670 0.087417 -2.496811 0
M  V30 24 C 0.591447 0.230950 -3.335782 0
M  V30 25 S 1.823862 -2.826931 -2.921577 0
M  V30 26 N 1.878738 -4.025434 -1.482611 0
M  V30 27 C 1.885958 -3.172634 -0.424479 0
M  V30 28 C 1.927771 -3.642951 0.870711 0
M  V30 29 C 2.625885 -4.311768 3.841286 0
M  V30 30 C 2.649275 -4.638367 5.186368 0
M  V30 31 C 1.998299 -3.769452 6.035543 0
M  V30 32 N 1.992797 -4.062119 7.426379 0
M  V30 33 H -0.792631 -0.901786 5.494811 0
M  V30 34 H 0.700065 0.067511 5.670980 0
M  V30 35 H -0.371671 -0.142996 7.117778 0
M  V30 36 H 0.805744 -1.411263 4.024370 0
M  V30 37 H 1.918129 -0.670924 2.492177 0
M  V30 38 H 3.556505 0.716302 -2.022858 0
M  V30 39 H 2.979113 1.269057 -3.625198 0
M  V30 40 H 2.619159 2.496253 -0.987263 0
M  V30 41 H 2.028816 3.092203 -2.590064 0
M  V30 42 H 0.112328 2.797762 -1.054372 0
M  V30 43 H 0.622381 1.139456 -0.712493 0
M  V30 44 H -0.245617 2.214972 -3.437860 0
M  V30 45 H -2.031023 0.482274 -3.103976 0
M  V30 46 H -1.285330 0.054613 -1.507895 0
M  V30 47 H -1.885629 2.175335 -0.660365 0
M  V30 48 H -3.953613 -0.235723 -3.264799 0
M  V30 49 H -5.757235 2.299037 -2.767022 0
M  V30 50 H -5.700157 1.266890 -4.355639 0
M  V30 51 H -6.510738 0.241351 -1.526729 0
M  V30 52 H -6.373928 -0.787883 -3.074469 0
M  V30 53 H -0.102736 -0.622247 -3.399422 0
M  V30 54 H 0.870312 0.500900 -4.370785 0
M  V30 55 H 1.953508 -4.688398 1.137037 0
M  V30 56 H 3.130796 -4.973478 3.138141 0
M  V30 57 H 3.148716 -5.532132 5.579010 0
M  V30 58 H 1.648624 -3.415515 8.171393 0
M  V30 59 H 2.306991 -4.913432 7.942013 0
M  V30 END ATOM
M  V30 BEGIN BOND
M  V30 1 1 1 2
M  V30 2 1 2 3
M  V30 3 2 3 4
M  V30 4 1 4 5
M  V30 5 1 5 6
M  V30 6 1 6 7
M  V30 7 2 7 8
M  V30 8 1 8 9
M  V30 9 2 9 10
M  V30 10 1 10 11
M  V30 11 1 11 12
M  V30 12 1 12 13
M  V30 13 1 13 14
M  V30 14 1 14 15
M  V30 15 1 15 16
M  V30 16 1 16 17
M  V30 17 1 17 18
M  V30 18 2 18 19
M  V30 19 2 18 20
M  V30 20 1 18 21
M  V30 21 1 21 22
M  V30 22 1 22 23
M  V30 23 1 15 24
M  V30 24 1 10 25
M  V30 25 1 25 26
M  V30 26 2 26 27
M  V30 27 1 27 28
M  V30 28 2 5 29
M  V30 29 1 29 30
M  V30 30 2 30 31
M  V30 31 1 31 32
M  V30 32 1 31 3
M  V30 33 2 28 6
M  V30 34 1 27 9
M  V30 35 1 24 11
M  V30 36 1 23 21
M  V30 37 1 1 33
M  V30 38 1 1 34
M  V30 39 1 1 35
M  V30 40 1 4 36
M  V30 41 1 7 37
M  V30 42 1 12 38
M  V30 43 1 12 39
M  V30 44 1 13 40
M  V30 45 1 13 41
M  V30 46 1 14 42
M  V30 47 1 14 43
M  V30 48 1 15 44
M  V30 49 1 16 45
M  V30 50 1 16 46
M  V30 51 1 17 47
M  V30 52 1 21 48
M  V30 53 1 22 49
M  V30 54 1 22 50
M  V30 55 1 23 51
M  V30 56 1 23 52
M  V30 57 1 24 53
M  V30 58 1 24 54
M  V30 59 1 28 55
M  V30 60 1 29 56
M  V30 61 1 30 57
M  V30 62 1 32 58
M  V30 63 1 32 59
M  V30 END BOND
M  V30 END CTAB
M  END
>  <Dataset>  (834) 
ChEMBL_Kinases

>  <Ligand_Instance>  (834) 
nan

>  <PDB_ID>  (834) 
nan

>  <Standardized_SMILES>  (834) 
COc1cc(-c2cnc3c(N4CCCC(CNS(=O)(=O)C5CC5)C4)snc3c2)ccc1N

>  <Name>  (834) 
nan

>  <Pocket>  (834) 
nan

>  <ATP_Site>  (834) 
nan

>  <Peripheral>  (834) 
nan

>  <Num_H_Atoms_ProtBoundConf>  (834) 
nan

>  <Num_Resolved_Atoms>  (834) 
nan

>  <Num_Not_Resolved_Atoms>  (834) 
nan

$$$$
CHEMBL4753983
     RDKit          3D

  0  0  0  0  0  0  0  0  0  0999 V3000
M  V30 BEGIN CTAB
M  V30 COUNTS 52 55 0 0 0
M  V30 BEGIN ATOM
M  V30 1 C 3.534345 0.422844 3.577412 0
M  V30 2 C 3.942134 -0.735659 2.718374 0
M  V30 3 C 4.792050 -1.660638 3.568769 0
M  V30 4 N 4.687019 -0.367779 1.545969 0
M  V30 5 C 5.885209 -0.863486 1.137144 0
M  V30 6 N 6.244456 -0.253569 -0.015627 0
M  V30 7 N 5.311855 0.621796 -0.362230 0
M  V30 8 C 4.376928 0.532811 0.602931 0
M  V30 9 C 3.178847 1.357750 0.564368 0
M  V30 10 C 3.363975 2.723324 0.493901 0
M  V30 11 C 2.203121 3.492402 0.457809 0
M  V30 12 C 0.936285 2.916021 0.490919 0
M  V30 13 C 0.804293 1.543502 0.561562 0
M  V30 14 N -0.455769 0.878780 0.599019 0
M  V30 15 C -0.519928 -0.539262 0.672301 0
M  V30 16 O 0.569306 -1.183922 0.702942 0
M  V30 17 C -1.812864 -1.280111 0.713512 0
M  V30 18 C -2.661234 -0.805611 -0.426303 0
M  V30 19 N -3.344526 -1.946251 -1.004385 0
M  V30 20 C -4.750165 -2.121808 -1.096807 0
M  V30 21 C -5.623197 -1.168027 -0.631028 0
M  V30 22 C -6.993314 -1.339108 -0.720311 0
M  V30 23 C -7.462777 -2.502209 -1.294071 0
M  V30 24 N -6.613365 -3.434636 -1.749421 0
M  V30 25 C -5.282154 -3.258946 -1.657994 0
M  V30 26 C -2.345957 -2.887254 -1.476411 0
M  V30 27 C -1.737694 -3.430292 -0.212442 0
M  V30 28 O -1.491936 -2.584367 0.779720 0
M  V30 29 N 1.942757 0.825489 0.595114 0
M  V30 30 H 3.449415 0.050578 4.627128 0
M  V30 31 H 2.530563 0.821344 3.339636 0
M  V30 32 H 4.316795 1.221425 3.616916 0
M  V30 33 H 3.012672 -1.305287 2.467350 0
M  V30 34 H 4.125183 -2.018106 4.393899 0
M  V30 35 H 5.545389 -1.005329 4.056966 0
M  V30 36 H 5.249883 -2.480035 2.991740 0
M  V30 37 H 6.480416 -1.608205 1.611068 0
M  V30 38 H 4.357555 3.149906 0.469331 0
M  V30 39 H 2.274026 4.555709 0.403237 0
M  V30 40 H 0.040510 3.522939 0.462329 0
M  V30 41 H -1.333663 1.447307 0.571871 0
M  V30 42 H -2.384572 -1.035793 1.646978 0
M  V30 43 H -3.310681 0.013384 -0.121684 0
M  V30 44 H -1.992151 -0.377603 -1.220493 0
M  V30 45 H -5.307522 -0.246414 -0.176535 0
M  V30 46 H -7.684238 -0.575195 -0.347214 0
M  V30 47 H -8.536131 -2.632128 -1.361939 0
M  V30 48 H -4.710587 -4.061572 -2.050023 0
M  V30 49 H -2.728051 -3.709549 -2.075497 0
M  V30 50 H -1.518458 -2.378758 -2.049944 0
M  V30 51 H -0.790950 -3.938094 -0.525588 0
M  V30 52 H -2.398760 -4.258851 0.119421 0
M  V30 END ATOM
M  V30 BEGIN BOND
M  V30 1 1 1 2
M  V30 2 1 2 3
M  V30 3 1 2 4
M  V30 4 1 4 5
M  V30 5 2 5 6
M  V30 6 1 6 7
M  V30 7 2 7 8
M  V30 8 1 8 9
M  V30 9 2 9 10
M  V30 10 1 10 11
M  V30 11 2 11 12
M  V30 12 1 12 13
M  V30 13 1 13 14
M  V30 14 1 14 15
M  V30 15 2 15 16
M  V30 16 1 15 17
M  V30 17 1 17 18
M  V30 18 1 18 19
M  V30 19 1 19 20
M  V30 20 2 20 21
M  V30 21 1 21 22
M  V30 22 2 22 23
M  V30 23 1 23 24
M  V30 24 2 24 25
M  V30 25 1 19 26
M  V30 26 1 26 27
M  V30 27 1 27 28
M  V30 28 2 13 29
M  V30 29 1 8 4
M  V30 30 1 29 9
M  V30 31 1 28 17
M  V30 32 1 25 20
M  V30 33 1 1 30
M  V30 34 1 1 31
M  V30 35 1 1 32
M  V30 36 1 2 33
M  V30 37 1 3 34
M  V30 38 1 3 35
M  V30 39 1 3 36
M  V30 40 1 5 37
M  V30 41 1 10 38
M  V30 42 1 11 39
M  V30 43 1 12 40
M  V30 44 1 14 41
M  V30 45 1 17 42
M  V30 46 1 18 43
M  V30 47 1 18 44
M  V30 48 1 21 45
M  V30 49 1 22 46
M  V30 50 1 23 47
M  V30 51 1 25 48
M  V30 52 1 26 49
M  V30 53 1 26 50
M  V30 54 1 27 51
M  V30 55 1 27 52
M  V30 END BOND
M  V30 END CTAB
M  END
>  <Dataset>  (835) 
ChEMBL_Kinases

>  <Ligand_Instance>  (835) 
nan

>  <PDB_ID>  (835) 
nan

>  <Standardized_SMILES>  (835) 
CC(C)n1cnnc1-c1cccc(NC(=O)C2CN(c3cccnc3)CCO2)n1

>  <Name>  (835) 
nan

>  <Pocket>  (835) 
nan

>  <ATP_Site>  (835) 
nan

>  <Peripheral>  (835) 
nan

>  <Num_H_Atoms_ProtBoundConf>  (835) 
nan

>  <Num_Resolved_Atoms>  (835) 
nan

>  <Num_Not_Resolved_Atoms>  (835) 
nan

$$$$
CHEMBL442009
     RDKit          3D

  0  0  0  0  0  0  0  0  0  0999 V3000
M  V30 BEGIN CTAB
M  V30 COUNTS 63 67 0 0 0
M  V30 BEGIN ATOM
M  V30 1 O 3.152380 -1.145585 -0.520380 0
M  V30 2 C 2.986393 -1.664312 0.640193 0
M  V30 3 O 3.365852 -1.626826 2.001079 0
M  V30 4 C 2.113857 -1.628969 2.714446 0
M  V30 5 C 2.316664 -1.887454 4.172435 0
M  V30 6 O 3.122780 -0.948823 4.807259 0
M  V30 7 C 1.454354 -0.356944 2.371395 0
M  V30 8 O 0.198310 -0.165849 2.998187 0
M  V30 9 C -0.554796 0.982286 2.756075 0
M  V30 10 O 0.127779 1.632377 1.959438 0
M  V30 11 C -1.840527 1.388670 3.273739 0
M  V30 12 C -2.231130 2.618579 2.727561 0
M  V30 13 C -3.441399 3.193974 3.089275 0
M  V30 14 C -4.266920 2.540796 3.999544 0
M  V30 15 C -5.530147 3.190089 4.334409 0
M  V30 16 C -6.567552 2.336899 4.643524 0
M  V30 17 C -7.811280 2.832018 4.971300 0
M  V30 18 C -8.032030 4.214960 4.993413 0
M  V30 19 C -6.953703 5.046773 4.673919 0
M  V30 20 C -5.684092 4.559295 4.338543 0
M  V30 21 C -3.859001 1.328323 4.524607 0
M  V30 22 C -2.654297 0.744226 4.171882 0
M  V30 23 C 1.497866 -2.857939 2.083739 0
M  V30 24 C 2.010934 -2.775335 0.693017 0
M  V30 25 C 1.615331 -3.604303 -0.285203 0
M  V30 26 C 2.107169 -3.558400 -1.658283 0
M  V30 27 C 3.371190 -3.465087 -2.130268 0
M  V30 28 C 3.653842 -3.394597 -3.477694 0
M  V30 29 C 2.667986 -3.414784 -4.442872 0
M  V30 30 C 2.941567 -3.333610 -5.866227 0
M  V30 31 C 4.046770 -3.821774 -6.530829 0
M  V30 32 C 4.144169 -3.643603 -7.905692 0
M  V30 33 C 3.166539 -2.988066 -8.651915 0
M  V30 34 C 2.045462 -2.489688 -7.998744 0
M  V30 35 C 1.974280 -2.680365 -6.632013 0
M  V30 36 C 1.350972 -3.512209 -3.984953 0
M  V30 37 C 1.093809 -3.581087 -2.631140 0
M  V30 38 H 1.297112 -1.907751 4.639512 0
M  V30 39 H 2.725784 -2.907549 4.279380 0
M  V30 40 H 3.956315 -1.409901 5.075465 0
M  V30 41 H 1.319119 -0.313689 1.266148 0
M  V30 42 H 2.129922 0.477083 2.642709 0
M  V30 43 H -1.656760 3.216992 2.003717 0
M  V30 44 H -3.759330 4.159777 2.665406 0
M  V30 45 H -6.484599 1.257580 4.651236 0
M  V30 46 H -8.716299 2.280429 5.235913 0
M  V30 47 H -8.972932 4.667602 5.239015 0
M  V30 48 H -7.133559 6.124319 4.694099 0
M  V30 49 H -4.863181 5.207069 4.093572 0
M  V30 50 H -4.494181 0.819798 5.228221 0
M  V30 51 H -2.284137 -0.184452 4.542842 0
M  V30 52 H 0.417397 -2.936640 2.180482 0
M  V30 53 H 2.051372 -3.725182 2.541788 0
M  V30 54 H 0.868531 -4.389813 -0.079662 0
M  V30 55 H 4.146816 -3.461939 -1.405754 0
M  V30 56 H 4.686285 -3.319567 -3.789979 0
M  V30 57 H 4.781910 -4.323417 -5.924727 0
M  V30 58 H 5.025321 -4.033071 -8.423052 0
M  V30 59 H 3.268190 -2.860909 -9.734795 0
M  V30 60 H 1.299049 -1.986517 -8.577505 0
M  V30 61 H 1.060371 -2.256640 -6.185062 0
M  V30 62 H 0.529422 -3.535082 -4.702286 0
M  V30 63 H 0.047214 -3.654756 -2.359155 0
M  V30 END ATOM
M  V30 BEGIN BOND
M  V30 1 2 1 2
M  V30 2 1 2 3
M  V30 3 1 3 4
M  V30 4 1 4 5
M  V30 5 1 5 6
M  V30 6 1 4 7
M  V30 7 1 7 8
M  V30 8 1 8 9
M  V30 9 2 9 10
M  V30 10 1 9 11
M  V30 11 2 11 12
M  V30 12 1 12 13
M  V30 13 2 13 14
M  V30 14 1 14 15
M  V30 15 2 15 16
M  V30 16 1 16 17
M  V30 17 2 17 18
M  V30 18 1 18 19
M  V30 19 2 19 20
M  V30 20 1 14 21
M  V30 21 2 21 22
M  V30 22 1 4 23
M  V30 23 1 23 24
M  V30 24 2 24 25
M  V30 25 1 25 26
M  V30 26 2 26 27
M  V30 27 1 27 28
M  V30 28 2 28 29
M  V30 29 1 29 30
M  V30 30 2 30 31
M  V30 31 1 31 32
M  V30 32 2 32 33
M  V30 33 1 33 34
M  V30 34 2 34 35
M  V30 35 1 29 36
M  V30 36 2 36 37
M  V30 37 1 24 2
M  V30 38 1 37 26
M  V30 39 1 22 11
M  V30 40 1 35 30
M  V30 41 1 20 15
M  V30 42 1 5 38
M  V30 43 1 5 39
M  V30 44 1 6 40
M  V30 45 1 7 41
M  V30 46 1 7 42
M  V30 47 1 12 43
M  V30 48 1 13 44
M  V30 49 1 16 45
M  V30 50 1 17 46
M  V30 51 1 18 47
M  V30 52 1 19 48
M  V30 53 1 20 49
M  V30 54 1 21 50
M  V30 55 1 22 51
M  V30 56 1 23 52
M  V30 57 1 23 53
M  V30 58 1 25 54
M  V30 59 1 27 55
M  V30 60 1 28 56
M  V30 61 1 31 57
M  V30 62 1 32 58
M  V30 63 1 33 59
M  V30 64 1 34 60
M  V30 65 1 35 61
M  V30 66 1 36 62
M  V30 67 1 37 63
M  V30 END BOND
M  V30 END CTAB
M  END
>  <Dataset>  (836) 
ChEMBL_Kinases

>  <Ligand_Instance>  (836) 
nan

>  <PDB_ID>  (836) 
nan

>  <Standardized_SMILES>  (836) 
O=C1OC(CO)(COC(=O)c2ccc(-c3ccccc3)cc2)C/C1=C/c1ccc(-c2ccccc2)cc1

>  <Name>  (836) 
nan

>  <Pocket>  (836) 
nan

>  <ATP_Site>  (836) 
nan

>  <Peripheral>  (836) 
nan

>  <Num_H_Atoms_ProtBoundConf>  (836) 
nan

>  <Num_Resolved_Atoms>  (836) 
nan

>  <Num_Not_Resolved_Atoms>  (836) 
nan

$$$$
CHEMBL441913
     RDKit          3D

  0  0  0  0  0  0  0  0  0  0999 V3000
M  V30 BEGIN CTAB
M  V30 COUNTS 34 36 0 0 0
M  V30 BEGIN ATOM
M  V30 1 N 1.930021 -3.278171 4.083763 0
M  V30 2 C 1.457296 -2.436952 3.449778 0
M  V30 3 C 0.862107 -1.383672 2.684619 0
M  V30 4 C 0.636735 -1.553763 1.312803 0
M  V30 5 C 1.013284 -2.807375 0.670275 0
M  V30 6 C 2.160022 -3.541951 0.783552 0
M  V30 7 C 2.322211 -4.711064 0.085397 0
M  V30 8 C 1.291997 -5.150845 -0.753705 0
M  V30 9 C 0.136124 -4.440196 -0.887879 0
M  V30 10 C -0.016406 -3.248505 -0.169469 0
M  V30 11 C 0.060385 -0.502661 0.635283 0
M  V30 12 C -0.320343 0.700785 1.157299 0
M  V30 13 C -0.924818 1.806931 0.453806 0
M  V30 14 C -1.243567 2.948991 1.146946 0
M  V30 15 C -1.822508 4.055137 0.562146 0
M  V30 16 C -2.119644 4.067025 -0.796493 0
M  V30 17 C -1.815535 2.939038 -1.530881 0
M  V30 18 C -1.238626 1.873965 -0.877315 0
M  V30 19 O -0.974281 0.795722 -1.701824 0
M  V30 20 N -0.084360 0.807740 2.458037 0
M  V30 21 C 0.471117 -0.150190 3.216055 0
M  V30 22 O 0.709855 -0.088158 4.444044 0
M  V30 23 H 2.880608 -3.101674 1.458791 0
M  V30 24 H 3.268620 -5.221426 0.243200 0
M  V30 25 H 1.563134 -6.090825 -1.240681 0
M  V30 26 H -0.558160 -4.888293 -1.555102 0
M  V30 27 H -0.970339 -2.763791 -0.348442 0
M  V30 28 H -0.075960 -0.709908 -0.393234 0
M  V30 29 H -1.098355 3.145242 2.195713 0
M  V30 30 H -2.090395 4.969088 1.057325 0
M  V30 31 H -2.572460 4.913959 -1.288620 0
M  V30 32 H -2.042059 2.937411 -2.587023 0
M  V30 33 H -0.515328 0.947840 -2.590543 0
M  V30 34 H -0.281983 1.617065 3.080621 0
M  V30 END ATOM
M  V30 BEGIN BOND
M  V30 1 3 1 2
M  V30 2 1 2 3
M  V30 3 2 3 4
M  V30 4 1 4 5
M  V30 5 2 5 6
M  V30 6 1 6 7
M  V30 7 2 7 8
M  V30 8 1 8 9
M  V30 9 2 9 10
M  V30 10 1 4 11
M  V30 11 2 11 12
M  V30 12 1 12 13
M  V30 13 2 13 14
M  V30 14 1 14 15
M  V30 15 2 15 16
M  V30 16 1 16 17
M  V30 17 2 17 18
M  V30 18 1 18 19
M  V30 19 1 12 20
M  V30 20 1 20 21
M  V30 21 2 21 22
M  V30 22 1 21 3
M  V30 23 1 10 5
M  V30 24 1 18 13
M  V30 25 1 6 23
M  V30 26 1 7 24
M  V30 27 1 8 25
M  V30 28 1 9 26
M  V30 29 1 10 27
M  V30 30 1 11 28
M  V30 31 1 14 29
M  V30 32 1 15 30
M  V30 33 1 16 31
M  V30 34 1 17 32
M  V30 35 1 19 33
M  V30 36 1 20 34
M  V30 END BOND
M  V30 END CTAB
M  END
>  <Dataset>  (837) 
ChEMBL_Kinases

>  <Ligand_Instance>  (837) 
nan

>  <PDB_ID>  (837) 
nan

>  <Standardized_SMILES>  (837) 
N#Cc1c(-c2ccccc2)cc(-c2ccccc2O)[nH]c1=O

>  <Name>  (837) 
nan

>  <Pocket>  (837) 
nan

>  <ATP_Site>  (837) 
nan

>  <Peripheral>  (837) 
nan

>  <Num_H_Atoms_ProtBoundConf>  (837) 
nan

>  <Num_Resolved_Atoms>  (837) 
nan

>  <Num_Not_Resolved_Atoms>  (837) 
nan

$$$$
CHEMBL441911
     RDKit          3D

  0  0  0  0  0  0  0  0  0  0999 V3000
M  V30 BEGIN CTAB
M  V30 COUNTS 31 33 0 0 0
M  V30 BEGIN ATOM
M  V30 1 N 0.184872 -3.959572 4.572538 0
M  V30 2 S -0.739371 -4.156156 3.107358 0
M  V30 3 O -2.081215 -3.533029 3.246282 0
M  V30 4 O -0.807944 -5.654348 2.872727 0
M  V30 5 C 0.144459 -3.499985 1.740667 0
M  V30 6 C 1.019398 -4.179159 0.922081 0
M  V30 7 C 1.653457 -3.543023 -0.126704 0
M  V30 8 C 1.414793 -2.186533 -0.376397 0
M  V30 9 C 0.534969 -1.522244 0.454532 0
M  V30 10 C -0.118246 -2.150692 1.523162 0
M  V30 11 C 0.451607 -0.133026 -0.000975 0
M  V30 12 C -0.267011 0.877877 0.452583 0
M  V30 13 C -0.317090 2.246945 -0.027460 0
M  V30 14 C 0.530653 3.268617 -0.391205 0
M  V30 15 C -0.170972 4.373890 -0.810940 0
M  V30 16 C -1.499868 4.039584 -0.708668 0
M  V30 17 N -1.559937 2.770948 -0.240350 0
M  V30 18 C 1.328525 -0.026890 -1.140293 0
M  V30 19 O 1.564739 0.968345 -1.840599 0
M  V30 20 N 1.914546 -1.291412 -1.362386 0
M  V30 21 H 0.907241 -3.217343 4.448660 0
M  V30 22 H -0.403878 -3.695640 5.382419 0
M  V30 23 H 1.147090 -5.219471 1.180644 0
M  V30 24 H 2.328957 -4.124277 -0.736664 0
M  V30 25 H -0.788956 -1.550405 2.118606 0
M  V30 26 H -0.894364 0.581475 1.314969 0
M  V30 27 H 1.596295 3.126673 -0.305937 0
M  V30 28 H 0.296603 5.292464 -1.145201 0
M  V30 29 H -2.283197 4.731287 -0.975472 0
M  V30 30 H -2.534166 2.368265 -0.105686 0
M  V30 31 H 2.602648 -1.527477 -2.126829 0
M  V30 END ATOM
M  V30 BEGIN BOND
M  V30 1 1 1 2
M  V30 2 2 2 3
M  V30 3 2 2 4
M  V30 4 1 2 5
M  V30 5 2 5 6
M  V30 6 1 6 7
M  V30 7 2 7 8
M  V30 8 1 8 9
M  V30 9 2 9 10
M  V30 10 1 9 11
M  V30 11 2 11 12
M  V30 12 1 12 13
M  V30 13 2 13 14
M  V30 14 1 14 15
M  V30 15 2 15 16
M  V30 16 1 16 17
M  V30 17 1 11 18
M  V30 18 2 18 19
M  V30 19 1 18 20
M  V30 20 1 10 5
M  V30 21 1 17 13
M  V30 22 1 20 8
M  V30 23 1 1 21
M  V30 24 1 1 22
M  V30 25 1 6 23
M  V30 26 1 7 24
M  V30 27 1 10 25
M  V30 28 1 12 26
M  V30 29 1 14 27
M  V30 30 1 15 28
M  V30 31 1 16 29
M  V30 32 1 17 30
M  V30 33 1 20 31
M  V30 END BOND
M  V30 END CTAB
M  END
>  <Dataset>  (838) 
ChEMBL_Kinases

>  <Ligand_Instance>  (838) 
nan

>  <PDB_ID>  (838) 
nan

>  <Standardized_SMILES>  (838) 
NS(=O)(=O)c1ccc2c(c1)/C(=C/c1ccc[nH]1)C(=O)N2

>  <Name>  (838) 
nan

>  <Pocket>  (838) 
nan

>  <ATP_Site>  (838) 
nan

>  <Peripheral>  (838) 
nan

>  <Num_H_Atoms_ProtBoundConf>  (838) 
nan

>  <Num_Resolved_Atoms>  (838) 
nan

>  <Num_Not_Resolved_Atoms>  (838) 
nan

$$$$
CHEMBL441853
     RDKit          3D

  0  0  0  0  0  0  0  0  0  0999 V3000
M  V30 BEGIN CTAB
M  V30 COUNTS 45 48 0 0 0
M  V30 BEGIN ATOM
M  V30 1 C 1.559524 -2.990091 3.293189 0
M  V30 2 N 1.871515 -1.584453 3.031853 0
M  V30 3 C 2.826462 -0.898004 3.878534 0
M  V30 4 C 1.242799 -0.898377 1.955620 0
M  V30 5 N 1.526306 0.406678 1.708425 0
M  V30 6 C 0.947535 1.096905 0.689213 0
M  V30 7 C 1.364249 2.485370 0.588995 0
M  V30 8 C 1.968096 3.196280 -0.424036 0
M  V30 9 C 2.305672 4.515063 -0.336570 0
M  V30 10 C 2.035142 5.198146 0.830248 0
M  V30 11 C 1.423230 4.518573 1.887386 0
M  V30 12 C 1.095567 3.176470 1.757484 0
M  V30 13 Cl 0.342748 2.565065 3.215458 0
M  V30 14 C 0.046255 0.448187 -0.114132 0
M  V30 15 C -0.211912 -0.876303 0.173067 0
M  V30 16 N 0.360537 -1.559793 1.180695 0
M  V30 17 N -1.142515 -1.632253 -0.600106 0
M  V30 18 C -1.455730 -3.002841 -0.358811 0
M  V30 19 C -0.824667 -4.106519 -0.898027 0
M  V30 20 Cl 0.499582 -3.754400 -1.992471 0
M  V30 21 C -1.227429 -5.381288 -0.581984 0
M  V30 22 C -2.279322 -5.601615 0.287726 0
M  V30 23 C -2.900110 -4.478820 0.818806 0
M  V30 24 C -2.526983 -3.169026 0.527655 0
M  V30 25 Cl -3.396430 -1.827294 1.267875 0
M  V30 26 C -1.822963 -1.019587 -1.688142 0
M  V30 27 O -2.659360 -1.584156 -2.435134 0
M  V30 28 N -1.531877 0.346228 -1.952189 0
M  V30 29 C -0.594065 1.169985 -1.204642 0
M  V30 30 H 0.472427 -3.040959 3.525851 0
M  V30 31 H 1.838432 -3.630085 2.421590 0
M  V30 32 H 2.142380 -3.344317 4.153320 0
M  V30 33 H 2.567501 -1.138918 4.936108 0
M  V30 34 H 2.800025 0.188522 3.680747 0
M  V30 35 H 3.866706 -1.269087 3.726934 0
M  V30 36 H 2.161482 2.600424 -1.303185 0
M  V30 37 H 2.777687 4.948321 -1.216508 0
M  V30 38 H 2.322995 6.246037 0.852249 0
M  V30 39 H 1.266786 5.159512 2.736519 0
M  V30 40 H -0.714357 -6.219795 -1.019595 0
M  V30 41 H -2.618749 -6.586899 0.555106 0
M  V30 42 H -3.734917 -4.630987 1.509067 0
M  V30 43 H -1.989215 0.892074 -2.740350 0
M  V30 44 H -1.242846 1.958677 -0.725824 0
M  V30 45 H 0.070639 1.736345 -1.877871 0
M  V30 END ATOM
M  V30 BEGIN BOND
M  V30 1 1 1 2
M  V30 2 1 2 3
M  V30 3 1 2 4
M  V30 4 2 4 5
M  V30 5 1 5 6
M  V30 6 1 6 7
M  V30 7 2 7 8
M  V30 8 1 8 9
M  V30 9 2 9 10
M  V30 10 1 10 11
M  V30 11 2 11 12
M  V30 12 1 12 13
M  V30 13 2 6 14
M  V30 14 1 14 15
M  V30 15 2 15 16
M  V30 16 1 15 17
M  V30 17 1 17 18
M  V30 18 2 18 19
M  V30 19 1 19 20
M  V30 20 1 19 21
M  V30 21 2 21 22
M  V30 22 1 22 23
M  V30 23 2 23 24
M  V30 24 1 24 25
M  V30 25 1 17 26
M  V30 26 2 26 27
M  V30 27 1 26 28
M  V30 28 1 28 29
M  V30 29 1 16 4
M  V30 30 1 24 18
M  V30 31 1 12 7
M  V30 32 1 29 14
M  V30 33 1 1 30
M  V30 34 1 1 31
M  V30 35 1 1 32
M  V30 36 1 3 33
M  V30 37 1 3 34
M  V30 38 1 3 35
M  V30 39 1 8 36
M  V30 40 1 9 37
M  V30 41 1 10 38
M  V30 42 1 11 39
M  V30 43 1 21 40
M  V30 44 1 22 41
M  V30 45 1 23 42
M  V30 46 1 28 43
M  V30 47 1 29 44
M  V30 48 1 29 45
M  V30 END BOND
M  V30 END CTAB
M  END
>  <Dataset>  (839) 
ChEMBL_Kinases

>  <Ligand_Instance>  (839) 
nan

>  <PDB_ID>  (839) 
nan

>  <Standardized_SMILES>  (839) 
CN(C)c1nc(-c2ccccc2Cl)c2c(n1)N(c1c(Cl)cccc1Cl)C(=O)NC2

>  <Name>  (839) 
nan

>  <Pocket>  (839) 
nan

>  <ATP_Site>  (839) 
nan

>  <Peripheral>  (839) 
nan

>  <Num_H_Atoms_ProtBoundConf>  (839) 
nan

>  <Num_Resolved_Atoms>  (839) 
nan

>  <Num_Not_Resolved_Atoms>  (839) 
nan

$$$$
CHEMBL441811
     RDKit          3D

  0  0  0  0  0  0  0  0  0  0999 V3000
M  V30 BEGIN CTAB
M  V30 COUNTS 48 51 0 0 0
M  V30 BEGIN ATOM
M  V30 1 C -0.230597 2.495724 3.398752 0
M  V30 2 S 0.508308 1.234896 2.429643 0 CHG=1 VAL=3
M  V30 3 O -0.345721 -0.187527 2.604006 0 CHG=-1 VAL=1
M  V30 4 C 2.199869 0.997320 2.791518 0
M  V30 5 C 2.428941 0.059820 3.776519 0
M  V30 6 C 3.768075 -0.144979 4.131958 0
M  V30 7 C 4.747332 0.581772 3.494154 0
M  V30 8 C 4.459609 1.513357 2.508950 0
M  V30 9 C 3.138837 1.746537 2.125236 0
M  V30 10 C 2.859542 2.717337 1.065437 0
M  V30 11 S 2.620940 2.047173 -0.566744 0
M  V30 12 C 1.166126 1.040191 -0.627520 0
M  V30 13 N -0.000458 1.672489 -0.900860 0
M  V30 14 C -1.172404 1.021715 -0.999097 0
M  V30 15 C -1.232131 -0.364299 -0.819056 0
M  V30 16 C -2.526097 -0.995210 -0.937270 0
M  V30 17 C -2.662155 -1.925091 -1.946288 0
M  V30 18 C -3.856042 -2.607571 -2.167041 0
M  V30 19 C -4.947771 -2.357564 -1.359480 0
M  V30 20 F -6.166757 -2.959891 -1.478341 0
M  V30 21 C -4.831208 -1.422604 -0.334747 0
M  V30 22 C -3.639310 -0.771749 -0.149990 0
M  V30 23 C -0.031032 -0.990519 -0.541458 0
M  V30 24 C -0.119080 -2.432830 -0.359509 0
M  V30 25 C -0.763583 -3.172359 0.614479 0
M  V30 26 C -0.706647 -4.549751 0.571314 0
M  V30 27 N -0.041161 -5.201951 -0.391387 0
M  V30 28 C 0.606153 -4.527307 -1.366850 0
M  V30 29 C 0.567978 -3.145496 -1.351859 0
M  V30 30 N 1.115995 -0.297417 -0.452432 0
M  V30 31 H 0.455337 2.938438 4.149562 0
M  V30 32 H -1.077005 2.067837 3.966793 0
M  V30 33 H -0.652293 3.334493 2.802072 0
M  V30 34 H 1.670010 -0.504633 4.275039 0
M  V30 35 H 4.062956 -0.853133 4.891657 0
M  V30 36 H 5.820796 0.497629 3.696196 0
M  V30 37 H 5.237229 2.095276 1.998243 0
M  V30 38 H 3.731766 3.424619 1.009241 0
M  V30 39 H 1.952343 3.301149 1.426099 0
M  V30 40 H -2.071575 1.574869 -1.218861 0
M  V30 41 H -1.884105 -2.228862 -2.662994 0
M  V30 42 H -4.005971 -3.339447 -2.941109 0
M  V30 43 H -5.665270 -1.204539 0.311942 0
M  V30 44 H -3.507124 -0.029810 0.641044 0
M  V30 45 H -1.263224 -2.538145 1.336020 0
M  V30 46 H -1.246070 -5.038943 1.382791 0
M  V30 47 H 1.151016 -5.069865 -2.154886 0
M  V30 48 H 1.119660 -2.668363 -2.176165 0
M  V30 END ATOM
M  V30 BEGIN BOND
M  V30 1 1 1 2
M  V30 2 1 2 3
M  V30 3 1 2 4
M  V30 4 2 4 5
M  V30 5 1 5 6
M  V30 6 2 6 7
M  V30 7 1 7 8
M  V30 8 2 8 9
M  V30 9 1 9 10
M  V30 10 1 10 11
M  V30 11 1 11 12
M  V30 12 2 12 13
M  V30 13 1 13 14
M  V30 14 2 14 15
M  V30 15 1 15 16
M  V30 16 2 16 17
M  V30 17 1 17 18
M  V30 18 2 18 19
M  V30 19 1 19 20
M  V30 20 1 19 21
M  V30 21 2 21 22
M  V30 22 1 15 23
M  V30 23 1 23 24
M  V30 24 2 24 25
M  V30 25 1 25 26
M  V30 26 2 26 27
M  V30 27 1 27 28
M  V30 28 2 28 29
M  V30 29 2 23 30
M  V30 30 1 9 4
M  V30 31 1 30 12
M  V30 32 1 22 16
M  V30 33 1 29 24
M  V30 34 1 1 31
M  V30 35 1 1 32
M  V30 36 1 1 33
M  V30 37 1 5 34
M  V30 38 1 6 35
M  V30 39 1 7 36
M  V30 40 1 8 37
M  V30 41 1 10 38
M  V30 42 1 10 39
M  V30 43 1 14 40
M  V30 44 1 17 41
M  V30 45 1 18 42
M  V30 46 1 21 43
M  V30 47 1 22 44
M  V30 48 1 25 45
M  V30 49 1 26 46
M  V30 50 1 28 47
M  V30 51 1 29 48
M  V30 END BOND
M  V30 END CTAB
M  END
>  <Dataset>  (840) 
ChEMBL_Kinases

>  <Ligand_Instance>  (840) 
nan

>  <PDB_ID>  (840) 
nan

>  <Standardized_SMILES>  (840) 
C[S+]([O-])c1ccccc1CSc1ncc(-c2ccc(F)cc2)c(-c2ccncc2)n1

>  <Name>  (840) 
nan

>  <Pocket>  (840) 
nan

>  <ATP_Site>  (840) 
nan

>  <Peripheral>  (840) 
nan

>  <Num_H_Atoms_ProtBoundConf>  (840) 
nan

>  <Num_Resolved_Atoms>  (840) 
nan

>  <Num_Not_Resolved_Atoms>  (840) 
nan

$$$$
CHEMBL475400
     RDKit          3D

  0  0  0  0  0  0  0  0  0  0999 V3000
M  V30 BEGIN CTAB
M  V30 COUNTS 30 33 0 0 0
M  V30 BEGIN ATOM
M  V30 1 O -2.311392 -5.198696 1.253779 0
M  V30 2 C -1.929716 -3.986472 1.344414 0
M  V30 3 C -2.595382 -3.101317 2.365455 0
M  V30 4 C -1.596462 -1.934901 2.356811 0 CFG=1
M  V30 5 O -0.532931 -2.309526 3.121553 0
M  V30 6 C 0.717709 -2.117076 2.613548 0
M  V30 7 C 0.812888 -1.105841 1.535162 0
M  V30 8 C -0.169479 -0.960116 0.639775 0
M  V30 9 C -0.224484 -0.010602 -0.480052 0
M  V30 10 O -1.252998 -0.037295 -1.213812 0
M  V30 11 C 0.937212 0.872062 -0.620024 0
M  V30 12 C 0.883063 1.763203 -1.672880 0
M  V30 13 C 1.967397 2.626271 -1.848062 0
M  V30 14 C 3.012742 2.521010 -0.951869 0
M  V30 15 C 3.070672 1.629329 0.104412 0
M  V30 16 C 1.983369 0.767441 0.276045 0
M  V30 17 C 1.971118 -0.201993 1.368539 0
M  V30 18 O 2.924710 -0.293521 2.180957 0
M  V30 19 C -1.304398 -1.899016 0.863575 0 CFG=1
M  V30 20 O -0.954199 -3.246191 0.649076 0
M  V30 21 H -2.673702 -3.585844 3.342103 0
M  V30 22 H -3.545880 -2.672172 1.976284 0
M  V30 23 H -2.095968 -1.003331 2.691051 0
M  V30 24 H 1.433404 -1.780524 3.404743 0
M  V30 25 H 1.101237 -3.086538 2.227456 0
M  V30 26 H 0.033530 1.800563 -2.346448 0
M  V30 27 H 1.980633 3.345751 -2.655765 0
M  V30 28 H 3.870206 3.181950 -1.065943 0
M  V30 29 H 3.904478 1.584808 0.774426 0
M  V30 30 H -2.214504 -1.578559 0.348593 0
M  V30 END ATOM
M  V30 BEGIN BOND
M  V30 1 2 1 2
M  V30 2 1 2 3
M  V30 3 1 3 4
M  V30 4 1 4 5
M  V30 5 1 5 6
M  V30 6 1 6 7
M  V30 7 2 7 8
M  V30 8 1 8 9
M  V30 9 2 9 10
M  V30 10 1 9 11
M  V30 11 2 11 12
M  V30 12 1 12 13
M  V30 13 2 13 14
M  V30 14 1 14 15
M  V30 15 2 15 16
M  V30 16 1 16 17
M  V30 17 2 17 18
M  V30 18 1 8 19
M  V30 19 1 19 20
M  V30 20 1 20 2
M  V30 21 1 19 4
M  V30 22 1 17 7
M  V30 23 1 16 11
M  V30 24 1 3 21
M  V30 25 1 3 22
M  V30 26 1 4 23 CFG=1
M  V30 27 1 6 24
M  V30 28 1 6 25
M  V30 29 1 12 26
M  V30 30 1 13 27
M  V30 31 1 14 28
M  V30 32 1 15 29
M  V30 33 1 19 30 CFG=3
M  V30 END BOND
M  V30 END CTAB
M  END
>  <Dataset>  (841) 
ChEMBL_Kinases

>  <Ligand_Instance>  (841) 
nan

>  <PDB_ID>  (841) 
nan

>  <Standardized_SMILES>  (841) 
O=C1C[C@H]2OCC3=C(C(=O)c4ccccc4C3=O)[C@H]2O1

>  <Name>  (841) 
nan

>  <Pocket>  (841) 
nan

>  <ATP_Site>  (841) 
nan

>  <Peripheral>  (841) 
nan

>  <Num_H_Atoms_ProtBoundConf>  (841) 
nan

>  <Num_Resolved_Atoms>  (841) 
nan

>  <Num_Not_Resolved_Atoms>  (841) 
nan

$$$$
CHEMBL442419
     RDKit          3D

  0  0  0  0  0  0  0  0  0  0999 V3000
M  V30 BEGIN CTAB
M  V30 COUNTS 45 48 0 0 0
M  V30 BEGIN ATOM
M  V30 1 C 1.762659 -4.569609 -1.326770 0
M  V30 2 C 2.620363 -4.133035 -0.168695 0
M  V30 3 C 3.819103 -5.031103 0.027474 0
M  V30 4 N 4.775018 -4.878316 -1.054318 0
M  V30 5 C 5.233702 -3.560727 -1.341124 0
M  V30 6 O 6.363820 -3.337304 -1.846600 0
M  V30 7 C 4.340055 -2.449786 -1.027114 0
M  V30 8 N 4.453518 -1.114872 -1.165114 0
M  V30 9 C 3.290215 -0.585236 -0.695324 0
M  V30 10 C 2.882129 0.727844 -0.605449 0
M  V30 11 C 1.658490 1.109020 -0.099571 0
M  V30 12 C 0.801061 0.118594 0.338505 0
M  V30 13 C -0.534268 0.306341 0.905773 0
M  V30 14 O -1.344322 -0.568059 1.315598 0
M  V30 15 N -1.057690 1.620600 1.045660 0
M  V30 16 C -2.315559 2.029062 1.564656 0
M  V30 17 C -2.303014 2.268668 2.943656 0
M  V30 18 C -3.425551 2.673269 3.634295 0
M  V30 19 C -4.622625 2.856789 2.962385 0
M  V30 20 C -5.846953 3.284675 3.639339 0
M  V30 21 N -5.763815 3.512613 5.052848 0
M  V30 22 O -6.931541 3.450114 3.025935 0
M  V30 23 C -4.628759 2.619174 1.603868 0
M  V30 24 C -3.503967 2.214545 0.916291 0
M  V30 25 C 1.192123 -1.218403 0.257606 0
M  V30 26 C 2.434901 -1.583011 -0.257687 0
M  V30 27 C 3.114901 -2.764801 -0.474316 0
M  V30 28 H 1.288943 -3.667817 -1.758262 0
M  V30 29 H 2.362123 -5.039136 -2.134462 0
M  V30 30 H 1.006651 -5.327195 -1.034208 0
M  V30 31 H 2.009176 -4.155109 0.751839 0
M  V30 32 H 3.521637 -6.093455 0.162906 0
M  V30 33 H 4.324224 -4.678677 0.951656 0
M  V30 34 H 5.154764 -5.675018 -1.644130 0
M  V30 35 H 5.271187 -0.595092 -1.554631 0
M  V30 36 H 3.508890 1.553464 -0.932420 0
M  V30 37 H 1.302368 2.103804 -0.011077 0
M  V30 38 H -0.546149 2.485679 0.766045 0
M  V30 39 H -1.411838 2.152435 3.559762 0
M  V30 40 H -3.410130 2.857685 4.704008 0
M  V30 41 H -6.193046 2.702228 5.584903 0
M  V30 42 H -5.379367 4.289432 5.665781 0
M  V30 43 H -5.542356 2.748513 1.030163 0
M  V30 44 H -3.454916 2.014483 -0.149767 0
M  V30 45 H 0.552680 -2.046273 0.590231 0
M  V30 END ATOM
M  V30 BEGIN BOND
M  V30 1 1 1 2
M  V30 2 1 2 3
M  V30 3 1 3 4
M  V30 4 1 4 5
M  V30 5 2 5 6
M  V30 6 1 5 7
M  V30 7 1 7 8
M  V30 8 1 8 9
M  V30 9 2 9 10
M  V30 10 1 10 11
M  V30 11 2 11 12
M  V30 12 1 12 13
M  V30 13 2 13 14
M  V30 14 1 13 15
M  V30 15 1 15 16
M  V30 16 2 16 17
M  V30 17 1 17 18
M  V30 18 2 18 19
M  V30 19 1 19 20
M  V30 20 1 20 21
M  V30 21 2 20 22
M  V30 22 1 19 23
M  V30 23 2 23 24
M  V30 24 1 12 25
M  V30 25 2 25 26
M  V30 26 1 26 27
M  V30 27 1 27 2
M  V30 28 2 27 7
M  V30 29 1 26 9
M  V30 30 1 24 16
M  V30 31 1 1 28
M  V30 32 1 1 29
M  V30 33 1 1 30
M  V30 34 1 2 31
M  V30 35 1 3 32
M  V30 36 1 3 33
M  V30 37 1 4 34
M  V30 38 1 8 35
M  V30 39 1 10 36
M  V30 40 1 11 37
M  V30 41 1 15 38
M  V30 42 1 17 39
M  V30 43 1 18 40
M  V30 44 1 21 41
M  V30 45 1 21 42
M  V30 46 1 23 43
M  V30 47 1 24 44
M  V30 48 1 25 45
M  V30 END BOND
M  V30 END CTAB
M  END
>  <Dataset>  (842) 
ChEMBL_Kinases

>  <Ligand_Instance>  (842) 
nan

>  <PDB_ID>  (842) 
nan

>  <Standardized_SMILES>  (842) 
CC1CNC(=O)c2[nH]c3ccc(C(=O)Nc4ccc(C(N)=O)cc4)cc3c21

>  <Name>  (842) 
nan

>  <Pocket>  (842) 
nan

>  <ATP_Site>  (842) 
nan

>  <Peripheral>  (842) 
nan

>  <Num_H_Atoms_ProtBoundConf>  (842) 
nan

>  <Num_Resolved_Atoms>  (842) 
nan

>  <Num_Not_Resolved_Atoms>  (842) 
nan

$$$$
CHEMBL4753473
     RDKit          3D

  0  0  0  0  0  0  0  0  0  0999 V3000
M  V30 BEGIN CTAB
M  V30 COUNTS 58 64 0 0 0
M  V30 BEGIN ATOM
M  V30 1 C 2.900322 -3.675904 0.834679 0
M  V30 2 C 3.313092 -2.481218 -0.043642 0 CFG=2
M  V30 3 O 2.644956 -1.426720 0.477531 0
M  V30 4 C 1.327965 -1.266894 0.083254 0 CFG=1
M  V30 5 N 0.693572 -0.176871 0.794681 0
M  V30 6 C 1.352788 0.937028 1.233763 0
M  V30 7 C 2.714621 1.237664 1.075011 0
M  V30 8 C 3.253610 2.427726 1.579177 0
M  V30 9 C 2.378355 3.297873 2.243876 0
M  V30 10 C 1.051250 2.907464 2.346666 0
M  V30 11 C 0.472840 1.777757 1.883647 0
M  V30 12 C -0.756315 1.206764 1.863340 0
M  V30 13 C -1.965295 1.597292 2.347029 0
M  V30 14 C -3.080910 0.807312 2.180859 0
M  V30 15 C -2.948979 -0.373935 1.521212 0
M  V30 16 C -3.849701 -1.336709 1.207302 0
M  V30 17 C -5.183299 -1.599190 1.368039 0
M  V30 18 C -5.880792 -2.704059 0.931563 0
M  V30 19 C -5.199567 -3.686739 0.248651 0
M  V30 20 C -3.861271 -3.488880 0.052072 0
M  V30 21 C -3.196653 -2.341289 0.518978 0
M  V30 22 N -1.886731 -1.962727 0.425940 0
M  V30 23 C -1.723825 -0.771711 1.030084 0
M  V30 24 C -0.601000 0.012743 1.192775 0
M  V30 25 C -4.216469 1.470261 2.793709 0
M  V30 26 O -5.428458 1.199972 2.926608 0
M  V30 27 N -3.795289 2.721542 3.364426 0
M  V30 28 C -2.383091 2.781583 3.073756 0
M  V30 29 O -1.803699 3.808819 3.488954 0
M  V30 30 C 1.109674 -1.228403 -1.380432 0
M  V30 31 C 2.141452 -1.910090 -2.215919 0 CFG=1
M  V30 32 N 2.955013 -0.887106 -2.851695 0
M  V30 33 C 3.005111 -0.833105 -4.279305 0
M  V30 34 O 2.374504 -1.634113 -5.029339 0
M  V30 35 C 3.074074 -2.810117 -1.471982 0 CFG=1
M  V30 36 O 4.332456 -2.829793 -2.122495 0
M  V30 37 H 1.883350 -3.982153 0.516968 0
M  V30 38 H 3.017746 -3.442052 1.891928 0
M  V30 39 H 3.630386 -4.494744 0.568315 0
M  V30 40 H 4.419458 -2.427736 0.189088 0
M  V30 41 H 0.888629 -2.207907 0.475076 0
M  V30 42 H 3.470762 0.669259 0.592199 0
M  V30 43 H 4.285234 2.715241 1.490743 0
M  V30 44 H 2.763402 4.229343 2.647137 0
M  V30 45 H 0.473285 3.619432 2.857979 0
M  V30 46 H -5.790370 -0.895235 1.884118 0
M  V30 47 H -6.938552 -2.843448 1.096077 0
M  V30 48 H -5.692998 -4.562323 -0.110689 0
M  V30 49 H -3.343288 -4.283485 -0.492692 0
M  V30 50 H -1.236899 -2.607937 -0.072880 0
M  V30 51 H -4.392413 3.440960 3.884335 0
M  V30 52 H 0.118205 -1.590763 -1.715927 0
M  V30 53 H 1.043602 -0.127712 -1.642798 0
M  V30 54 H 1.689248 -2.485987 -3.051064 0
M  V30 55 H 3.533430 -0.153974 -2.409765 0
M  V30 56 H 3.567665 -0.126918 -4.902923 0
M  V30 57 H 2.736325 -3.865472 -1.559759 0
M  V30 58 H 4.284091 -3.380468 -2.940972 0
M  V30 END ATOM
M  V30 BEGIN BOND
M  V30 1 1 1 2
M  V30 2 1 2 3
M  V30 3 1 3 4
M  V30 4 1 4 5
M  V30 5 1 5 6
M  V30 6 2 6 7
M  V30 7 1 7 8
M  V30 8 2 8 9
M  V30 9 1 9 10
M  V30 10 2 10 11
M  V30 11 1 11 12
M  V30 12 2 12 13
M  V30 13 1 13 14
M  V30 14 2 14 15
M  V30 15 1 15 16
M  V30 16 2 16 17
M  V30 17 1 17 18
M  V30 18 2 18 19
M  V30 19 1 19 20
M  V30 20 2 20 21
M  V30 21 1 21 22
M  V30 22 1 22 23
M  V30 23 2 23 24
M  V30 24 1 14 25
M  V30 25 2 25 26
M  V30 26 1 25 27
M  V30 27 1 27 28
M  V30 28 2 28 29
M  V30 29 1 4 30
M  V30 30 1 30 31
M  V30 31 1 31 32
M  V30 32 1 32 33
M  V30 33 2 33 34
M  V30 34 1 31 35
M  V30 35 1 35 36
M  V30 36 1 35 2
M  V30 37 1 24 5
M  V30 38 1 11 6
M  V30 39 1 24 12
M  V30 40 1 28 13
M  V30 41 1 23 15
M  V30 42 1 21 16
M  V30 43 1 1 37
M  V30 44 1 1 38
M  V30 45 1 1 39
M  V30 46 1 2 40 CFG=3
M  V30 47 1 4 41 CFG=1
M  V30 48 1 7 42
M  V30 49 1 8 43
M  V30 50 1 9 44
M  V30 51 1 10 45
M  V30 52 1 17 46
M  V30 53 1 18 47
M  V30 54 1 19 48
M  V30 55 1 20 49
M  V30 56 1 22 50
M  V30 57 1 27 51
M  V30 58 1 30 52
M  V30 59 1 30 53
M  V30 60 1 31 54 CFG=3
M  V30 61 1 32 55
M  V30 62 1 33 56
M  V30 63 1 35 57 CFG=1
M  V30 64 1 36 58
M  V30 END BOND
M  V30 END CTAB
M  END
>  <Dataset>  (843) 
ChEMBL_Kinases

>  <Ligand_Instance>  (843) 
nan

>  <PDB_ID>  (843) 
nan

>  <Standardized_SMILES>  (843) 
C[C@@H]1O[C@@H](n2c3ccccc3c3c4c(c5c6ccccc6[nH]c5c32)C(=O)NC4=O)C[C@@H](NC=O)[C@H]1O

>  <Name>  (843) 
nan

>  <Pocket>  (843) 
nan

>  <ATP_Site>  (843) 
nan

>  <Peripheral>  (843) 
nan

>  <Num_H_Atoms_ProtBoundConf>  (843) 
nan

>  <Num_Resolved_Atoms>  (843) 
nan

>  <Num_Not_Resolved_Atoms>  (843) 
nan

$$$$
CHEMBL4435362
     RDKit          3D

  0  0  0  0  0  0  0  0  0  0999 V3000
M  V30 BEGIN CTAB
M  V30 COUNTS 48 53 0 0 0
M  V30 BEGIN ATOM
M  V30 1 F 3.579177 -6.336162 -4.800708 0
M  V30 2 C 2.990507 -5.449492 -3.962462 0
M  V30 3 C 3.775704 -4.701366 -3.080358 0
M  V30 4 C 3.155830 -3.789788 -2.220359 0
M  V30 5 C 1.806231 -3.610266 -2.218270 0
M  V30 6 C 1.185212 -2.644950 -1.302212 0
M  V30 7 N 1.271647 -2.742782 0.057354 0
M  V30 8 C 0.593153 -1.699486 0.594795 0
M  V30 9 C 0.377810 -1.340283 1.914889 0
M  V30 10 C -0.377263 -0.187526 2.174696 0
M  V30 11 C -0.873150 0.539244 1.110825 0
M  V30 12 N -1.638729 1.707422 1.386237 0
M  V30 13 C -1.912194 2.153600 2.766008 0
M  V30 14 C -3.012111 3.165911 2.524582 0
M  V30 15 C -2.348010 3.898579 1.355686 0
M  V30 16 C -2.264903 2.637037 0.483335 0
M  V30 17 C -3.734226 2.300850 0.473518 0
M  V30 18 N -4.087927 2.481324 1.887065 0
M  V30 19 N -0.640815 0.155446 -0.158716 0
M  V30 20 N 0.079783 -0.944985 -0.421260 0
M  V30 21 C 0.439955 -1.520498 -1.593567 0
M  V30 22 C 0.123641 -1.072663 -2.919686 0
M  V30 23 C 1.020927 -0.667466 -3.885840 0
M  V30 24 C 0.649256 -0.246698 -5.146572 0
M  V30 25 N -0.677317 -0.226403 -5.465601 0
M  V30 26 C -1.606043 -0.612372 -4.559874 0
M  V30 27 C -1.206404 -1.032960 -3.294187 0
M  V30 28 C 1.006146 -4.337240 -3.080538 0
M  V30 29 C 1.624295 -5.244266 -3.936049 0
M  V30 30 H 4.851449 -4.813384 -3.049795 0
M  V30 31 H 3.798996 -3.233850 -1.556504 0
M  V30 32 H 0.759829 -1.899803 2.752641 0
M  V30 33 H -0.537156 0.080528 3.212587 0
M  V30 34 H -0.998175 2.652831 3.113322 0
M  V30 35 H -2.272901 1.332157 3.390923 0
M  V30 36 H -3.258925 3.790208 3.356464 0
M  V30 37 H -2.994262 4.669916 0.926942 0
M  V30 38 H -1.354916 4.232887 1.674358 0
M  V30 39 H -1.795841 2.789456 -0.476434 0
M  V30 40 H -4.320811 3.024947 -0.138330 0
M  V30 41 H -3.971701 1.296316 0.122384 0
M  V30 42 H -5.020318 2.895603 2.014128 0
M  V30 43 H 2.078985 -0.697496 -3.592288 0
M  V30 44 H 1.380634 0.065448 -5.883318 0
M  V30 45 H -2.653960 -0.593128 -4.820605 0
M  V30 46 H -2.012160 -1.326733 -2.623561 0
M  V30 47 H -0.071969 -4.218741 -3.104764 0
M  V30 48 H 1.058063 -5.850856 -4.641920 0
M  V30 END ATOM
M  V30 BEGIN BOND
M  V30 1 1 1 2
M  V30 2 2 2 3
M  V30 3 1 3 4
M  V30 4 2 4 5
M  V30 5 1 5 6
M  V30 6 1 6 7
M  V30 7 2 7 8
M  V30 8 1 8 9
M  V30 9 2 9 10
M  V30 10 1 10 11
M  V30 11 1 11 12
M  V30 12 1 12 13
M  V30 13 1 13 14
M  V30 14 1 14 15
M  V30 15 1 15 16
M  V30 16 1 16 17
M  V30 17 1 17 18
M  V30 18 2 11 19
M  V30 19 1 19 20
M  V30 20 1 20 21
M  V30 21 1 21 22
M  V30 22 2 22 23
M  V30 23 1 23 24
M  V30 24 2 24 25
M  V30 25 1 25 26
M  V30 26 2 26 27
M  V30 27 1 5 28
M  V30 28 2 28 29
M  V30 29 1 29 2
M  V30 30 2 21 6
M  V30 31 1 27 22
M  V30 32 1 20 8
M  V30 33 1 16 12
M  V30 34 1 18 14
M  V30 35 1 3 30
M  V30 36 1 4 31
M  V30 37 1 9 32
M  V30 38 1 10 33
M  V30 39 1 13 34
M  V30 40 1 13 35
M  V30 41 1 14 36
M  V30 42 1 15 37
M  V30 43 1 15 38
M  V30 44 1 16 39
M  V30 45 1 17 40
M  V30 46 1 17 41
M  V30 47 1 18 42
M  V30 48 1 23 43
M  V30 49 1 24 44
M  V30 50 1 26 45
M  V30 51 1 27 46
M  V30 52 1 28 47
M  V30 53 1 29 48
M  V30 END BOND
M  V30 END CTAB
M  END
>  <Dataset>  (844) 
ChEMBL_Kinases

>  <Ligand_Instance>  (844) 
nan

>  <PDB_ID>  (844) 
nan

>  <Standardized_SMILES>  (844) 
Fc1ccc(-c2nc3ccc(N4CC5CC4CN5)nn3c2-c2ccncc2)cc1

>  <Name>  (844) 
nan

>  <Pocket>  (844) 
nan

>  <ATP_Site>  (844) 
nan

>  <Peripheral>  (844) 
nan

>  <Num_H_Atoms_ProtBoundConf>  (844) 
nan

>  <Num_Resolved_Atoms>  (844) 
nan

>  <Num_Not_Resolved_Atoms>  (844) 
nan

$$$$
CHEMBL4435359
     RDKit          3D

  0  0  0  0  0  0  0  0  0  0999 V3000
M  V30 BEGIN CTAB
M  V30 COUNTS 36 38 0 0 0
M  V30 BEGIN ATOM
M  V30 1 C -0.327226 -3.522421 2.611300 0
M  V30 2 C 0.300871 -2.247972 2.173459 0
M  V30 3 N 1.325168 -1.726553 2.895172 0
M  V30 4 C 1.875937 -0.578058 2.486175 0
M  V30 5 C 1.435940 0.078852 1.367288 0
M  V30 6 C 2.108947 1.323759 1.012812 0
M  V30 7 C 2.162553 1.605670 -0.349606 0
M  V30 8 C 2.780308 2.764587 -0.790253 0
M  V30 9 F 2.859640 3.087342 -2.116767 0
M  V30 10 C 3.355292 3.663105 0.114584 0
M  V30 11 O 3.987843 4.841412 -0.276295 0
M  V30 12 C 3.262145 3.314248 1.452539 0
M  V30 13 F 3.797964 4.137027 2.405665 0
M  V30 14 C 2.660750 2.177482 1.944220 0
M  V30 15 C 0.397010 -0.428849 0.615770 0
M  V30 16 C -0.183046 -1.630113 1.038861 0
M  V30 17 C -1.278485 -2.144495 0.222735 0
M  V30 18 C -2.230779 -1.182725 -0.134732 0
M  V30 19 C -3.299158 -1.593674 -0.909588 0
M  V30 20 F -4.264949 -0.709026 -1.295004 0
M  V30 21 C -3.411376 -2.904126 -1.308990 0
M  V30 22 O -4.479952 -3.339170 -2.089969 0
M  V30 23 C -2.479017 -3.875677 -0.966602 0
M  V30 24 F -2.532683 -5.168744 -1.325276 0
M  V30 25 C -1.423761 -3.450218 -0.196323 0
M  V30 26 H -0.268452 -3.504348 3.730291 0
M  V30 27 H 0.301968 -4.367891 2.287118 0
M  V30 28 H -1.384022 -3.617221 2.324348 0
M  V30 29 H 2.687576 -0.209617 3.099037 0
M  V30 30 H 1.746845 0.972024 -1.120128 0
M  V30 31 H 3.884275 5.137883 -1.236530 0
M  V30 32 H 2.600820 1.929667 2.976281 0
M  V30 33 H 0.060078 0.107576 -0.271518 0
M  V30 34 H -2.230819 -0.135141 0.128143 0
M  V30 35 H -4.920690 -2.778682 -2.806760 0
M  V30 36 H -0.663850 -4.152785 0.103523 0
M  V30 END ATOM
M  V30 BEGIN BOND
M  V30 1 1 1 2
M  V30 2 2 2 3
M  V30 3 1 3 4
M  V30 4 2 4 5
M  V30 5 1 5 6
M  V30 6 2 6 7
M  V30 7 1 7 8
M  V30 8 1 8 9
M  V30 9 2 8 10
M  V30 10 1 10 11
M  V30 11 1 10 12
M  V30 12 1 12 13
M  V30 13 2 12 14
M  V30 14 1 5 15
M  V30 15 2 15 16
M  V30 16 1 16 17
M  V30 17 2 17 18
M  V30 18 1 18 19
M  V30 19 1 19 20
M  V30 20 2 19 21
M  V30 21 1 21 22
M  V30 22 1 21 23
M  V30 23 1 23 24
M  V30 24 2 23 25
M  V30 25 1 16 2
M  V30 26 1 25 17
M  V30 27 1 14 6
M  V30 28 1 1 26
M  V30 29 1 1 27
M  V30 30 1 1 28
M  V30 31 1 4 29
M  V30 32 1 7 30
M  V30 33 1 11 31
M  V30 34 1 14 32
M  V30 35 1 15 33
M  V30 36 1 18 34
M  V30 37 1 22 35
M  V30 38 1 25 36
M  V30 END BOND
M  V30 END CTAB
M  END
>  <Dataset>  (845) 
ChEMBL_Kinases

>  <Ligand_Instance>  (845) 
nan

>  <PDB_ID>  (845) 
nan

>  <Standardized_SMILES>  (845) 
Cc1ncc(-c2cc(F)c(O)c(F)c2)cc1-c1cc(F)c(O)c(F)c1

>  <Name>  (845) 
nan

>  <Pocket>  (845) 
nan

>  <ATP_Site>  (845) 
nan

>  <Peripheral>  (845) 
nan

>  <Num_H_Atoms_ProtBoundConf>  (845) 
nan

>  <Num_Resolved_Atoms>  (845) 
nan

>  <Num_Not_Resolved_Atoms>  (845) 
nan

$$$$
CHEMBL4435320
     RDKit          3D

  0  0  0  0  0  0  0  0  0  0999 V3000
M  V30 BEGIN CTAB
M  V30 COUNTS 63 66 0 0 0
M  V30 BEGIN ATOM
M  V30 1 C -1.853891 -0.779024 5.267028 0
M  V30 2 O -1.790461 -2.183647 5.369848 0
M  V30 3 C -0.932320 -2.964024 4.636453 0
M  V30 4 C -0.102198 -2.259974 3.748526 0
M  V30 5 C 0.786589 -2.945342 2.968934 0
M  V30 6 C 1.627261 -2.237617 2.018651 0
M  V30 7 C 3.008716 -2.456270 1.936991 0
M  V30 8 N 3.803164 -1.797963 1.053968 0
M  V30 9 C 3.267532 -0.886235 0.204285 0
M  V30 10 C 1.908544 -0.596599 0.204943 0
M  V30 11 C 1.424618 0.418691 -0.722978 0
M  V30 12 C 0.714960 1.516500 -0.297502 0
M  V30 13 C 0.214356 2.479275 -1.147964 0
M  V30 14 C 0.394932 2.408655 -2.509189 0
M  V30 15 N -0.124205 3.383370 -3.400103 0
M  V30 16 C -0.982470 4.459631 -3.005115 0
M  V30 17 C -2.297254 4.345671 -3.739648 0
M  V30 18 N -2.343930 3.280327 -4.703569 0
M  V30 19 C -2.665913 2.000975 -4.097413 0
M  V30 20 C -1.173699 3.194063 -5.549356 0
M  V30 21 C 0.117090 3.447427 -4.812205 0
M  V30 22 C 1.109444 1.306315 -2.944107 0
M  V30 23 C 1.617251 0.328964 -2.090225 0
M  V30 24 C 1.120317 -1.287352 1.119323 0
M  V30 25 C -0.313582 -1.012120 1.085669 0
M  V30 26 C 0.887853 -4.322316 3.038144 0
M  V30 27 C 0.107204 -5.064728 3.883613 0
M  V30 28 O -0.033858 -6.366843 4.171792 0
M  V30 29 C 0.585071 -7.521015 3.734733 0
M  V30 30 C -0.772605 -4.357614 4.650149 0
M  V30 31 C -1.724132 -4.817761 5.634311 0
M  V30 32 N -1.673554 -6.227041 5.790601 0
M  V30 33 O -2.575866 -5.010011 6.483519 0
M  V30 34 H -0.821667 -0.336356 5.416944 0
M  V30 35 H -2.539913 -0.383669 6.039597 0
M  V30 36 H -2.191299 -0.418236 4.278797 0
M  V30 37 H -0.141346 -1.183224 3.675103 0
M  V30 38 H 3.485607 -3.179576 2.602041 0
M  V30 39 H 3.936886 -0.389214 -0.481315 0
M  V30 40 H 0.540799 1.660873 0.758953 0
M  V30 41 H -0.324405 3.286434 -0.675491 0
M  V30 42 H -0.504579 5.421550 -3.361161 0
M  V30 43 H -1.100431 4.573832 -1.931343 0
M  V30 44 H -3.071166 4.127778 -2.956303 0
M  V30 45 H -2.584813 5.285306 -4.212566 0
M  V30 46 H -1.841674 1.263778 -4.160445 0
M  V30 47 H -3.542471 1.605338 -4.652788 0
M  V30 48 H -3.011255 2.206659 -3.069708 0
M  V30 49 H -1.265693 3.953253 -6.345802 0
M  V30 50 H -1.196905 2.198508 -6.030963 0
M  V30 51 H 0.472527 4.479347 -5.053022 0
M  V30 52 H 0.825065 2.685329 -5.158834 0
M  V30 53 H 1.319007 1.128422 -3.981112 0
M  V30 54 H 2.173782 -0.525928 -2.459664 0
M  V30 55 H -0.547507 -0.122504 1.687826 0
M  V30 56 H -0.922577 -1.893175 1.445617 0
M  V30 57 H -0.646081 -0.900530 0.021833 0
M  V30 58 H 1.568158 -4.961272 2.456723 0
M  V30 59 H 0.776636 -7.470725 2.629265 0
M  V30 60 H 1.583667 -7.602161 4.208981 0
M  V30 61 H 0.041639 -8.448032 4.029391 0
M  V30 62 H -1.826698 -7.210917 5.405122 0
M  V30 63 H -1.633722 -7.259822 5.912510 0
M  V30 END ATOM
M  V30 BEGIN BOND
M  V30 1 1 1 2
M  V30 2 1 2 3
M  V30 3 2 3 4
M  V30 4 1 4 5
M  V30 5 1 5 6
M  V30 6 2 6 7
M  V30 7 1 7 8
M  V30 8 2 8 9
M  V30 9 1 9 10
M  V30 10 1 10 11
M  V30 11 2 11 12
M  V30 12 1 12 13
M  V30 13 2 13 14
M  V30 14 1 14 15
M  V30 15 1 15 16
M  V30 16 1 16 17
M  V30 17 1 17 18
M  V30 18 1 18 19
M  V30 19 1 18 20
M  V30 20 1 20 21
M  V30 21 1 14 22
M  V30 22 2 22 23
M  V30 23 2 10 24
M  V30 24 1 24 25
M  V30 25 2 5 26
M  V30 26 1 26 27
M  V30 27 1 27 28
M  V30 28 1 28 29
M  V30 29 2 27 30
M  V30 30 1 30 31
M  V30 31 1 31 32
M  V30 32 2 31 33
M  V30 33 1 30 3
M  V30 34 1 24 6
M  V30 35 1 23 11
M  V30 36 1 21 15
M  V30 37 1 1 34
M  V30 38 1 1 35
M  V30 39 1 1 36
M  V30 40 1 4 37
M  V30 41 1 7 38
M  V30 42 1 9 39
M  V30 43 1 12 40
M  V30 44 1 13 41
M  V30 45 1 16 42
M  V30 46 1 16 43
M  V30 47 1 17 44
M  V30 48 1 17 45
M  V30 49 1 19 46
M  V30 50 1 19 47
M  V30 51 1 19 48
M  V30 52 1 20 49
M  V30 53 1 20 50
M  V30 54 1 21 51
M  V30 55 1 21 52
M  V30 56 1 22 53
M  V30 57 1 23 54
M  V30 58 1 25 55
M  V30 59 1 25 56
M  V30 60 1 25 57
M  V30 61 1 26 58
M  V30 62 1 29 59
M  V30 63 1 29 60
M  V30 64 1 29 61
M  V30 65 1 32 62
M  V30 66 1 32 63
M  V30 END BOND
M  V30 END CTAB
M  END
>  <Dataset>  (846) 
ChEMBL_Kinases

>  <Ligand_Instance>  (846) 
nan

>  <PDB_ID>  (846) 
nan

>  <Standardized_SMILES>  (846) 
COc1cc(-c2cncc(-c3ccc(N4CCN(C)CC4)cc3)c2C)cc(OC)c1C(N)=O

>  <Name>  (846) 
nan

>  <Pocket>  (846) 
nan

>  <ATP_Site>  (846) 
nan

>  <Peripheral>  (846) 
nan

>  <Num_H_Atoms_ProtBoundConf>  (846) 
nan

>  <Num_Resolved_Atoms>  (846) 
nan

>  <Num_Not_Resolved_Atoms>  (846) 
nan

$$$$
CHEMBL4435286
     RDKit          3D

  0  0  0  0  0  0  0  0  0  0999 V3000
M  V30 BEGIN CTAB
M  V30 COUNTS 58 62 0 0 0
M  V30 BEGIN ATOM
M  V30 1 O 0.683610 -4.787465 -0.250910 0
M  V30 2 C -0.239315 -3.911971 -0.106886 0
M  V30 3 C 0.243470 -2.581246 0.328123 0
M  V30 4 C 1.430902 -1.963681 0.655482 0
M  V30 5 C 1.471632 -0.663084 1.043761 0
M  V30 6 C 2.710456 0.017375 1.396196 0
M  V30 7 C 3.950508 -0.580425 1.372383 0
M  V30 8 C 5.133582 0.045917 1.702179 0
M  V30 9 N 5.062596 1.333540 2.072747 0
M  V30 10 C 3.873313 1.955610 2.109967 0
M  V30 11 N 3.787601 3.331557 2.504801 0
M  V30 12 C 2.565662 4.109773 2.583928 0
M  V30 13 C 2.821407 5.543258 3.038355 0
M  V30 14 C 1.449108 6.081840 3.441158 0
M  V30 15 O 0.439971 5.450369 2.752360 0
M  V30 16 C 0.738707 5.225434 1.418944 0
M  V30 17 C 1.854341 4.211033 1.249701 0
M  V30 18 N 2.743092 1.305412 1.779647 0
M  V30 19 C 0.303335 0.066720 1.115825 0
M  V30 20 C -0.901549 -0.484186 0.805620 0
M  V30 21 C -0.905058 -1.824092 0.409929 0
M  V30 22 C -2.147667 -2.574005 0.014301 0
M  V30 23 N -1.671033 -3.901664 -0.268079 0
M  V30 24 C -2.247442 -5.175704 -0.650737 0
M  V30 25 C -3.153953 -5.674023 0.465624 0
M  V30 26 O -3.677187 -6.900232 0.038871 0
M  V30 27 C -3.045093 -5.103587 -1.903370 0
M  V30 28 C -2.786129 -6.017188 -2.934930 0
M  V30 29 C -3.437835 -6.092284 -4.146286 0
M  V30 30 C -4.432550 -5.195627 -4.373546 0
M  V30 31 Cl -5.279353 -5.262603 -5.899289 0
M  V30 32 C -4.741965 -4.267044 -3.401923 0
M  V30 33 C -4.062844 -4.228865 -2.203340 0
M  V30 34 H 2.314432 -2.565360 0.586285 0
M  V30 35 H 4.040132 -1.616695 1.078161 0
M  V30 36 H 6.075200 -0.482458 1.662161 0
M  V30 37 H 4.674781 3.840522 2.763718 0
M  V30 38 H 1.831023 3.685533 3.305920 0
M  V30 39 H 3.256495 6.111668 2.212581 0
M  V30 40 H 3.508611 5.458665 3.904577 0
M  V30 41 H 1.345705 5.811891 4.527426 0
M  V30 42 H 1.410476 7.189624 3.395573 0
M  V30 43 H 0.981636 6.139273 0.854503 0
M  V30 44 H -0.175393 4.791359 0.945949 0
M  V30 45 H 1.464991 3.202164 0.979899 0
M  V30 46 H 2.546690 4.481988 0.425367 0
M  V30 47 H 0.330966 1.114529 1.428307 0
M  V30 48 H -1.786857 0.127237 0.877432 0
M  V30 49 H -2.889820 -2.578222 0.817162 0
M  V30 50 H -2.573798 -2.042395 -0.864001 0
M  V30 51 H -1.476402 -5.957805 -0.763762 0
M  V30 52 H -2.499180 -5.865672 1.346757 0
M  V30 53 H -3.994328 -5.014943 0.677369 0
M  V30 54 H -4.191539 -6.728226 -0.808355 0
M  V30 55 H -1.987315 -6.740091 -2.757022 0
M  V30 56 H -3.139305 -6.848070 -4.858400 0
M  V30 57 H -5.540654 -3.536403 -3.567101 0
M  V30 58 H -4.316260 -3.504827 -1.443845 0
M  V30 END ATOM
M  V30 BEGIN BOND
M  V30 1 2 1 2
M  V30 2 1 2 3
M  V30 3 2 3 4
M  V30 4 1 4 5
M  V30 5 1 5 6
M  V30 6 2 6 7
M  V30 7 1 7 8
M  V30 8 2 8 9
M  V30 9 1 9 10
M  V30 10 1 10 11
M  V30 11 1 11 12
M  V30 12 1 12 13
M  V30 13 1 13 14
M  V30 14 1 14 15
M  V30 15 1 15 16
M  V30 16 1 16 17
M  V30 17 2 10 18
M  V30 18 2 5 19
M  V30 19 1 19 20
M  V30 20 2 20 21
M  V30 21 1 21 22
M  V30 22 1 22 23
M  V30 23 1 23 24
M  V30 24 1 24 25
M  V30 25 1 25 26
M  V30 26 1 24 27
M  V30 27 2 27 28
M  V30 28 1 28 29
M  V30 29 2 29 30
M  V30 30 1 30 31
M  V30 31 1 30 32
M  V30 32 2 32 33
M  V30 33 1 23 2
M  V30 34 1 33 27
M  V30 35 1 21 3
M  V30 36 1 18 6
M  V30 37 1 17 12
M  V30 38 1 4 34
M  V30 39 1 7 35
M  V30 40 1 8 36
M  V30 41 1 11 37
M  V30 42 1 12 38
M  V30 43 1 13 39
M  V30 44 1 13 40
M  V30 45 1 14 41
M  V30 46 1 14 42
M  V30 47 1 16 43
M  V30 48 1 16 44
M  V30 49 1 17 45
M  V30 50 1 17 46
M  V30 51 1 19 47
M  V30 52 1 20 48
M  V30 53 1 22 49
M  V30 54 1 22 50
M  V30 55 1 24 51
M  V30 56 1 25 52
M  V30 57 1 25 53
M  V30 58 1 26 54
M  V30 59 1 28 55
M  V30 60 1 29 56
M  V30 61 1 32 57
M  V30 62 1 33 58
M  V30 END BOND
M  V30 END CTAB
M  END
>  <Dataset>  (847) 
ChEMBL_Kinases

>  <Ligand_Instance>  (847) 
nan

>  <PDB_ID>  (847) 
nan

>  <Standardized_SMILES>  (847) 
O=C1c2cc(-c3ccnc(NC4CCOCC4)n3)ccc2CN1C(CO)c1ccc(Cl)cc1

>  <Name>  (847) 
nan

>  <Pocket>  (847) 
nan

>  <ATP_Site>  (847) 
nan

>  <Peripheral>  (847) 
nan

>  <Num_H_Atoms_ProtBoundConf>  (847) 
nan

>  <Num_Resolved_Atoms>  (847) 
nan

>  <Num_Not_Resolved_Atoms>  (847) 
nan

$$$$
CHEMBL4435265
     RDKit          3D

  0  0  0  0  0  0  0  0  0  0999 V3000
M  V30 BEGIN CTAB
M  V30 COUNTS 51 54 0 0 0
M  V30 BEGIN ATOM
M  V30 1 C -1.287690 -2.669795 4.520644 0
M  V30 2 N -0.382473 -3.627188 3.905474 0
M  V30 3 C 0.988671 -3.830676 3.618755 0
M  V30 4 C 1.475480 -3.038312 2.569181 0
M  V30 5 C 2.815828 -3.177915 2.178616 0
M  V30 6 C 3.316995 -2.335760 1.096029 0
M  V30 7 C 4.477187 -2.215612 0.379620 0
M  V30 8 C 4.319113 -1.190775 -0.545164 0
M  V30 9 C 3.050277 -0.715549 -0.356134 0
M  V30 10 C 2.275633 0.337637 -0.995546 0
M  V30 11 O 2.580105 0.896730 -2.061880 0
M  V30 12 N 1.082012 0.803372 -0.406653 0
M  V30 13 C 0.045467 1.757410 -0.666820 0 CFG=2
M  V30 14 C 0.345995 2.961518 0.249029 0
M  V30 15 N -0.407590 2.931741 1.469817 0
M  V30 16 C -1.832964 3.108570 1.232784 0
M  V30 17 C -2.194857 2.495304 -0.127420 0
M  V30 18 C -1.312493 1.274017 -0.239270 0 CFG=1
M  V30 19 C -1.941254 0.287998 -1.126125 0
M  V30 20 C -2.537957 0.503113 -2.348397 0
M  V30 21 C -3.096676 -0.556355 -3.047766 0
M  V30 22 C -3.091838 -1.859202 -2.578101 0
M  V30 23 Cl -3.816764 -3.144112 -3.520371 0
M  V30 24 C -2.503406 -2.113164 -1.357428 0
M  V30 25 C -1.951476 -1.040746 -0.678285 0
M  V30 26 O 2.546940 -1.430924 0.604756 0
M  V30 27 N 3.573978 -4.065467 2.827516 0
M  V30 28 C 3.112132 -4.831262 3.839810 0
M  V30 29 N 1.818415 -4.705182 4.227615 0
M  V30 30 H -0.770088 -2.049827 5.267876 0
M  V30 31 H -1.690460 -1.943607 3.741851 0
M  V30 32 H -2.128214 -3.184888 5.044579 0
M  V30 33 H -0.824377 -4.492684 3.536224 0
M  V30 34 H 0.793721 -2.331392 2.085533 0
M  V30 35 H 5.324932 -2.839716 0.555621 0
M  V30 36 H 4.943007 -0.762750 -1.295296 0
M  V30 37 H 0.815546 0.347048 0.516874 0
M  V30 38 H 0.031931 2.160540 -1.688501 0
M  V30 39 H 1.422627 2.996208 0.510099 0
M  V30 40 H 0.128284 3.903176 -0.298097 0
M  V30 41 H -0.171590 2.154959 2.095530 0
M  V30 42 H -2.101594 4.168213 1.294913 0
M  V30 43 H -2.350370 2.496862 1.991903 0
M  V30 44 H -3.268978 2.226884 -0.155769 0
M  V30 45 H -1.879676 3.227160 -0.882559 0
M  V30 46 H -1.157855 0.845802 0.794745 0
M  V30 47 H -2.537658 1.510929 -2.693994 0
M  V30 48 H -3.567190 -0.381692 -4.010464 0
M  V30 49 H -2.482860 -3.122500 -0.965843 0
M  V30 50 H -1.509812 -1.320275 0.271516 0
M  V30 51 H 3.761591 -5.544570 4.343629 0
M  V30 END ATOM
M  V30 BEGIN BOND
M  V30 1 1 1 2
M  V30 2 1 2 3
M  V30 3 2 3 4
M  V30 4 1 4 5
M  V30 5 1 5 6
M  V30 6 2 6 7
M  V30 7 1 7 8
M  V30 8 2 8 9
M  V30 9 1 9 10
M  V30 10 2 10 11
M  V30 11 1 10 12
M  V30 12 1 12 13
M  V30 13 1 13 14
M  V30 14 1 14 15
M  V30 15 1 15 16
M  V30 16 1 16 17
M  V30 17 1 17 18
M  V30 18 1 18 19
M  V30 19 2 19 20
M  V30 20 1 20 21
M  V30 21 2 21 22
M  V30 22 1 22 23
M  V30 23 1 22 24
M  V30 24 2 24 25
M  V30 25 1 9 26
M  V30 26 2 5 27
M  V30 27 1 27 28
M  V30 28 2 28 29
M  V30 29 1 29 3
M  V30 30 1 26 6
M  V30 31 1 18 13
M  V30 32 1 25 19
M  V30 33 1 1 30
M  V30 34 1 1 31
M  V30 35 1 1 32
M  V30 36 1 2 33
M  V30 37 1 4 34
M  V30 38 1 7 35
M  V30 39 1 8 36
M  V30 40 1 12 37
M  V30 41 1 13 38 CFG=3
M  V30 42 1 14 39
M  V30 43 1 14 40
M  V30 44 1 15 41
M  V30 45 1 16 42
M  V30 46 1 16 43
M  V30 47 1 17 44
M  V30 48 1 17 45
M  V30 49 1 18 46 CFG=1
M  V30 50 1 20 47
M  V30 51 1 21 48
M  V30 52 1 24 49
M  V30 53 1 25 50
M  V30 54 1 28 51
M  V30 END BOND
M  V30 END CTAB
M  END
>  <Dataset>  (848) 
ChEMBL_Kinases

>  <Ligand_Instance>  (848) 
nan

>  <PDB_ID>  (848) 
nan

>  <Standardized_SMILES>  (848) 
CNc1cc(-c2ccc(C(=O)N[C@@H]3CNCC[C@H]3c3ccc(Cl)cc3)o2)ncn1

>  <Name>  (848) 
nan

>  <Pocket>  (848) 
nan

>  <ATP_Site>  (848) 
nan

>  <Peripheral>  (848) 
nan

>  <Num_H_Atoms_ProtBoundConf>  (848) 
nan

>  <Num_Resolved_Atoms>  (848) 
nan

>  <Num_Not_Resolved_Atoms>  (848) 
nan

$$$$
CHEMBL4753478
     RDKit          3D

  0  0  0  0  0  0  0  0  0  0999 V3000
M  V30 BEGIN CTAB
M  V30 COUNTS 64 68 0 0 0
M  V30 BEGIN ATOM
M  V30 1 N 2.731801 -5.675623 3.675417 0
M  V30 2 C 1.463077 -5.083643 3.413607 0
M  V30 3 O 0.351271 -5.694277 3.488462 0
M  V30 4 C 1.692093 -3.654761 3.047060 0
M  V30 5 S 3.245223 -2.587303 2.884546 0
M  V30 6 C 2.190572 -1.098532 2.398418 0
M  V30 7 C 2.959781 0.167532 2.119225 0
M  V30 8 C 4.315623 0.263195 2.201960 0
M  V30 9 C 4.833875 1.520291 1.905440 0
M  V30 10 N 4.067776 2.563829 1.563613 0
M  V30 11 C 2.718778 2.407637 1.497718 0
M  V30 12 N 1.954682 3.569072 1.124586 0
M  V30 13 C 1.603860 4.292508 2.298387 0
M  V30 14 O 1.820058 4.122240 3.526268 0
M  V30 15 C 0.813438 5.549515 2.302986 0
M  V30 16 C 1.209274 6.545679 1.226898 0
M  V30 17 C -0.152903 5.890757 1.251558 0
M  V30 18 C 2.114169 1.197233 1.774770 0
M  V30 19 N 1.114575 -1.479522 2.414397 0
M  V30 20 C 0.675490 -2.690861 2.705440 0
M  V30 21 O -0.641856 -3.110343 2.712657 0
M  V30 22 C -1.731187 -2.292691 2.403757 0
M  V30 23 C -1.656073 -1.745809 1.010492 0
M  V30 24 C -1.634847 -2.910831 0.048298 0
M  V30 25 C -3.052428 -3.224314 -0.372539 0
M  V30 26 N -3.680873 -2.169418 -1.077577 0
M  V30 27 C -3.896308 -2.381677 -2.462116 0
M  V30 28 C -2.706772 -2.607573 -3.287496 0
M  V30 29 C -2.067469 -1.521836 -3.865838 0
M  V30 30 C -0.943940 -1.644664 -4.656441 0
M  V30 31 C -0.393318 -2.882204 -4.913065 0
M  V30 32 C -1.001316 -3.986537 -4.355150 0
M  V30 33 C -2.123685 -3.826225 -3.569563 0
M  V30 34 C -3.269851 -0.860690 -0.701947 0
M  V30 35 C -2.744012 -0.761079 0.701472 0
M  V30 36 H 2.888724 -6.450470 2.981807 0
M  V30 37 H 3.308395 -5.295667 4.465885 0
M  V30 38 H 4.893763 -0.599830 2.480242 0
M  V30 39 H 5.915917 1.644752 1.958574 0
M  V30 40 H 1.618264 3.976875 0.226688 0
M  V30 41 H 0.643297 5.960527 3.303541 0
M  V30 42 H 1.315633 7.613266 1.525249 0
M  V30 43 H 1.927559 6.215183 0.446401 0
M  V30 44 H -0.366578 5.235828 0.395135 0
M  V30 45 H -0.981768 6.569436 1.515347 0
M  V30 46 H 1.057937 1.127720 1.709035 0
M  V30 47 H -2.703022 -2.753579 2.642764 0
M  V30 48 H -1.661834 -1.409540 3.103504 0
M  V30 49 H -0.689760 -1.215144 0.904030 0
M  V30 50 H -0.979887 -2.662912 -0.785383 0
M  V30 51 H -1.232825 -3.799575 0.549832 0
M  V30 52 H -3.146748 -4.174093 -0.886003 0
M  V30 53 H -3.614038 -3.354090 0.599855 0
M  V30 54 H -4.516389 -3.324204 -2.547600 0
M  V30 55 H -4.508968 -1.612524 -2.957017 0
M  V30 56 H -2.375754 -0.491769 -3.761461 0
M  V30 57 H -0.424349 -0.819467 -5.120079 0
M  V30 58 H 0.473549 -3.101872 -5.509180 0
M  V30 59 H -0.627937 -5.009778 -4.508803 0
M  V30 60 H -2.582126 -4.706343 -3.145567 0
M  V30 61 H -4.118979 -0.154451 -0.800869 0
M  V30 62 H -2.470296 -0.500391 -1.372300 0
M  V30 63 H -3.597583 -0.967039 1.380107 0
M  V30 64 H -2.412311 0.274696 0.904281 0
M  V30 END ATOM
M  V30 BEGIN BOND
M  V30 1 1 1 2
M  V30 2 2 2 3
M  V30 3 1 2 4
M  V30 4 1 4 5
M  V30 5 1 5 6
M  V30 6 1 6 7
M  V30 7 2 7 8
M  V30 8 1 8 9
M  V30 9 2 9 10
M  V30 10 1 10 11
M  V30 11 1 11 12
M  V30 12 1 12 13
M  V30 13 2 13 14
M  V30 14 1 13 15
M  V30 15 1 15 16
M  V30 16 1 16 17
M  V30 17 2 11 18
M  V30 18 2 6 19
M  V30 19 1 19 20
M  V30 20 1 20 21
M  V30 21 1 21 22
M  V30 22 1 22 23
M  V30 23 1 23 24
M  V30 24 1 24 25
M  V30 25 1 25 26
M  V30 26 1 26 27
M  V30 27 1 27 28
M  V30 28 2 28 29
M  V30 29 1 29 30
M  V30 30 2 30 31
M  V30 31 1 31 32
M  V30 32 2 32 33
M  V30 33 1 26 34
M  V30 34 1 34 35
M  V30 35 2 20 4
M  V30 36 1 35 23
M  V30 37 1 18 7
M  V30 38 1 33 28
M  V30 39 1 17 15
M  V30 40 1 1 36
M  V30 41 1 1 37
M  V30 42 1 8 38
M  V30 43 1 9 39
M  V30 44 1 12 40
M  V30 45 1 15 41
M  V30 46 1 16 42
M  V30 47 1 16 43
M  V30 48 1 17 44
M  V30 49 1 17 45
M  V30 50 1 18 46
M  V30 51 1 22 47
M  V30 52 1 22 48
M  V30 53 1 23 49
M  V30 54 1 24 50
M  V30 55 1 24 51
M  V30 56 1 25 52
M  V30 57 1 25 53
M  V30 58 1 27 54
M  V30 59 1 27 55
M  V30 60 1 29 56
M  V30 61 1 30 57
M  V30 62 1 31 58
M  V30 63 1 32 59
M  V30 64 1 33 60
M  V30 65 1 34 61
M  V30 66 1 34 62
M  V30 67 1 35 63
M  V30 68 1 35 64
M  V30 END BOND
M  V30 END CTAB
M  END
>  <Dataset>  (849) 
ChEMBL_Kinases

>  <Ligand_Instance>  (849) 
nan

>  <PDB_ID>  (849) 
nan

>  <Standardized_SMILES>  (849) 
NC(=O)c1sc(-c2ccnc(NC(=O)C3CC3)c2)nc1OCC1CCN(Cc2ccccc2)CC1

>  <Name>  (849) 
nan

>  <Pocket>  (849) 
nan

>  <ATP_Site>  (849) 
nan

>  <Peripheral>  (849) 
nan

>  <Num_H_Atoms_ProtBoundConf>  (849) 
nan

>  <Num_Resolved_Atoms>  (849) 
nan

>  <Num_Not_Resolved_Atoms>  (849) 
nan

$$$$
CHEMBL4435170
     RDKit          3D

  0  0  0  0  0  0  0  0  0  0999 V3000
M  V30 BEGIN CTAB
M  V30 COUNTS 53 56 0 0 0
M  V30 BEGIN ATOM
M  V30 1 H 3.876484 -3.860893 2.014158 0 MASS=2
M  V30 2 C 4.664892 -3.153012 1.677880 0
M  V30 3 H 5.539736 -3.308245 2.350412 0 MASS=2
M  V30 4 H 5.041088 -3.377331 0.652528 0 MASS=2
M  V30 5 N 4.235851 -1.778612 1.837872 0
M  V30 6 C 2.978108 -1.486136 1.232884 0
M  V30 7 O 2.603742 -2.556645 0.720065 0
M  V30 8 C 2.427239 -0.142872 1.317443 0
M  V30 9 N 3.186094 0.800174 1.901485 0
M  V30 10 N 2.782648 2.055513 1.989489 0
M  V30 11 C 1.597633 2.469625 1.505517 0
M  V30 12 N 1.312947 3.851125 1.679974 0
M  V30 13 C 0.648369 4.053636 2.907228 0
M  V30 14 O 0.062874 4.052465 4.036706 0
M  V30 15 C 0.179769 5.338792 3.467560 0
M  V30 16 C 1.024253 6.557386 3.263404 0
M  V30 17 C -0.355276 6.387005 2.569494 0
M  V30 18 C 0.799849 1.520238 0.901792 0
M  V30 19 C 1.195679 0.180742 0.791772 0
M  V30 20 N 0.353257 -0.740343 0.167533 0
M  V30 21 C -0.336567 -1.903150 0.598915 0
M  V30 22 C -0.343049 -2.408854 1.874942 0
M  V30 23 C -1.015393 -3.536646 2.278755 0
M  V30 24 C -1.747329 -4.226562 1.335734 0
M  V30 25 C -1.753515 -3.734318 0.047329 0
M  V30 26 C -2.535143 -4.470899 -0.957361 0
M  V30 27 N -3.248272 -5.588012 -0.725083 0
M  V30 28 C -3.842720 -6.007984 -1.851904 0
M  V30 29 N -3.485835 -5.119491 -2.819153 0
M  V30 30 C -3.942343 -5.245227 -4.193707 0
M  V30 31 N -2.707346 -4.214312 -2.260867 0
M  V30 32 C -1.065915 -2.598715 -0.319992 0
M  V30 33 O -1.147431 -2.202417 -1.640779 0
M  V30 34 C -2.139268 -1.323242 -2.133891 0
M  V30 35 H 4.822784 -1.065992 2.364329 0
M  V30 36 H 1.477363 4.734067 1.123740 0
M  V30 37 H -0.320587 5.245189 4.452767 0
M  V30 38 H 1.912149 6.456275 2.617556 0
M  V30 39 H 1.066459 7.340014 4.067289 0
M  V30 40 H -1.137893 7.100020 2.919373 0
M  V30 41 H -0.294548 6.220452 1.484013 0
M  V30 42 H -0.147267 1.894775 0.524579 0
M  V30 43 H 0.284119 -0.420015 -0.806730 0
M  V30 44 H 0.233125 -1.869674 2.627481 0
M  V30 45 H -0.987781 -3.892549 3.295506 0
M  V30 46 H -2.297207 -5.116866 1.583273 0
M  V30 47 H -4.463382 -6.899735 -1.858744 0
M  V30 48 H -4.878962 -4.652630 -4.359898 0
M  V30 49 H -4.101754 -6.311215 -4.465359 0
M  V30 50 H -3.168089 -4.854574 -4.877294 0
M  V30 51 H -1.849252 -0.250460 -2.058107 0
M  V30 52 H -3.091925 -1.428131 -1.577027 0
M  V30 53 H -2.316395 -1.525718 -3.207278 0
M  V30 END ATOM
M  V30 BEGIN BOND
M  V30 1 1 1 2
M  V30 2 1 2 3
M  V30 3 1 2 4
M  V30 4 1 2 5
M  V30 5 1 5 6
M  V30 6 2 6 7
M  V30 7 1 6 8
M  V30 8 2 8 9
M  V30 9 1 9 10
M  V30 10 2 10 11
M  V30 11 1 11 12
M  V30 12 1 12 13
M  V30 13 2 13 14
M  V30 14 1 13 15
M  V30 15 1 15 16
M  V30 16 1 16 17
M  V30 17 1 11 18
M  V30 18 2 18 19
M  V30 19 1 19 20
M  V30 20 1 20 21
M  V30 21 2 21 22
M  V30 22 1 22 23
M  V30 23 2 23 24
M  V30 24 1 24 25
M  V30 25 1 25 26
M  V30 26 1 26 27
M  V30 27 2 27 28
M  V30 28 1 28 29
M  V30 29 1 29 30
M  V30 30 1 29 31
M  V30 31 2 25 32
M  V30 32 1 32 33
M  V30 33 1 33 34
M  V30 34 1 19 8
M  V30 35 1 32 21
M  V30 36 1 17 15
M  V30 37 2 31 26
M  V30 38 1 5 35
M  V30 39 1 12 36
M  V30 40 1 15 37
M  V30 41 1 16 38
M  V30 42 1 16 39
M  V30 43 1 17 40
M  V30 44 1 17 41
M  V30 45 1 18 42
M  V30 46 1 20 43
M  V30 47 1 22 44
M  V30 48 1 23 45
M  V30 49 1 24 46
M  V30 50 1 28 47
M  V30 51 1 30 48
M  V30 52 1 30 49
M  V30 53 1 30 50
M  V30 54 1 34 51
M  V30 55 1 34 52
M  V30 56 1 34 53
M  V30 END BOND
M  V30 END CTAB
M  END
>  <Dataset>  (850) 
ChEMBL_Kinases

>  <Ligand_Instance>  (850) 
nan

>  <PDB_ID>  (850) 
nan

>  <Standardized_SMILES>  (850) 
[2H]C([2H])([2H])NC(=O)c1nnc(NC(=O)C2CC2)cc1Nc1cccc(-c2ncn(C)n2)c1OC

>  <Name>  (850) 
DEUCRAVACITINIB

>  <Pocket>  (850) 
nan

>  <ATP_Site>  (850) 
nan

>  <Peripheral>  (850) 
nan

>  <Num_H_Atoms_ProtBoundConf>  (850) 
nan

>  <Num_Resolved_Atoms>  (850) 
nan

>  <Num_Not_Resolved_Atoms>  (850) 
nan

$$$$
CHEMBL4435154
     RDKit          3D

  0  0  0  0  0  0  0  0  0  0999 V3000
M  V30 BEGIN CTAB
M  V30 COUNTS 53 57 0 0 0
M  V30 BEGIN ATOM
M  V30 1 C 1.834370 -6.122773 3.059743 0
M  V30 2 C 1.642949 -4.639044 2.741378 0
M  V30 3 C 2.664649 -3.902732 3.575749 0
M  V30 4 C 1.889677 -4.390209 1.258497 0
M  V30 5 N 0.977062 -3.347200 0.841375 0
M  V30 6 C 1.251184 -1.993506 0.512282 0
M  V30 7 C 2.535443 -1.548278 0.522247 0
M  V30 8 C 2.697529 -0.215764 0.190642 0
M  V30 9 C 1.597271 0.553777 -0.118148 0
M  V30 10 N 1.459513 1.857468 -0.471334 0
M  V30 11 C 0.146899 2.126611 -0.670115 0
M  V30 12 C -0.411791 3.433471 -1.064661 0
M  V30 13 C -0.154574 4.433323 -0.136112 0
M  V30 14 C -0.617391 5.734603 -0.360437 0
M  V30 15 C -1.323991 5.949256 -1.529716 0
M  V30 16 C -1.587378 4.958759 -2.465049 0
M  V30 17 C -1.114125 3.670267 -2.216003 0
M  V30 18 C -0.568354 0.961736 -0.436763 0
M  V30 19 C -2.014247 0.883868 -0.557891 0
M  V30 20 C -2.653643 1.712287 0.344112 0
M  V30 21 C -4.042781 1.776106 0.381789 0
M  V30 22 N -4.755253 1.009692 -0.483676 0
M  V30 23 C -4.152267 0.194832 -1.371431 0
M  V30 24 C -2.776077 0.106709 -1.436291 0
M  V30 25 N 0.352521 0.039435 -0.106213 0
M  V30 26 N 0.188267 -1.234467 0.210010 0
M  V30 27 C -0.359162 -3.928522 0.801143 0
M  V30 28 C -0.700720 -4.444017 2.169441 0
M  V30 29 N 0.332775 -4.186613 3.125211 0
M  V30 30 H 2.730119 -6.523994 2.564790 0
M  V30 31 H 0.962731 -6.725272 2.698136 0
M  V30 32 H 1.889534 -6.283788 4.154996 0
M  V30 33 H 2.138785 -3.471319 4.450563 0
M  V30 34 H 3.096460 -3.103972 2.930992 0
M  V30 35 H 3.484357 -4.573263 3.917179 0
M  V30 36 H 1.761501 -5.336616 0.686465 0
M  V30 37 H 2.954224 -4.100710 1.090117 0
M  V30 38 H 3.406654 -2.141028 0.761862 0
M  V30 39 H 3.664372 0.247448 0.164797 0
M  V30 40 H 0.402801 4.279308 0.793340 0
M  V30 41 H -0.428786 6.535086 0.351700 0
M  V30 42 H -1.711492 6.944907 -1.761498 0
M  V30 43 H -2.128956 5.102343 -3.371050 0
M  V30 44 H -1.247360 2.810218 -2.857130 0
M  V30 45 H -2.216870 2.367728 1.080354 0
M  V30 46 H -4.618971 2.407325 1.067269 0
M  V30 47 H -4.683103 -0.431532 -2.077328 0
M  V30 48 H -2.167870 -0.499181 -2.092582 0
M  V30 49 H -0.398249 -4.772331 0.066645 0
M  V30 50 H -1.098152 -3.160528 0.434861 0
M  V30 51 H -1.034501 -5.512011 2.150547 0
M  V30 52 H -1.601447 -3.871903 2.528098 0
M  V30 53 H 0.091931 -4.649975 4.024701 0
M  V30 END ATOM
M  V30 BEGIN BOND
M  V30 1 1 1 2
M  V30 2 1 2 3
M  V30 3 1 2 4
M  V30 4 1 4 5
M  V30 5 1 5 6
M  V30 6 1 6 7
M  V30 7 2 7 8
M  V30 8 1 8 9
M  V30 9 2 9 10
M  V30 10 1 10 11
M  V30 11 1 11 12
M  V30 12 2 12 13
M  V30 13 1 13 14
M  V30 14 2 14 15
M  V30 15 1 15 16
M  V30 16 2 16 17
M  V30 17 2 11 18
M  V30 18 1 18 19
M  V30 19 2 19 20
M  V30 20 1 20 21
M  V30 21 2 21 22
M  V30 22 1 22 23
M  V30 23 2 23 24
M  V30 24 1 18 25
M  V30 25 1 25 26
M  V30 26 1 5 27
M  V30 27 1 27 28
M  V30 28 1 28 29
M  V30 29 1 29 2
M  V30 30 2 26 6
M  V30 31 1 25 9
M  V30 32 1 17 12
M  V30 33 1 24 19
M  V30 34 1 1 30
M  V30 35 1 1 31
M  V30 36 1 1 32
M  V30 37 1 3 33
M  V30 38 1 3 34
M  V30 39 1 3 35
M  V30 40 1 4 36
M  V30 41 1 4 37
M  V30 42 1 7 38
M  V30 43 1 8 39
M  V30 44 1 13 40
M  V30 45 1 14 41
M  V30 46 1 15 42
M  V30 47 1 16 43
M  V30 48 1 17 44
M  V30 49 1 20 45
M  V30 50 1 21 46
M  V30 51 1 23 47
M  V30 52 1 24 48
M  V30 53 1 27 49
M  V30 54 1 27 50
M  V30 55 1 28 51
M  V30 56 1 28 52
M  V30 57 1 29 53
M  V30 END BOND
M  V30 END CTAB
M  END
>  <Dataset>  (851) 
ChEMBL_Kinases

>  <Ligand_Instance>  (851) 
nan

>  <PDB_ID>  (851) 
nan

>  <Standardized_SMILES>  (851) 
CC1(C)CN(c2ccc3nc(-c4ccccc4)c(-c4ccncc4)n3n2)CCN1

>  <Name>  (851) 
nan

>  <Pocket>  (851) 
nan

>  <ATP_Site>  (851) 
nan

>  <Peripheral>  (851) 
nan

>  <Num_H_Atoms_ProtBoundConf>  (851) 
nan

>  <Num_Resolved_Atoms>  (851) 
nan

>  <Num_Not_Resolved_Atoms>  (851) 
nan

$$$$
CHEMBL4435138
     RDKit          3D

  0  0  0  0  0  0  0  0  0  0999 V3000
M  V30 BEGIN CTAB
M  V30 COUNTS 51 54 0 0 0
M  V30 BEGIN ATOM
M  V30 1 C 3.565031 2.628248 2.661884 0
M  V30 2 N 4.897957 2.322977 2.139285 0
M  V30 3 N 5.926646 3.147360 2.397543 0
M  V30 4 C 7.040742 2.696740 1.837428 0
M  V30 5 C 6.618112 1.545488 1.223310 0
M  V30 6 Cl 7.870075 0.684667 0.369679 0
M  V30 7 C 5.288710 1.281899 1.390919 0
M  V30 8 C 4.490808 0.188424 0.908957 0
M  V30 9 C 3.147015 0.025868 1.142678 0
M  V30 10 C 2.623764 -1.126657 0.557516 0
M  V30 11 C 1.281582 -1.697958 0.536879 0
M  V30 12 O 1.036657 -2.772975 -0.062745 0
M  V30 13 N 0.200445 -1.080631 1.181271 0
M  V30 14 C -1.153724 -1.529356 1.239528 0 CFG=1
M  V30 15 C -1.417682 -1.952038 2.677408 0
M  V30 16 N -1.715893 -0.843959 3.529713 0
M  V30 17 C -2.841473 -0.061347 3.120224 0
M  V30 18 C -3.364973 -0.611616 1.815296 0
M  V30 19 C -2.231617 -0.662215 0.809293 0 CFG=2
M  V30 20 C -2.808518 -1.189312 -0.461975 0
M  V30 21 C -3.187144 -2.508876 -0.399501 0
M  V30 22 C -3.744767 -3.198622 -1.468541 0
M  V30 23 C -3.918390 -2.492821 -2.654185 0
M  V30 24 C -4.511734 -3.203759 -3.816733 0
M  V30 25 F -5.684174 -3.867074 -3.476683 0
M  V30 26 F -4.683579 -2.334248 -4.876232 0
M  V30 27 F -3.648929 -4.191557 -4.266156 0
M  V30 28 C -3.543071 -1.168635 -2.730802 0
M  V30 29 C -2.994245 -0.510060 -1.659755 0
M  V30 30 O 3.668737 -1.676113 -0.043834 0
M  V30 31 C 4.726161 -0.927897 0.157328 0
M  V30 32 Cl 6.233930 -1.435159 -0.532557 0
M  V30 33 H 3.244436 1.872553 3.415515 0
M  V30 34 H 3.650883 3.589455 3.253734 0
M  V30 35 H 2.835244 2.853691 1.881020 0
M  V30 36 H 7.944707 3.250650 1.957427 0
M  V30 37 H 2.398203 0.588209 1.677991 0
M  V30 38 H 0.362236 -0.174175 1.696893 0
M  V30 39 H -1.159572 -2.490594 0.675367 0
M  V30 40 H -0.469905 -2.419551 3.053314 0
M  V30 41 H -2.210265 -2.731340 2.699451 0
M  V30 42 H -1.905135 -1.227815 4.481614 0
M  V30 43 H -3.662000 -0.138066 3.854935 0
M  V30 44 H -2.526388 0.998395 3.020427 0
M  V30 45 H -4.172383 0.090853 1.464476 0
M  V30 46 H -3.776329 -1.620172 2.021094 0
M  V30 47 H -1.998186 0.383662 0.556020 0
M  V30 48 H -3.084825 -3.124184 0.484420 0
M  V30 49 H -4.050279 -4.233178 -1.445037 0
M  V30 50 H -3.667208 -0.597462 -3.642252 0
M  V30 51 H -2.671988 0.523574 -1.628190 0
M  V30 END ATOM
M  V30 BEGIN BOND
M  V30 1 1 1 2
M  V30 2 1 2 3
M  V30 3 2 3 4
M  V30 4 1 4 5
M  V30 5 1 5 6
M  V30 6 2 5 7
M  V30 7 1 7 8
M  V30 8 1 8 9
M  V30 9 2 9 10
M  V30 10 1 10 11
M  V30 11 2 11 12
M  V30 12 1 11 13
M  V30 13 1 13 14
M  V30 14 1 14 15
M  V30 15 1 15 16
M  V30 16 1 16 17
M  V30 17 1 17 18
M  V30 18 1 18 19
M  V30 19 1 19 20
M  V30 20 2 20 21
M  V30 21 1 21 22
M  V30 22 2 22 23
M  V30 23 1 23 24
M  V30 24 1 24 25
M  V30 25 1 24 26
M  V30 26 1 24 27
M  V30 27 1 23 28
M  V30 28 2 28 29
M  V30 29 1 10 30
M  V30 30 1 30 31
M  V30 31 1 31 32
M  V30 32 1 7 2
M  V30 33 2 31 8
M  V30 34 1 19 14
M  V30 35 1 29 20
M  V30 36 1 1 33
M  V30 37 1 1 34
M  V30 38 1 1 35
M  V30 39 1 4 36
M  V30 40 1 9 37
M  V30 41 1 13 38
M  V30 42 1 14 39 CFG=3
M  V30 43 1 15 40
M  V30 44 1 15 41
M  V30 45 1 16 42
M  V30 46 1 17 43
M  V30 47 1 17 44
M  V30 48 1 18 45
M  V30 49 1 18 46
M  V30 50 1 19 47 CFG=3
M  V30 51 1 21 48
M  V30 52 1 22 49
M  V30 53 1 28 50
M  V30 54 1 29 51
M  V30 END BOND
M  V30 END CTAB
M  END
>  <Dataset>  (852) 
ChEMBL_Kinases

>  <Ligand_Instance>  (852) 
nan

>  <PDB_ID>  (852) 
nan

>  <Standardized_SMILES>  (852) 
Cn1ncc(Cl)c1-c1cc(C(=O)N[C@H]2CNCC[C@@H]2c2ccc(C(F)(F)F)cc2)oc1Cl

>  <Name>  (852) 
nan

>  <Pocket>  (852) 
nan

>  <ATP_Site>  (852) 
nan

>  <Peripheral>  (852) 
nan

>  <Num_H_Atoms_ProtBoundConf>  (852) 
nan

>  <Num_Resolved_Atoms>  (852) 
nan

>  <Num_Not_Resolved_Atoms>  (852) 
nan

$$$$
CHEMBL4753491
     RDKit          3D

  0  0  0  0  0  0  0  0  0  0999 V3000
M  V30 BEGIN CTAB
M  V30 COUNTS 55 59 0 0 0
M  V30 BEGIN ATOM
M  V30 1 C -0.353966 -2.298852 4.421568 0
M  V30 2 N 0.302280 -3.510118 4.067270 0
M  V30 3 C 1.673636 -3.626624 4.439575 0
M  V30 4 C 2.587244 -3.327630 3.286577 0
M  V30 5 N 2.363141 -4.234778 2.210582 0
M  V30 6 C 2.960224 -3.872701 0.967595 0
M  V30 7 C 2.483434 -2.555640 0.449287 0
M  V30 8 C 3.191477 -1.411247 0.813995 0
M  V30 9 C 2.830998 -0.145587 0.391200 0
M  V30 10 C 1.731961 0.026733 -0.424826 0
M  V30 11 C 1.227822 1.284345 -0.953615 0
M  V30 12 C 2.010058 2.377775 -1.279593 0
M  V30 13 N 1.474359 3.521362 -1.766309 0
M  V30 14 C 0.132887 3.649004 -1.958599 0
M  V30 15 N -0.663863 4.633679 -2.413840 0
M  V30 16 C -1.952446 4.247701 -2.407455 0
M  V30 17 C -2.015315 2.951612 -1.927700 0
M  V30 18 C -3.230795 2.158238 -1.756151 0
M  V30 19 C -4.246816 2.033611 -2.681820 0
M  V30 20 C -5.338685 1.248936 -2.377694 0
M  V30 21 C -5.499698 0.563279 -1.195520 0
M  V30 22 C -4.470690 0.700441 -0.279620 0
M  V30 23 C -3.347807 1.488908 -0.555288 0
M  V30 24 C -0.714815 2.599633 -1.656124 0
M  V30 25 C -0.141832 1.447629 -1.162304 0
M  V30 26 C 1.024180 -1.123518 -0.788659 0
M  V30 27 C 1.382106 -2.388957 -0.367801 0
M  V30 28 C 1.073854 -4.836416 2.146615 0
M  V30 29 C -0.017196 -4.020153 2.767229 0
M  V30 30 H 0.244869 -1.795866 5.215169 0
M  V30 31 H -0.365422 -1.549071 3.578528 0
M  V30 32 H -1.366719 -2.425744 4.873844 0
M  V30 33 H 1.917704 -4.578785 4.964704 0
M  V30 34 H 1.868932 -2.815939 5.198954 0
M  V30 35 H 3.646141 -3.397866 3.611822 0
M  V30 36 H 2.317658 -2.291579 2.956674 0
M  V30 37 H 2.714907 -4.624146 0.210390 0
M  V30 38 H 4.074221 -3.835933 1.104188 0
M  V30 39 H 4.070223 -1.440294 1.452330 0
M  V30 40 H 3.365425 0.752564 0.661761 0
M  V30 41 H 3.076634 2.274638 -1.126570 0
M  V30 42 H -0.289019 5.564054 -2.723273 0
M  V30 43 H -2.776369 4.891881 -2.737800 0
M  V30 44 H -4.122848 2.571355 -3.611794 0
M  V30 45 H -6.125960 1.158329 -3.108274 0
M  V30 46 H -6.374436 -0.040780 -1.001090 0
M  V30 47 H -4.613759 0.147023 0.660305 0
M  V30 48 H -2.651318 1.473878 0.281364 0
M  V30 49 H -0.767037 0.601410 -0.911940 0
M  V30 50 H 0.140047 -1.145611 -1.425710 0
M  V30 51 H 0.866608 -3.284247 -0.626230 0
M  V30 52 H 0.808841 -4.965332 1.077335 0
M  V30 53 H 1.059862 -5.877697 2.580315 0
M  V30 54 H -0.909731 -4.677924 2.872487 0
M  V30 55 H -0.320108 -3.209916 2.071185 0
M  V30 END ATOM
M  V30 BEGIN BOND
M  V30 1 1 1 2
M  V30 2 1 2 3
M  V30 3 1 3 4
M  V30 4 1 4 5
M  V30 5 1 5 6
M  V30 6 1 6 7
M  V30 7 2 7 8
M  V30 8 1 8 9
M  V30 9 2 9 10
M  V30 10 1 10 11
M  V30 11 2 11 12
M  V30 12 1 12 13
M  V30 13 2 13 14
M  V30 14 1 14 15
M  V30 15 1 15 16
M  V30 16 2 16 17
M  V30 17 1 17 18
M  V30 18 2 18 19
M  V30 19 1 19 20
M  V30 20 2 20 21
M  V30 21 1 21 22
M  V30 22 2 22 23
M  V30 23 1 17 24
M  V30 24 2 24 25
M  V30 25 1 10 26
M  V30 26 2 26 27
M  V30 27 1 5 28
M  V30 28 1 28 29
M  V30 29 1 29 2
M  V30 30 1 27 7
M  V30 31 1 25 11
M  V30 32 1 24 14
M  V30 33 1 23 18
M  V30 34 1 1 30
M  V30 35 1 1 31
M  V30 36 1 1 32
M  V30 37 1 3 33
M  V30 38 1 3 34
M  V30 39 1 4 35
M  V30 40 1 4 36
M  V30 41 1 6 37
M  V30 42 1 6 38
M  V30 43 1 8 39
M  V30 44 1 9 40
M  V30 45 1 12 41
M  V30 46 1 15 42
M  V30 47 1 16 43
M  V30 48 1 19 44
M  V30 49 1 20 45
M  V30 50 1 21 46
M  V30 51 1 22 47
M  V30 52 1 23 48
M  V30 53 1 25 49
M  V30 54 1 26 50
M  V30 55 1 27 51
M  V30 56 1 28 52
M  V30 57 1 28 53
M  V30 58 1 29 54
M  V30 59 1 29 55
M  V30 END BOND
M  V30 END CTAB
M  END
>  <Dataset>  (853) 
ChEMBL_Kinases

>  <Ligand_Instance>  (853) 
nan

>  <PDB_ID>  (853) 
nan

>  <Standardized_SMILES>  (853) 
CN1CCN(Cc2ccc(-c3cnc4[nH]cc(-c5ccccc5)c4c3)cc2)CC1

>  <Name>  (853) 
nan

>  <Pocket>  (853) 
nan

>  <ATP_Site>  (853) 
nan

>  <Peripheral>  (853) 
nan

>  <Num_H_Atoms_ProtBoundConf>  (853) 
nan

>  <Num_Resolved_Atoms>  (853) 
nan

>  <Num_Not_Resolved_Atoms>  (853) 
nan

$$$$
CHEMBL4753726
     RDKit          3D

  0  0  0  0  0  0  0  0  0  0999 V3000
M  V30 BEGIN CTAB
M  V30 COUNTS 52 55 0 0 0
M  V30 BEGIN ATOM
M  V30 1 C 2.391495 -1.286732 1.162928 0
M  V30 2 C 3.535260 -1.438345 2.100997 0
M  V30 3 C 4.256595 -2.729974 1.781857 0
M  V30 4 N 4.418019 -0.320829 2.197740 0
M  V30 5 C 5.468495 -0.532110 3.040780 0
M  V30 6 N 6.218588 0.598265 3.036940 0
M  V30 7 N 5.659087 1.475389 2.226401 0
M  V30 8 C 4.556348 0.920026 1.708861 0
M  V30 9 C 3.564023 1.416748 0.771805 0
M  V30 10 C 4.097149 1.500734 -0.520739 0
M  V30 11 C 3.311444 1.957673 -1.576843 0
M  V30 12 C 1.988411 2.329926 -1.330021 0
M  V30 13 C 1.518194 2.225125 -0.032976 0
M  V30 14 N 0.183209 2.584435 0.301114 0
M  V30 15 C -0.855556 1.619240 0.247980 0
M  V30 16 O -0.529211 0.462502 -0.101637 0
M  V30 17 N -2.215713 1.869988 0.558389 0
M  V30 18 C -3.316385 1.007592 0.543147 0
M  V30 19 C -4.550215 1.513072 0.890685 0
M  V30 20 C -5.684015 0.760350 0.909034 0
M  V30 21 C -5.656092 -0.577083 0.573234 0
M  V30 22 C -4.434946 -1.123697 0.217796 0
M  V30 23 C -4.371505 -2.535321 -0.142276 0
M  V30 24 C -5.306673 -3.345281 -0.753889 0
M  V30 25 N -4.743046 -4.575206 -0.855326 0
M  V30 26 N -3.513255 -4.557273 -0.337564 0
M  V30 27 C -2.586271 -5.681533 -0.258442 0
M  V30 28 C -3.250738 -3.298306 0.116353 0
M  V30 29 C -3.325558 -0.309571 0.219058 0
M  V30 30 N 2.285732 1.782532 0.979206 0
M  V30 31 H 2.019414 -2.336770 0.960411 0
M  V30 32 H 2.614088 -0.878168 0.176530 0
M  V30 33 H 1.533026 -0.809374 1.690430 0
M  V30 34 H 3.082803 -1.590411 3.125171 0
M  V30 35 H 4.369789 -3.378980 2.665271 0
M  V30 36 H 5.286707 -2.469488 1.462360 0
M  V30 37 H 3.783886 -3.250214 0.913805 0
M  V30 38 H 5.832177 -1.342843 3.681494 0
M  V30 39 H 5.106915 1.238700 -0.820950 0
M  V30 40 H 3.677582 2.041039 -2.594894 0
M  V30 41 H 1.307562 2.692407 -2.074823 0
M  V30 42 H -0.067024 3.561502 0.592005 0
M  V30 43 H -2.341445 2.880203 0.834186 0
M  V30 44 H -4.640890 2.562419 1.166673 0
M  V30 45 H -6.618879 1.211905 1.189292 0
M  V30 46 H -6.566822 -1.160447 0.593233 0
M  V30 47 H -6.283612 -3.013413 -1.070450 0
M  V30 48 H -2.009759 -5.691687 -1.200969 0
M  V30 49 H -1.895593 -5.478895 0.591522 0
M  V30 50 H -3.195471 -6.594035 -0.090550 0
M  V30 51 H -2.321967 -3.002891 0.584509 0
M  V30 52 H -2.421014 -0.799438 -0.065160 0
M  V30 END ATOM
M  V30 BEGIN BOND
M  V30 1 1 1 2
M  V30 2 1 2 3
M  V30 3 1 2 4
M  V30 4 1 4 5
M  V30 5 2 5 6
M  V30 6 1 6 7
M  V30 7 2 7 8
M  V30 8 1 8 9
M  V30 9 2 9 10
M  V30 10 1 10 11
M  V30 11 2 11 12
M  V30 12 1 12 13
M  V30 13 1 13 14
M  V30 14 1 14 15
M  V30 15 2 15 16
M  V30 16 1 15 17
M  V30 17 1 17 18
M  V30 18 2 18 19
M  V30 19 1 19 20
M  V30 20 2 20 21
M  V30 21 1 21 22
M  V30 22 1 22 23
M  V30 23 1 23 24
M  V30 24 2 24 25
M  V30 25 1 25 26
M  V30 26 1 26 27
M  V30 27 1 26 28
M  V30 28 2 22 29
M  V30 29 2 13 30
M  V30 30 1 8 4
M  V30 31 1 30 9
M  V30 32 1 29 18
M  V30 33 2 28 23
M  V30 34 1 1 31
M  V30 35 1 1 32
M  V30 36 1 1 33
M  V30 37 1 2 34
M  V30 38 1 3 35
M  V30 39 1 3 36
M  V30 40 1 3 37
M  V30 41 1 5 38
M  V30 42 1 10 39
M  V30 43 1 11 40
M  V30 44 1 12 41
M  V30 45 1 14 42
M  V30 46 1 17 43
M  V30 47 1 19 44
M  V30 48 1 20 45
M  V30 49 1 21 46
M  V30 50 1 24 47
M  V30 51 1 27 48
M  V30 52 1 27 49
M  V30 53 1 27 50
M  V30 54 1 28 51
M  V30 55 1 29 52
M  V30 END BOND
M  V30 END CTAB
M  END
>  <Dataset>  (854) 
ChEMBL_Kinases

>  <Ligand_Instance>  (854) 
nan

>  <PDB_ID>  (854) 
nan

>  <Standardized_SMILES>  (854) 
CC(C)n1cnnc1-c1cccc(NC(=O)Nc2cccc(-c3cnn(C)c3)c2)n1

>  <Name>  (854) 
nan

>  <Pocket>  (854) 
nan

>  <ATP_Site>  (854) 
nan

>  <Peripheral>  (854) 
nan

>  <Num_H_Atoms_ProtBoundConf>  (854) 
nan

>  <Num_Resolved_Atoms>  (854) 
nan

>  <Num_Not_Resolved_Atoms>  (854) 
nan

$$$$
CHEMBL4435096
     RDKit          3D

  0  0  0  0  0  0  0  0  0  0999 V3000
M  V30 BEGIN CTAB
M  V30 COUNTS 39 42 0 0 0
M  V30 BEGIN ATOM
M  V30 1 C 0.036917 -1.627057 5.033411 0
M  V30 2 C 0.520986 -2.842685 4.619164 0
M  V30 3 C 0.690906 -3.084829 3.274660 0
M  V30 4 C 0.426159 -2.225221 2.235997 0
M  V30 5 C 0.739038 -2.847154 0.967551 0
M  V30 6 N 1.221863 -4.095515 0.687648 0
M  V30 7 N 1.371934 -4.287721 -0.593834 0
M  V30 8 C 0.984022 -3.149768 -1.177329 0
M  V30 9 C 0.973605 -2.907582 -2.517694 0
M  V30 10 C 0.560669 -1.719895 -3.054163 0
M  V30 11 N 0.181367 -0.854886 -2.121343 0
M  V30 12 C 0.182356 -1.071654 -0.774512 0
M  V30 13 N -0.278540 0.002322 0.040361 0
M  V30 14 C -0.740471 1.078685 0.857234 0
M  V30 15 C -1.512664 2.203862 0.171672 0
M  V30 16 C -0.699331 3.144976 -0.606140 0
M  V30 17 O 0.639929 2.955360 -0.662778 0
M  V30 18 C 1.264902 2.323838 0.344675 0
M  V30 19 C 0.419774 1.864700 1.497896 0
M  V30 20 C 0.588362 -2.242002 -0.238609 0
M  V30 21 N -0.008286 -1.154858 2.732087 0
M  V30 22 C -0.215988 -0.796361 3.970571 0
M  V30 23 H -0.144896 -1.294557 6.040003 0
M  V30 24 H 0.751091 -3.568837 5.406704 0
M  V30 25 H 1.087142 -4.112878 3.143949 0
M  V30 26 H 1.739761 -5.222791 -0.863321 0
M  V30 27 H 1.287500 -3.632034 -3.250261 0
M  V30 28 H 0.531117 -1.474840 -4.104114 0
M  V30 29 H -0.457282 0.771731 -0.579443 0
M  V30 30 H -1.420531 0.748522 1.675372 0
M  V30 31 H -2.051090 2.737237 0.978167 0
M  V30 32 H -2.334777 1.733493 -0.445941 0
M  V30 33 H -0.874483 4.202099 -0.245288 0
M  V30 34 H -1.079621 3.160864 -1.650258 0
M  V30 35 H 2.062689 2.970484 0.782359 0
M  V30 36 H 1.785459 1.433119 -0.078392 0
M  V30 37 H 1.028880 1.268499 2.161847 0
M  V30 38 H -0.061524 2.742091 1.995172 0
M  V30 39 H -0.609977 0.230436 4.093036 0
M  V30 END ATOM
M  V30 BEGIN BOND
M  V30 1 2 1 2
M  V30 2 1 2 3
M  V30 3 2 3 4
M  V30 4 1 4 5
M  V30 5 2 5 6
M  V30 6 1 6 7
M  V30 7 1 7 8
M  V30 8 2 8 9
M  V30 9 1 9 10
M  V30 10 2 10 11
M  V30 11 1 11 12
M  V30 12 1 12 13
M  V30 13 1 13 14
M  V30 14 1 14 15
M  V30 15 1 15 16
M  V30 16 1 16 17
M  V30 17 1 17 18
M  V30 18 1 18 19
M  V30 19 2 12 20
M  V30 20 1 4 21
M  V30 21 2 21 22
M  V30 22 1 22 1
M  V30 23 1 20 5
M  V30 24 1 20 8
M  V30 25 1 19 14
M  V30 26 1 1 23
M  V30 27 1 2 24
M  V30 28 1 3 25
M  V30 29 1 7 26
M  V30 30 1 9 27
M  V30 31 1 10 28
M  V30 32 1 13 29
M  V30 33 1 14 30
M  V30 34 1 15 31
M  V30 35 1 15 32
M  V30 36 1 16 33
M  V30 37 1 16 34
M  V30 38 1 18 35
M  V30 39 1 18 36
M  V30 40 1 19 37
M  V30 41 1 19 38
M  V30 42 1 22 39
M  V30 END BOND
M  V30 END CTAB
M  END
>  <Dataset>  (855) 
ChEMBL_Kinases

>  <Ligand_Instance>  (855) 
nan

>  <PDB_ID>  (855) 
nan

>  <Standardized_SMILES>  (855) 
c1ccc(-c2n[nH]c3ccnc(NC4CCOCC4)c23)nc1

>  <Name>  (855) 
nan

>  <Pocket>  (855) 
nan

>  <ATP_Site>  (855) 
nan

>  <Peripheral>  (855) 
nan

>  <Num_H_Atoms_ProtBoundConf>  (855) 
nan

>  <Num_Resolved_Atoms>  (855) 
nan

>  <Num_Not_Resolved_Atoms>  (855) 
nan

$$$$
CHEMBL4753541
     RDKit          3D

  0  0  0  0  0  0  0  0  0  0999 V3000
M  V30 BEGIN CTAB
M  V30 COUNTS 35 36 0 0 0
M  V30 BEGIN ATOM
M  V30 1 C -3.721024 -4.038157 4.340824 0
M  V30 2 O -3.674072 -3.722354 2.963168 0
M  V30 3 C -2.522438 -3.344050 2.284764 0
M  V30 4 C -1.277830 -3.229752 2.874394 0
M  V30 5 C -0.231951 -2.840228 2.051849 0
M  V30 6 C -0.441638 -2.581018 0.701714 0
M  V30 7 N 0.752730 -2.187297 -0.007725 0
M  V30 8 C 0.933818 -0.788480 0.018678 0
M  V30 9 O 0.197213 0.073491 0.566813 0
M  V30 10 C 2.092575 -0.141346 -0.643228 0
M  V30 11 C 2.049821 1.342003 -0.469153 0
M  V30 12 S 0.541046 2.030152 -1.187974 0
M  V30 13 C 0.750455 3.775285 -1.587127 0
M  V30 14 C 2.060820 4.327873 -1.088472 0
M  V30 15 N 3.174450 3.439350 -1.155350 0
M  V30 16 C 3.235482 2.028496 -1.017118 0
M  V30 17 O 4.251578 1.362719 -1.342269 0
M  V30 18 C -1.702330 -2.701366 0.124855 0
M  V30 19 C -2.753578 -3.091492 0.945540 0
M  V30 20 F -3.946281 -3.189739 0.330064 0
M  V30 21 H -2.949152 -3.531437 4.947449 0
M  V30 22 H -3.584589 -5.120873 4.460964 0
M  V30 23 H -4.699901 -3.757746 4.790716 0
M  V30 24 H -1.183989 -3.445903 3.928491 0
M  V30 25 H 0.729434 -2.759269 2.541118 0
M  V30 26 H 1.445816 -2.792673 -0.503115 0
M  V30 27 H 2.222726 -0.475813 -1.688040 0
M  V30 28 H 3.004755 -0.507958 -0.097025 0
M  V30 29 H 2.028135 1.538405 0.624097 0
M  V30 30 H 0.713676 3.897942 -2.685631 0
M  V30 31 H -0.118851 4.316193 -1.165467 0
M  V30 32 H 1.867997 4.547144 0.001408 0
M  V30 33 H 2.285402 5.298332 -1.570586 0
M  V30 34 H 4.129457 3.878928 -1.337830 0
M  V30 35 H -1.765602 -2.480817 -0.921505 0
M  V30 END ATOM
M  V30 BEGIN BOND
M  V30 1 1 1 2
M  V30 2 1 2 3
M  V30 3 2 3 4
M  V30 4 1 4 5
M  V30 5 2 5 6
M  V30 6 1 6 7
M  V30 7 1 7 8
M  V30 8 2 8 9
M  V30 9 1 8 10
M  V30 10 1 10 11
M  V30 11 1 11 12
M  V30 12 1 12 13
M  V30 13 1 13 14
M  V30 14 1 14 15
M  V30 15 1 15 16
M  V30 16 2 16 17
M  V30 17 1 6 18
M  V30 18 2 18 19
M  V30 19 1 19 20
M  V30 20 1 19 3
M  V30 21 1 16 11
M  V30 22 1 1 21
M  V30 23 1 1 22
M  V30 24 1 1 23
M  V30 25 1 4 24
M  V30 26 1 5 25
M  V30 27 1 7 26
M  V30 28 1 10 27
M  V30 29 1 10 28
M  V30 30 1 11 29
M  V30 31 1 13 30
M  V30 32 1 13 31
M  V30 33 1 14 32
M  V30 34 1 14 33
M  V30 35 1 15 34
M  V30 36 1 18 35
M  V30 END BOND
M  V30 END CTAB
M  END
>  <Dataset>  (856) 
ChEMBL_Kinases

>  <Ligand_Instance>  (856) 
nan

>  <PDB_ID>  (856) 
nan

>  <Standardized_SMILES>  (856) 
COc1ccc(NC(=O)CC2SCCNC2=O)cc1F

>  <Name>  (856) 
nan

>  <Pocket>  (856) 
nan

>  <ATP_Site>  (856) 
nan

>  <Peripheral>  (856) 
nan

>  <Num_H_Atoms_ProtBoundConf>  (856) 
nan

>  <Num_Resolved_Atoms>  (856) 
nan

>  <Num_Not_Resolved_Atoms>  (856) 
nan

$$$$
CHEMBL4435004
     RDKit          3D

  0  0  0  0  0  0  0  0  0  0999 V3000
M  V30 BEGIN CTAB
M  V30 COUNTS 43 46 0 0 0
M  V30 BEGIN ATOM
M  V30 1 N -0.694815 -4.848928 1.083512 0
M  V30 2 C 0.162000 -3.708776 0.751664 0
M  V30 3 C -0.133928 -2.524846 1.640028 0
M  V30 4 C 0.761654 -1.407828 1.256861 0
M  V30 5 C 1.960832 -1.477252 1.968419 0
M  V30 6 C 2.957091 -0.516667 1.764778 0
M  V30 7 C 2.772025 0.509604 0.862164 0
M  V30 8 C 1.584394 0.570919 0.163212 0
M  V30 9 C 1.196092 1.574956 -0.831620 0
M  V30 10 C 0.610568 1.142971 -2.028847 0
M  V30 11 C 0.217585 2.047634 -3.022142 0
M  V30 12 N 0.405684 3.365349 -2.824799 0
M  V30 13 C 0.963591 3.812342 -1.689612 0
M  V30 14 N 1.267443 5.053199 -1.228606 0
M  V30 15 N 1.817565 4.938774 -0.020213 0
M  V30 16 C 1.896728 3.651273 0.354883 0
M  V30 17 C 1.358687 2.939544 -0.696766 0
M  V30 18 C 0.604119 -0.376655 0.365483 0
M  V30 19 C -0.055890 -2.853471 3.098869 0
M  V30 20 C -1.454435 -2.753196 3.724140 0
M  V30 21 O -2.029509 -1.516866 3.565328 0
M  V30 22 C -1.834085 -0.941789 2.311269 0
M  V30 23 C -1.564428 -2.106497 1.372238 0
M  V30 24 H -0.223097 -5.345265 1.871419 0
M  V30 25 H -0.639342 -5.497978 0.246932 0
M  V30 26 H 0.021433 -3.433635 -0.313019 0
M  V30 27 H 1.207074 -4.066093 0.856601 0
M  V30 28 H 2.322891 -2.189570 2.720537 0
M  V30 29 H 3.918858 -0.468646 2.254521 0
M  V30 30 H 3.479623 1.290734 0.639334 0
M  V30 31 H 0.430793 0.092929 -2.250651 0
M  V30 32 H -0.234027 1.704567 -3.943965 0
M  V30 33 H 1.081005 5.936318 -1.771880 0
M  V30 34 H 2.294023 3.272785 1.275443 0
M  V30 35 H -0.351530 -0.406287 -0.135939 0
M  V30 36 H 0.267680 -3.895786 3.241430 0
M  V30 37 H 0.547981 -2.116680 3.697418 0
M  V30 38 H -2.080398 -3.614418 3.481366 0
M  V30 39 H -1.253194 -2.850831 4.833074 0
M  V30 40 H -2.665991 -0.311002 1.983239 0
M  V30 41 H -0.902260 -0.337981 2.336675 0
M  V30 42 H -2.272603 -2.941126 1.574092 0
M  V30 43 H -1.742918 -1.775212 0.351921 0
M  V30 END ATOM
M  V30 BEGIN BOND
M  V30 1 1 1 2
M  V30 2 1 2 3
M  V30 3 1 3 4
M  V30 4 2 4 5
M  V30 5 1 5 6
M  V30 6 2 6 7
M  V30 7 1 7 8
M  V30 8 1 8 9
M  V30 9 2 9 10
M  V30 10 1 10 11
M  V30 11 2 11 12
M  V30 12 1 12 13
M  V30 13 1 13 14
M  V30 14 1 14 15
M  V30 15 2 15 16
M  V30 16 1 16 17
M  V30 17 2 8 18
M  V30 18 1 3 19
M  V30 19 1 19 20
M  V30 20 1 20 21
M  V30 21 1 21 22
M  V30 22 1 22 23
M  V30 23 1 23 3
M  V30 24 1 18 4
M  V30 25 1 17 9
M  V30 26 2 17 13
M  V30 27 1 1 24
M  V30 28 1 1 25
M  V30 29 1 2 26
M  V30 30 1 2 27
M  V30 31 1 5 28
M  V30 32 1 6 29
M  V30 33 1 7 30
M  V30 34 1 10 31
M  V30 35 1 11 32
M  V30 36 1 14 33
M  V30 37 1 16 34
M  V30 38 1 18 35
M  V30 39 1 19 36
M  V30 40 1 19 37
M  V30 41 1 20 38
M  V30 42 1 20 39
M  V30 43 1 22 40
M  V30 44 1 22 41
M  V30 45 1 23 42
M  V30 46 1 23 43
M  V30 END BOND
M  V30 END CTAB
M  END
>  <Dataset>  (857) 
ChEMBL_Kinases

>  <Ligand_Instance>  (857) 
nan

>  <PDB_ID>  (857) 
nan

>  <Standardized_SMILES>  (857) 
NCC1(c2cccc(-c3ccnc4[nH]ncc34)c2)CCOCC1

>  <Name>  (857) 
nan

>  <Pocket>  (857) 
nan

>  <ATP_Site>  (857) 
nan

>  <Peripheral>  (857) 
nan

>  <Num_H_Atoms_ProtBoundConf>  (857) 
nan

>  <Num_Resolved_Atoms>  (857) 
nan

>  <Num_Not_Resolved_Atoms>  (857) 
nan

$$$$
CHEMBL4753609
     RDKit          3D

  0  0  0  0  0  0  0  0  0  0999 V3000
M  V30 BEGIN CTAB
M  V30 COUNTS 31 33 0 0 0
M  V30 BEGIN ATOM
M  V30 1 C -2.161424 -0.996278 5.953762 0
M  V30 2 C -1.850346 -1.400634 4.841241 0
M  V30 3 C -1.477067 -1.878094 3.559431 0
M  V30 4 N -0.308648 -1.452437 3.035363 0
M  V30 5 C 0.092808 -1.875777 1.806720 0
M  V30 6 N 1.255808 -1.598236 1.039872 0
M  V30 7 C 1.485627 -0.448161 0.234306 0
M  V30 8 C 0.575580 0.595069 0.283358 0
M  V30 9 C 0.918714 1.639558 -0.549854 0
M  V30 10 C 2.023818 1.673023 -1.346156 0
M  V30 11 C 2.343167 2.801301 -2.205505 0
M  V30 12 N 3.498259 2.830767 -3.046241 0
M  V30 13 O 1.844611 3.913256 -2.475837 0
M  V30 14 C 2.902185 0.623454 -1.371190 0
M  V30 15 C 2.605832 -0.444635 -0.555302 0
M  V30 16 N -0.722485 -2.731935 1.142778 0
M  V30 17 C -1.889131 -3.184988 1.618498 0
M  V30 18 N -2.832604 -4.024356 1.139664 0
M  V30 19 C -3.813429 -4.127120 2.056506 0
M  V30 20 N -3.477742 -3.344291 3.116591 0
M  V30 21 C -2.286437 -2.750338 2.864123 0
M  V30 22 H -2.449188 -0.633151 6.924741 0
M  V30 23 H 1.953171 -2.370197 1.138159 0
M  V30 24 H -0.301444 0.610165 0.904278 0
M  V30 25 H 0.299173 2.525744 -0.613157 0
M  V30 26 H 3.443283 2.667342 -4.097374 0
M  V30 27 H 3.818298 2.725728 -4.053357 0
M  V30 28 H 3.794903 0.614906 -1.990672 0
M  V30 29 H 3.268684 -1.273896 -0.547835 0
M  V30 30 H -2.706933 -4.471555 0.188340 0
M  V30 31 H -4.692408 -4.738545 1.920214 0
M  V30 END ATOM
M  V30 BEGIN BOND
M  V30 1 3 1 2
M  V30 2 1 2 3
M  V30 3 2 3 4
M  V30 4 1 4 5
M  V30 5 1 5 6
M  V30 6 1 6 7
M  V30 7 2 7 8
M  V30 8 1 8 9
M  V30 9 2 9 10
M  V30 10 1 10 11
M  V30 11 1 11 12
M  V30 12 2 11 13
M  V30 13 1 10 14
M  V30 14 2 14 15
M  V30 15 2 5 16
M  V30 16 1 16 17
M  V30 17 1 17 18
M  V30 18 1 18 19
M  V30 19 2 19 20
M  V30 20 1 20 21
M  V30 21 1 21 3
M  V30 22 1 15 7
M  V30 23 2 21 17
M  V30 24 1 1 22
M  V30 25 1 6 23
M  V30 26 1 8 24
M  V30 27 1 9 25
M  V30 28 1 12 26
M  V30 29 1 12 27
M  V30 30 1 14 28
M  V30 31 1 15 29
M  V30 32 1 18 30
M  V30 33 1 19 31
M  V30 END BOND
M  V30 END CTAB
M  END
>  <Dataset>  (858) 
ChEMBL_Kinases

>  <Ligand_Instance>  (858) 
nan

>  <PDB_ID>  (858) 
nan

>  <Standardized_SMILES>  (858) 
C#Cc1nc(Nc2ccc(C(N)=O)cc2)nc2[nH]cnc12

>  <Name>  (858) 
nan

>  <Pocket>  (858) 
nan

>  <ATP_Site>  (858) 
nan

>  <Peripheral>  (858) 
nan

>  <Num_H_Atoms_ProtBoundConf>  (858) 
nan

>  <Num_Resolved_Atoms>  (858) 
nan

>  <Num_Not_Resolved_Atoms>  (858) 
nan

$$$$
CHEMBL4434926
     RDKit          3D

  0  0  0  0  0  0  0  0  0  0999 V3000
M  V30 BEGIN CTAB
M  V30 COUNTS 48 51 0 0 0
M  V30 BEGIN ATOM
M  V30 1 C 2.218762 -4.407353 5.016488 0
M  V30 2 C 2.150879 -4.602501 3.544879 0
M  V30 3 C 0.937552 -4.937610 2.983046 0
M  V30 4 C 0.785509 -5.136987 1.627572 0
M  V30 5 C 1.847792 -5.010023 0.757791 0
M  V30 6 C 1.873705 -5.173099 -0.708366 0
M  V30 7 O 1.694294 -3.987110 -1.434124 0
M  V30 8 C 0.603266 -3.170562 -1.383447 0
M  V30 9 O -0.384530 -3.416076 -0.651432 0
M  V30 10 N 0.619085 -2.003564 -2.205504 0
M  V30 11 C -0.458730 -1.072641 -2.242004 0
M  V30 12 C -0.533328 0.011155 -1.402628 0
M  V30 13 C -1.570837 0.920807 -1.426548 0
M  V30 14 C -1.568929 2.046262 -0.495628 0
M  V30 15 C -2.542694 3.022122 -0.417277 0
M  V30 16 C -2.128796 3.864543 0.587710 0
M  V30 17 C -0.926934 3.413447 1.113176 0
M  V30 18 N -0.622717 2.296675 0.418176 0
M  V30 19 C -0.170998 4.065113 2.216188 0
M  V30 20 C -0.513299 5.532707 2.305848 0
M  V30 21 N -1.950767 5.722925 2.255487 0
M  V30 22 C -2.668573 5.094376 1.200064 0
M  V30 23 O -3.765034 5.533511 0.743472 0
M  V30 24 C -2.603267 0.759747 -2.330976 0
M  V30 25 C -2.501057 -0.338243 -3.161444 0
M  V30 26 N -1.483103 -1.217561 -3.127085 0
M  V30 27 C 3.049432 -4.670870 1.375043 0
M  V30 28 C 3.249429 -4.462003 2.723443 0
M  V30 29 H 3.059751 -3.760048 5.311655 0
M  V30 30 H 2.279824 -5.428571 5.481983 0
M  V30 31 H 1.249466 -3.990582 5.388980 0
M  V30 32 H 0.032830 -5.061988 3.588845 0
M  V30 33 H -0.155789 -5.406496 1.171714 0
M  V30 34 H 2.844440 -5.652971 -0.957531 0
M  V30 35 H 1.111202 -5.951148 -1.017718 0
M  V30 36 H 1.400168 -1.719138 -2.847252 0
M  V30 37 H 0.292362 0.104019 -0.709002 0
M  V30 38 H -3.438005 3.143252 -0.986203 0
M  V30 39 H 0.212706 1.708195 0.556382 0
M  V30 40 H -0.440162 3.604034 3.179478 0
M  V30 41 H 0.926045 4.016309 2.045107 0
M  V30 42 H 0.013733 6.147283 1.553050 0
M  V30 43 H -0.169584 5.891149 3.297623 0
M  V30 44 H -2.512828 6.288135 2.934723 0
M  V30 45 H -3.434317 1.441029 -2.389244 0
M  V30 46 H -3.318437 -0.465258 -3.877077 0
M  V30 47 H 3.955612 -4.547020 0.762412 0
M  V30 48 H 4.198896 -4.204586 3.124879 0
M  V30 END ATOM
M  V30 BEGIN BOND
M  V30 1 1 1 2
M  V30 2 2 2 3
M  V30 3 1 3 4
M  V30 4 2 4 5
M  V30 5 1 5 6
M  V30 6 1 6 7
M  V30 7 1 7 8
M  V30 8 2 8 9
M  V30 9 1 8 10
M  V30 10 1 10 11
M  V30 11 2 11 12
M  V30 12 1 12 13
M  V30 13 1 13 14
M  V30 14 2 14 15
M  V30 15 1 15 16
M  V30 16 2 16 17
M  V30 17 1 17 18
M  V30 18 1 17 19
M  V30 19 1 19 20
M  V30 20 1 20 21
M  V30 21 1 21 22
M  V30 22 2 22 23
M  V30 23 2 13 24
M  V30 24 1 24 25
M  V30 25 2 25 26
M  V30 26 1 5 27
M  V30 27 2 27 28
M  V30 28 1 28 2
M  V30 29 1 26 11
M  V30 30 1 18 14
M  V30 31 1 22 16
M  V30 32 1 1 29
M  V30 33 1 1 30
M  V30 34 1 1 31
M  V30 35 1 3 32
M  V30 36 1 4 33
M  V30 37 1 6 34
M  V30 38 1 6 35
M  V30 39 1 10 36
M  V30 40 1 12 37
M  V30 41 1 15 38
M  V30 42 1 18 39
M  V30 43 1 19 40
M  V30 44 1 19 41
M  V30 45 1 20 42
M  V30 46 1 20 43
M  V30 47 1 21 44
M  V30 48 1 24 45
M  V30 49 1 25 46
M  V30 50 1 27 47
M  V30 51 1 28 48
M  V30 END BOND
M  V30 END CTAB
M  END
>  <Dataset>  (859) 
ChEMBL_Kinases

>  <Ligand_Instance>  (859) 
nan

>  <PDB_ID>  (859) 
nan

>  <Standardized_SMILES>  (859) 
Cc1ccc(COC(=O)Nc2cc(-c3cc4c([nH]3)CCNC4=O)ccn2)cc1

>  <Name>  (859) 
nan

>  <Pocket>  (859) 
nan

>  <ATP_Site>  (859) 
nan

>  <Peripheral>  (859) 
nan

>  <Num_H_Atoms_ProtBoundConf>  (859) 
nan

>  <Num_Resolved_Atoms>  (859) 
nan

>  <Num_Not_Resolved_Atoms>  (859) 
nan

$$$$
CHEMBL4753625
     RDKit          3D

  0  0  0  0  0  0  0  0  0  0999 V3000
M  V30 BEGIN CTAB
M  V30 COUNTS 36 38 0 0 0
M  V30 BEGIN ATOM
M  V30 1 C 0.374731 -5.618997 3.339583 0
M  V30 2 C 1.670021 -4.862328 3.140295 0
M  V30 3 C 1.469263 -3.687956 2.239498 0
M  V30 4 C 1.635695 -3.870694 0.884032 0
M  V30 5 C 1.436934 -2.743695 0.105525 0
M  V30 6 C 1.101565 -1.546573 0.650881 0
M  V30 7 C 0.890843 -0.358899 -0.152860 0
M  V30 8 C 0.973535 -0.204846 -1.479480 0
M  V30 9 C 0.739037 1.003614 -2.071791 0
M  V30 10 N 0.760352 1.402500 -3.356399 0
M  V30 11 C 0.495316 2.647870 -3.700394 0
M  V30 12 N 0.175459 3.677468 -2.867395 0
M  V30 13 C 0.130436 3.372552 -1.567636 0
M  V30 14 S -0.265775 4.553849 -0.288011 0
M  V30 15 C -2.045668 4.612787 0.028527 0
M  V30 16 C -2.526440 3.321192 0.616682 0
M  V30 17 O -2.528135 3.186568 1.876968 0
M  V30 18 O -3.000321 2.172500 -0.007260 0
M  V30 19 C 0.410998 2.043557 -1.177269 0
M  V30 20 S 0.453626 1.250893 0.446889 0
M  V30 21 C 0.946955 -1.418995 2.022178 0
M  V30 22 C 1.129070 -2.499150 2.861231 0
M  V30 23 H 0.318655 -6.151263 4.299431 0
M  V30 24 H -0.439816 -4.854347 3.353155 0
M  V30 25 H 0.166981 -6.259984 2.456138 0
M  V30 26 H 2.011224 -4.516502 4.158665 0
M  V30 27 H 2.422491 -5.553725 2.759673 0
M  V30 28 H 1.897790 -4.797485 0.433573 0
M  V30 29 H 1.552798 -2.820644 -0.972114 0
M  V30 30 H 1.237992 -1.082137 -2.097095 0
M  V30 31 H 0.547603 2.838776 -4.784814 0
M  V30 32 H -2.234427 5.394771 0.782219 0
M  V30 33 H -2.619407 4.876721 -0.893270 0
M  V30 34 H -2.767825 1.247790 0.363506 0
M  V30 35 H 0.680235 -0.472725 2.470091 0
M  V30 36 H 1.011874 -2.409336 3.922035 0
M  V30 END ATOM
M  V30 BEGIN BOND
M  V30 1 1 1 2
M  V30 2 1 2 3
M  V30 3 2 3 4
M  V30 4 1 4 5
M  V30 5 2 5 6
M  V30 6 1 6 7
M  V30 7 2 7 8
M  V30 8 1 8 9
M  V30 9 2 9 10
M  V30 10 1 10 11
M  V30 11 2 11 12
M  V30 12 1 12 13
M  V30 13 1 13 14
M  V30 14 1 14 15
M  V30 15 1 15 16
M  V30 16 2 16 17
M  V30 17 1 16 18
M  V30 18 2 13 19
M  V30 19 1 19 20
M  V30 20 1 6 21
M  V30 21 2 21 22
M  V30 22 1 22 3
M  V30 23 1 20 7
M  V30 24 1 19 9
M  V30 25 1 1 23
M  V30 26 1 1 24
M  V30 27 1 1 25
M  V30 28 1 2 26
M  V30 29 1 2 27
M  V30 30 1 4 28
M  V30 31 1 5 29
M  V30 32 1 8 30
M  V30 33 1 11 31
M  V30 34 1 15 32
M  V30 35 1 15 33
M  V30 36 1 18 34
M  V30 37 1 21 35
M  V30 38 1 22 36
M  V30 END BOND
M  V30 END CTAB
M  END
>  <Dataset>  (860) 
ChEMBL_Kinases

>  <Ligand_Instance>  (860) 
nan

>  <PDB_ID>  (860) 
nan

>  <Standardized_SMILES>  (860) 
CCc1ccc(-c2cc3ncnc(SCC(=O)O)c3s2)cc1

>  <Name>  (860) 
nan

>  <Pocket>  (860) 
nan

>  <ATP_Site>  (860) 
nan

>  <Peripheral>  (860) 
nan

>  <Num_H_Atoms_ProtBoundConf>  (860) 
nan

>  <Num_Resolved_Atoms>  (860) 
nan

>  <Num_Not_Resolved_Atoms>  (860) 
nan

$$$$
CHEMBL4434912
     RDKit          3D

  0  0  0  0  0  0  0  0  0  0999 V3000
M  V30 BEGIN CTAB
M  V30 COUNTS 41 44 0 0 0
M  V30 BEGIN ATOM
M  V30 1 C 2.307011 -4.567627 1.862066 0
M  V30 2 C 2.275092 -4.351698 0.374526 0 CFG=2
M  V30 3 O 3.458859 -4.512575 -0.269243 0
M  V30 4 C 1.831494 -2.966623 0.074751 0
M  V30 5 C 1.455967 -1.845872 -0.183159 0
M  V30 6 C 1.026717 -0.505057 -0.495409 0
M  V30 7 C 0.663305 -0.224177 -1.800031 0
M  V30 8 C 0.250431 1.056581 -2.111506 0
M  V30 9 C 0.206062 2.029276 -1.128371 0
M  V30 10 F -0.199045 3.288929 -1.430443 0
M  V30 11 C 0.581288 1.687909 0.156162 0
M  V30 12 C 0.515179 2.754349 1.154763 0
M  V30 13 C 1.540925 3.638203 1.480289 0
M  V30 14 N 1.108701 4.477365 2.442692 0
M  V30 15 C -0.148493 4.201398 2.776408 0
M  V30 16 C -1.119440 4.664502 3.647838 0
M  V30 17 N -2.355272 4.155112 3.759773 0
M  V30 18 C -2.675559 3.120560 2.969677 0
M  V30 19 N -3.966350 2.483353 2.991065 0
M  V30 20 N -1.765187 2.626201 2.098033 0
M  V30 21 C -0.525705 3.132194 1.981329 0
M  V30 22 C 1.005427 0.414482 0.527601 0
M  V30 23 C 1.193071 -5.316038 -0.124481 0
M  V30 24 N 0.049257 -5.381199 -0.340356 0
M  V30 25 C -0.608407 -6.425298 -0.792454 0
M  V30 26 C 0.151779 -7.578220 -1.038731 0
M  V30 27 S 1.869778 -6.976023 -0.550175 0
M  V30 28 H 2.220654 -5.628959 2.085655 0
M  V30 29 H 3.200873 -4.084900 2.307493 0
M  V30 30 H 1.430408 -4.008761 2.286368 0
M  V30 31 H 4.001859 -5.232243 0.176985 0
M  V30 32 H 0.717447 -1.035718 -2.542649 0
M  V30 33 H -0.030701 1.259063 -3.138839 0
M  V30 34 H 2.503481 3.599674 0.998082 0
M  V30 35 H 1.652940 5.249660 2.890702 0
M  V30 36 H -0.823137 5.511375 4.278772 0
M  V30 37 H -3.773617 1.520820 3.391370 0
M  V30 38 H -4.676626 3.173106 2.605969 0
M  V30 39 H 1.292983 0.181024 1.546285 0
M  V30 40 H -1.685875 -6.212069 -0.906333 0
M  V30 41 H -0.604739 -8.468128 -1.457392 0
M  V30 END ATOM
M  V30 BEGIN BOND
M  V30 1 1 1 2
M  V30 2 1 2 3
M  V30 3 1 2 4 CFG=1
M  V30 4 3 4 5
M  V30 5 1 5 6
M  V30 6 2 6 7
M  V30 7 1 7 8
M  V30 8 2 8 9
M  V30 9 1 9 10
M  V30 10 1 9 11
M  V30 11 1 11 12
M  V30 12 2 12 13
M  V30 13 1 13 14
M  V30 14 1 14 15
M  V30 15 2 15 16
M  V30 16 1 16 17
M  V30 17 2 17 18
M  V30 18 1 18 19
M  V30 19 1 18 20
M  V30 20 2 20 21
M  V30 21 2 11 22
M  V30 22 1 2 23
M  V30 23 2 23 24
M  V30 24 1 24 25
M  V30 25 2 25 26
M  V30 26 1 26 27
M  V30 27 1 22 6
M  V30 28 1 27 23
M  V30 29 1 21 12
M  V30 30 1 21 15
M  V30 31 1 1 28
M  V30 32 1 1 29
M  V30 33 1 1 30
M  V30 34 1 3 31
M  V30 35 1 7 32
M  V30 36 1 8 33
M  V30 37 1 13 34
M  V30 38 1 14 35
M  V30 39 1 16 36
M  V30 40 1 19 37
M  V30 41 1 19 38
M  V30 42 1 22 39
M  V30 43 1 25 40
M  V30 44 1 26 41
M  V30 END BOND
M  V30 END CTAB
M  END
>  <Dataset>  (861) 
ChEMBL_Kinases

>  <Ligand_Instance>  (861) 
nan

>  <PDB_ID>  (861) 
nan

>  <Standardized_SMILES>  (861) 
C[C@](O)(C#Cc1ccc(F)c(-c2c[nH]c3cnc(N)nc23)c1)c1nccs1

>  <Name>  (861) 
nan

>  <Pocket>  (861) 
nan

>  <ATP_Site>  (861) 
nan

>  <Peripheral>  (861) 
nan

>  <Num_H_Atoms_ProtBoundConf>  (861) 
nan

>  <Num_Resolved_Atoms>  (861) 
nan

>  <Num_Not_Resolved_Atoms>  (861) 
nan

$$$$
CHEMBL4434881
     RDKit          3D

  0  0  0  0  0  0  0  0  0  0999 V3000
M  V30 BEGIN CTAB
M  V30 COUNTS 52 55 0 0 0
M  V30 BEGIN ATOM
M  V30 1 C -2.292921 0.251115 1.059327 0
M  V30 2 C -1.998947 -1.202028 0.801981 0
M  V30 3 C -0.700732 -1.583114 0.525761 0
M  V30 4 N 0.339050 -0.645147 0.482762 0
M  V30 5 C 1.713084 -0.792123 0.226958 0
M  V30 6 O 2.094128 -1.967450 -0.006819 0
M  V30 7 C 2.756543 0.210809 0.192656 0
M  V30 8 C 4.062280 -0.137616 -0.080386 0
M  V30 9 C 5.098127 0.766833 -0.127512 0
M  V30 10 C 4.863601 2.103135 0.104337 0
M  V30 11 N 3.600337 2.468157 0.372506 0
M  V30 12 C 3.388642 3.853944 0.607564 0
M  V30 13 C 2.725564 4.637576 -0.295081 0
M  V30 14 C 2.533784 5.980019 -0.042032 0
M  V30 15 C 3.004947 6.538372 1.113192 0
M  V30 16 F 2.813379 7.860854 1.357457 0
M  V30 17 C 3.688916 5.798174 2.075663 0
M  V30 18 C 3.849683 4.465383 1.767959 0
M  V30 19 C 2.620838 1.559263 0.409368 0
M  V30 20 O 1.505657 2.037139 0.668436 0
M  V30 21 C -0.584847 -2.937721 0.312271 0
M  V30 22 C -1.594774 -3.872337 0.351137 0
M  V30 23 C -2.860012 -3.416017 0.632516 0
M  V30 24 O -3.944844 -4.278419 0.694517 0
M  V30 25 C -3.796425 -5.641281 0.474237 0
M  V30 26 C -3.522120 -6.458791 1.560982 0
M  V30 27 C -3.349353 -7.830835 1.492825 0
M  V30 28 N -3.461153 -8.400166 0.257422 0
M  V30 29 C -3.726398 -7.635160 -0.815829 0
M  V30 30 C -3.899985 -6.268497 -0.757786 0
M  V30 31 C -3.057307 -2.073088 0.858243 0
M  V30 32 C -4.419680 -1.563149 1.164660 0
M  V30 33 H -3.363698 0.445769 1.092407 0
M  V30 34 H -1.871311 0.884346 0.251801 0
M  V30 35 H -1.862703 0.495196 2.051955 0
M  V30 36 H 0.046302 0.336887 0.673880 0
M  V30 37 H 4.340815 -1.183112 -0.278013 0
M  V30 38 H 6.099388 0.452102 -0.343707 0
M  V30 39 H 5.677059 2.790861 0.064091 0
M  V30 40 H 2.370666 4.173575 -1.185251 0
M  V30 41 H 2.009174 6.571206 -0.769456 0
M  V30 42 H 4.077523 6.202921 3.002769 0
M  V30 43 H 4.374504 3.829492 2.475182 0
M  V30 44 H 0.370368 -3.384690 0.085211 0
M  V30 45 H -1.458548 -4.921580 0.177826 0
M  V30 46 H -3.430624 -6.032949 2.536795 0
M  V30 47 H -3.138626 -8.431073 2.352096 0
M  V30 48 H -3.828889 -8.023585 -1.831144 0
M  V30 49 H -4.113498 -5.638108 -1.608941 0
M  V30 50 H -4.836421 -0.930461 0.352814 0
M  V30 51 H -4.403839 -0.970827 2.124852 0
M  V30 52 H -5.142364 -2.390348 1.319232 0
M  V30 END ATOM
M  V30 BEGIN BOND
M  V30 1 1 1 2
M  V30 2 2 2 3
M  V30 3 1 3 4
M  V30 4 1 4 5
M  V30 5 2 5 6
M  V30 6 1 5 7
M  V30 7 2 7 8
M  V30 8 1 8 9
M  V30 9 2 9 10
M  V30 10 1 10 11
M  V30 11 1 11 12
M  V30 12 2 12 13
M  V30 13 1 13 14
M  V30 14 2 14 15
M  V30 15 1 15 16
M  V30 16 1 15 17
M  V30 17 2 17 18
M  V30 18 1 11 19
M  V30 19 2 19 20
M  V30 20 1 3 21
M  V30 21 2 21 22
M  V30 22 1 22 23
M  V30 23 1 23 24
M  V30 24 1 24 25
M  V30 25 2 25 26
M  V30 26 1 26 27
M  V30 27 2 27 28
M  V30 28 1 28 29
M  V30 29 2 29 30
M  V30 30 2 23 31
M  V30 31 1 31 32
M  V30 32 1 31 2
M  V30 33 1 19 7
M  V30 34 1 30 25
M  V30 35 1 18 12
M  V30 36 1 1 33
M  V30 37 1 1 34
M  V30 38 1 1 35
M  V30 39 1 4 36
M  V30 40 1 8 37
M  V30 41 1 9 38
M  V30 42 1 10 39
M  V30 43 1 13 40
M  V30 44 1 14 41
M  V30 45 1 17 42
M  V30 46 1 18 43
M  V30 47 1 21 44
M  V30 48 1 22 45
M  V30 49 1 26 46
M  V30 50 1 27 47
M  V30 51 1 29 48
M  V30 52 1 30 49
M  V30 53 1 32 50
M  V30 54 1 32 51
M  V30 55 1 32 52
M  V30 END BOND
M  V30 END CTAB
M  END
>  <Dataset>  (862) 
ChEMBL_Kinases

>  <Ligand_Instance>  (862) 
nan

>  <PDB_ID>  (862) 
nan

>  <Standardized_SMILES>  (862) 
Cc1c(NC(=O)c2cccn(-c3ccc(F)cc3)c2=O)ccc(Oc2ccncc2)c1C

>  <Name>  (862) 
nan

>  <Pocket>  (862) 
nan

>  <ATP_Site>  (862) 
nan

>  <Peripheral>  (862) 
nan

>  <Num_H_Atoms_ProtBoundConf>  (862) 
nan

>  <Num_Resolved_Atoms>  (862) 
nan

>  <Num_Not_Resolved_Atoms>  (862) 
nan

$$$$
CHEMBL4753687
     RDKit          3D

  0  0  0  0  0  0  0  0  0  0999 V3000
M  V30 BEGIN CTAB
M  V30 COUNTS 52 55 0 0 0
M  V30 BEGIN ATOM
M  V30 1 C 0.948854 1.229783 -2.938362 0
M  V30 2 N 0.891853 0.308169 -1.793196 0
M  V30 3 C 2.272339 0.027331 -1.454851 0
M  V30 4 C 2.459016 -0.893426 -0.311280 0
M  V30 5 C 1.886245 -0.499521 1.003164 0
M  V30 6 C 2.369581 0.750084 1.586041 0
M  V30 7 C 3.061574 0.804114 2.808219 0
M  V30 8 C 3.548465 1.908342 3.448563 0
M  V30 9 C 3.343047 3.115373 2.833914 0
M  V30 10 C 2.672140 3.180000 1.625152 0
M  V30 11 O 2.486372 4.423664 1.037930 0
M  V30 12 C 1.793811 4.482312 -0.208248 0
M  V30 13 C 2.218354 2.015273 1.056549 0
M  V30 14 N 0.444416 -0.696493 1.113074 0
M  V30 15 C -0.487957 0.252329 1.267967 0
M  V30 16 N -1.800514 -0.003136 1.362678 0
M  V30 17 C -2.299195 -1.250478 1.309557 0
M  V30 18 C -3.655938 -1.390492 1.416969 0
M  V30 19 C -4.145665 -2.680292 1.359735 0
M  V30 20 C -3.270509 -3.761248 1.199723 0
M  V30 21 C -3.816325 -5.112962 1.142561 0
M  V30 22 C -3.318394 -6.353812 1.533961 0
M  V30 23 N -4.255411 -7.290410 1.246040 0
M  V30 24 N -5.318510 -6.729563 0.696759 0
M  V30 25 C -5.080811 -5.401503 0.620279 0
M  V30 26 C -1.892480 -3.544384 1.096437 0
M  V30 27 C -1.378837 -2.268957 1.150486 0
M  V30 28 C -0.035386 -1.971401 1.056357 0
M  V30 29 O 0.678573 -2.994835 0.915362 0
M  V30 30 H 0.817008 2.275349 -2.581550 0
M  V30 31 H 1.925747 1.199610 -3.452531 0
M  V30 32 H 0.188809 0.938032 -3.701172 0
M  V30 33 H 0.373782 -0.535157 -2.057784 0
M  V30 34 H 2.901828 0.933966 -1.467022 0
M  V30 35 H 2.652952 -0.549285 -2.366507 0
M  V30 36 H 3.553444 -1.042025 -0.171283 0
M  V30 37 H 2.084338 -1.917758 -0.585018 0
M  V30 38 H 2.276210 -1.314896 1.716905 0
M  V30 39 H 3.237673 -0.155140 3.319564 0
M  V30 40 H 4.062116 1.828523 4.380361 0
M  V30 41 H 3.707989 4.019289 3.297961 0
M  V30 42 H 1.699959 5.548124 -0.486447 0
M  V30 43 H 2.297348 3.921134 -1.001372 0
M  V30 44 H 0.783443 4.027570 0.003257 0
M  V30 45 H 1.709919 2.148666 0.136617 0
M  V30 46 H -0.148787 1.262638 1.319056 0
M  V30 47 H -4.298088 -0.538709 1.538957 0
M  V30 48 H -5.208913 -2.886457 1.436350 0
M  V30 49 H -2.337449 -6.439807 1.981594 0
M  V30 50 H -6.198332 -7.204277 0.370969 0
M  V30 51 H -5.815256 -4.698499 0.197477 0
M  V30 52 H -1.220107 -4.371294 0.973766 0
M  V30 END ATOM
M  V30 BEGIN BOND
M  V30 1 1 1 2
M  V30 2 1 2 3
M  V30 3 1 3 4
M  V30 4 1 4 5
M  V30 5 1 5 6
M  V30 6 2 6 7
M  V30 7 1 7 8
M  V30 8 2 8 9
M  V30 9 1 9 10
M  V30 10 1 10 11
M  V30 11 1 11 12
M  V30 12 2 10 13
M  V30 13 1 5 14
M  V30 14 1 14 15
M  V30 15 2 15 16
M  V30 16 1 16 17
M  V30 17 2 17 18
M  V30 18 1 18 19
M  V30 19 2 19 20
M  V30 20 1 20 21
M  V30 21 1 21 22
M  V30 22 2 22 23
M  V30 23 1 23 24
M  V30 24 1 24 25
M  V30 25 1 20 26
M  V30 26 2 26 27
M  V30 27 1 27 28
M  V30 28 2 28 29
M  V30 29 1 13 6
M  V30 30 1 28 14
M  V30 31 1 27 17
M  V30 32 2 25 21
M  V30 33 1 1 30
M  V30 34 1 1 31
M  V30 35 1 1 32
M  V30 36 1 2 33
M  V30 37 1 3 34
M  V30 38 1 3 35
M  V30 39 1 4 36
M  V30 40 1 4 37
M  V30 41 1 5 38
M  V30 42 1 7 39
M  V30 43 1 8 40
M  V30 44 1 9 41
M  V30 45 1 12 42
M  V30 46 1 12 43
M  V30 47 1 12 44
M  V30 48 1 13 45
M  V30 49 1 15 46
M  V30 50 1 18 47
M  V30 51 1 19 48
M  V30 52 1 22 49
M  V30 53 1 24 50
M  V30 54 1 25 51
M  V30 55 1 26 52
M  V30 END BOND
M  V30 END CTAB
M  END
>  <Dataset>  (863) 
ChEMBL_Kinases

>  <Ligand_Instance>  (863) 
nan

>  <PDB_ID>  (863) 
nan

>  <Standardized_SMILES>  (863) 
CNCCC(c1cccc(OC)c1)n1cnc2ccc(-c3cn[nH]c3)cc2c1=O

>  <Name>  (863) 
nan

>  <Pocket>  (863) 
nan

>  <ATP_Site>  (863) 
nan

>  <Peripheral>  (863) 
nan

>  <Num_H_Atoms_ProtBoundConf>  (863) 
nan

>  <Num_Resolved_Atoms>  (863) 
nan

>  <Num_Not_Resolved_Atoms>  (863) 
nan

$$$$
CHEMBL4753690
     RDKit          3D

  0  0  0  0  0  0  0  0  0  0999 V3000
M  V30 BEGIN CTAB
M  V30 COUNTS 45 47 0 0 0
M  V30 BEGIN ATOM
M  V30 1 C 0.125351 -5.987533 1.610635 0
M  V30 2 C -0.767937 -6.242068 0.394588 0
M  V30 3 C -1.299932 -4.912563 -0.063474 0
M  V30 4 C -0.694793 -4.072709 -0.991770 0
M  V30 5 C -1.558474 -2.974739 -1.082014 0
M  V30 6 N -1.142224 -1.940769 -2.001714 0
M  V30 7 C -0.335419 -0.959793 -1.394860 0
M  V30 8 O -0.091793 -1.106801 -0.176520 0
M  V30 9 N 0.231006 0.180863 -2.024279 0
M  V30 10 C 1.039975 1.111014 -1.291077 0
M  V30 11 C 1.583962 2.213345 -1.911181 0
M  V30 12 C 2.346220 3.046002 -1.118164 0
M  V30 13 C 2.558802 2.798444 0.222912 0
M  V30 14 C 1.996750 1.681999 0.811115 0
M  V30 15 C 2.102442 1.248506 2.202376 0
M  V30 16 N 3.130257 0.515950 2.705413 0
M  V30 17 N 2.942468 0.280653 3.994153 0
M  V30 18 C 1.780056 0.875745 4.298187 0
M  V30 19 N 1.237476 1.482643 3.209109 0
M  V30 20 C -0.005547 2.226049 3.133843 0
M  V30 21 C 0.234313 3.702847 2.911774 0
M  V30 22 C -0.942117 1.732328 2.081563 0
M  V30 23 N 1.252308 0.881404 0.007212 0
M  V30 24 N -2.601199 -3.169971 -0.253873 0
M  V30 25 N -2.437614 -4.322571 0.345289 0
M  V30 26 H 0.767266 -6.833627 1.856788 0
M  V30 27 H 0.773846 -5.109626 1.353107 0
M  V30 28 H -0.502625 -5.653306 2.458859 0
M  V30 29 H -1.604879 -6.869916 0.751508 0
M  V30 30 H -0.183218 -6.709682 -0.411595 0
M  V30 31 H 0.239370 -4.335086 -1.464247 0
M  V30 32 H -1.346192 -1.811930 -3.035194 0
M  V30 33 H 0.027369 0.302880 -3.040617 0
M  V30 34 H 1.427936 2.422341 -2.959215 0
M  V30 35 H 2.807210 3.936044 -1.540713 0
M  V30 36 H 3.143223 3.407268 0.899950 0
M  V30 37 H 1.281061 0.912839 5.245428 0
M  V30 38 H -0.521715 2.135745 4.119309 0
M  V30 39 H -0.566745 4.278396 3.416535 0
M  V30 40 H 0.262146 3.900703 1.822684 0
M  V30 41 H 1.207293 3.930111 3.407268 0
M  V30 42 H -0.874302 0.640375 1.887796 0
M  V30 43 H -0.872687 2.321089 1.125823 0
M  V30 44 H -1.985884 1.901813 2.421230 0
M  V30 45 H -3.333975 -2.427713 -0.213801 0
M  V30 END ATOM
M  V30 BEGIN BOND
M  V30 1 1 1 2
M  V30 2 1 2 3
M  V30 3 1 3 4
M  V30 4 2 4 5
M  V30 5 1 5 6
M  V30 6 1 6 7
M  V30 7 2 7 8
M  V30 8 1 7 9
M  V30 9 1 9 10
M  V30 10 2 10 11
M  V30 11 1 11 12
M  V30 12 2 12 13
M  V30 13 1 13 14
M  V30 14 1 14 15
M  V30 15 2 15 16
M  V30 16 1 16 17
M  V30 17 2 17 18
M  V30 18 1 18 19
M  V30 19 1 19 20
M  V30 20 1 20 21
M  V30 21 1 20 22
M  V30 22 2 14 23
M  V30 23 1 5 24
M  V30 24 1 24 25
M  V30 25 2 25 3
M  V30 26 1 23 10
M  V30 27 1 19 15
M  V30 28 1 1 26
M  V30 29 1 1 27
M  V30 30 1 1 28
M  V30 31 1 2 29
M  V30 32 1 2 30
M  V30 33 1 4 31
M  V30 34 1 6 32
M  V30 35 1 9 33
M  V30 36 1 11 34
M  V30 37 1 12 35
M  V30 38 1 13 36
M  V30 39 1 18 37
M  V30 40 1 20 38
M  V30 41 1 21 39
M  V30 42 1 21 40
M  V30 43 1 21 41
M  V30 44 1 22 42
M  V30 45 1 22 43
M  V30 46 1 22 44
M  V30 47 1 24 45
M  V30 END BOND
M  V30 END CTAB
M  END
>  <Dataset>  (864) 
ChEMBL_Kinases

>  <Ligand_Instance>  (864) 
nan

>  <PDB_ID>  (864) 
nan

>  <Standardized_SMILES>  (864) 
CCc1cc(NC(=O)Nc2cccc(-c3nncn3C(C)C)n2)[nH]n1

>  <Name>  (864) 
nan

>  <Pocket>  (864) 
nan

>  <ATP_Site>  (864) 
nan

>  <Peripheral>  (864) 
nan

>  <Num_H_Atoms_ProtBoundConf>  (864) 
nan

>  <Num_Resolved_Atoms>  (864) 
nan

>  <Num_Not_Resolved_Atoms>  (864) 
nan

$$$$
CHEMBL4434804
     RDKit          3D

  0  0  0  0  0  0  0  0  0  0999 V3000
M  V30 BEGIN CTAB
M  V30 COUNTS 45 48 0 0 0
M  V30 BEGIN ATOM
M  V30 1 C 1.526876 -3.872599 2.040327 0
M  V30 2 N 1.975095 -3.523315 0.685980 0
M  V30 3 C 0.948921 -3.873550 -0.276891 0
M  V30 4 C 1.287535 -3.377990 -1.655535 0
M  V30 5 C 2.803062 -3.341322 -1.840488 0
M  V30 6 C 3.333810 -2.292783 -0.892224 0
M  V30 7 O 4.638406 -1.927023 -1.126025 0
M  V30 8 C 2.410251 -1.131919 -0.945115 0
M  V30 9 C 1.655499 -0.186996 -0.967243 0
M  V30 10 C 0.757032 0.937071 -0.968461 0
M  V30 11 C 0.228163 1.410773 0.202892 0
M  V30 12 C -0.640313 2.485661 0.274428 0
M  V30 13 N -1.095977 2.846013 1.581798 0
M  V30 14 C -1.014685 4.019260 2.266258 0
M  V30 15 C -1.610574 3.844074 3.496569 0
M  V30 16 C -2.071805 2.549274 3.589236 0
M  V30 17 C -2.734624 1.860905 4.591748 0
M  V30 18 N -3.067245 0.556590 4.383771 0
M  V30 19 C -2.734166 -0.017592 3.197681 0
M  V30 20 N -3.015242 -1.370739 2.835846 0
M  V30 21 N -2.086856 0.675969 2.234423 0
M  V30 22 C -1.731956 1.962157 2.378097 0
M  V30 23 C -0.981664 3.104538 -0.922126 0
M  V30 24 C -0.446284 2.623750 -2.100086 0
M  V30 25 N 0.396317 1.573134 -2.121133 0
M  V30 26 C 3.266502 -2.925002 0.473215 0
M  V30 27 O 4.054871 -3.039652 1.424720 0
M  V30 28 H 2.330997 -3.697481 2.784519 0
M  V30 29 H 0.606554 -3.282664 2.314703 0
M  V30 30 H 1.233193 -4.943857 2.039973 0
M  V30 31 H 0.879409 -4.990767 -0.262174 0
M  V30 32 H -0.046621 -3.498091 0.063648 0
M  V30 33 H 0.898844 -4.100744 -2.405430 0
M  V30 34 H 0.894553 -2.364368 -1.837381 0
M  V30 35 H 3.086164 -3.172568 -2.878218 0
M  V30 36 H 3.205638 -4.327814 -1.481327 0
M  V30 37 H 5.240793 -2.461951 -0.550481 0
M  V30 38 H 0.529243 0.888893 1.108558 0
M  V30 39 H -0.539425 4.897766 1.832845 0
M  V30 40 H -1.693573 4.607689 4.252262 0
M  V30 41 H -2.994952 2.329757 5.533658 0
M  V30 42 H -3.737022 -1.588119 2.089466 0
M  V30 43 H -2.700427 -2.330227 3.102237 0
M  V30 44 H -1.662878 3.941247 -0.826124 0
M  V30 45 H -0.752606 3.151609 -3.002250 0
M  V30 END ATOM
M  V30 BEGIN BOND
M  V30 1 1 1 2
M  V30 2 1 2 3
M  V30 3 1 3 4
M  V30 4 1 4 5
M  V30 5 1 5 6
M  V30 6 1 6 7
M  V30 7 1 6 8
M  V30 8 3 8 9
M  V30 9 1 9 10
M  V30 10 2 10 11
M  V30 11 1 11 12
M  V30 12 1 12 13
M  V30 13 1 13 14
M  V30 14 2 14 15
M  V30 15 1 15 16
M  V30 16 2 16 17
M  V30 17 1 17 18
M  V30 18 2 18 19
M  V30 19 1 19 20
M  V30 20 1 19 21
M  V30 21 2 21 22
M  V30 22 2 12 23
M  V30 23 1 23 24
M  V30 24 2 24 25
M  V30 25 1 6 26
M  V30 26 2 26 27
M  V30 27 1 26 2
M  V30 28 1 25 10
M  V30 29 1 22 13
M  V30 30 1 22 16
M  V30 31 1 1 28
M  V30 32 1 1 29
M  V30 33 1 1 30
M  V30 34 1 3 31
M  V30 35 1 3 32
M  V30 36 1 4 33
M  V30 37 1 4 34
M  V30 38 1 5 35
M  V30 39 1 5 36
M  V30 40 1 7 37
M  V30 41 1 11 38
M  V30 42 1 14 39
M  V30 43 1 15 40
M  V30 44 1 17 41
M  V30 45 1 20 42
M  V30 46 1 20 43
M  V30 47 1 23 44
M  V30 48 1 24 45
M  V30 END BOND
M  V30 END CTAB
M  END
>  <Dataset>  (865) 
ChEMBL_Kinases

>  <Ligand_Instance>  (865) 
nan

>  <PDB_ID>  (865) 
nan

>  <Standardized_SMILES>  (865) 
CN1CCCC(O)(C#Cc2cc(-n3ccc4cnc(N)nc43)ccn2)C1=O

>  <Name>  (865) 
nan

>  <Pocket>  (865) 
nan

>  <ATP_Site>  (865) 
nan

>  <Peripheral>  (865) 
nan

>  <Num_H_Atoms_ProtBoundConf>  (865) 
nan

>  <Num_Resolved_Atoms>  (865) 
nan

>  <Num_Not_Resolved_Atoms>  (865) 
nan

$$$$
CHEMBL4434792
     RDKit          3D

  0  0  0  0  0  0  0  0  0  0999 V3000
M  V30 BEGIN CTAB
M  V30 COUNTS 37 39 0 0 0
M  V30 BEGIN ATOM
M  V30 1 O 1.581147 -5.391422 3.936990 0
M  V30 2 C 0.843175 -4.630506 3.262102 0
M  V30 3 O -0.507892 -4.931979 3.134880 0
M  V30 4 C 1.384312 -3.443632 2.615736 0
M  V30 5 C 2.721334 -3.134523 2.734616 0
M  V30 6 C 3.237215 -2.015643 2.126655 0
M  V30 7 C 2.471020 -1.150869 1.377028 0
M  V30 8 N 3.033238 -0.002931 0.761197 0
M  V30 9 C 2.417562 0.995682 -0.039812 0
M  V30 10 N 3.158739 2.005680 -0.522456 0
M  V30 11 C 2.609174 2.961920 -1.279875 0
M  V30 12 C 1.274104 2.960439 -1.599483 0
M  V30 13 F 0.654686 3.892673 -2.357977 0
M  V30 14 C 0.500825 1.931595 -1.112220 0
M  V30 15 N -0.909547 1.842930 -1.392874 0
M  V30 16 C -1.821935 0.839214 -0.955416 0
M  V30 17 C -2.595582 -0.024306 -1.703990 0
M  V30 18 C -3.415760 -0.923710 -1.051943 0
M  V30 19 C -3.471598 -0.970130 0.326298 0
M  V30 20 C -2.697745 -0.106152 1.095485 0
M  V30 21 C -1.876833 0.793916 0.430057 0
M  V30 22 F -1.170933 1.583784 1.291077 0
M  V30 23 N 1.123819 1.014389 -0.362703 0
M  V30 24 C 1.145460 -1.515226 1.297034 0
M  V30 25 C 0.572302 -2.621183 1.882791 0
M  V30 26 H -0.933603 -5.688512 3.665551 0
M  V30 27 H 3.391100 -3.763310 3.306735 0
M  V30 28 H 4.312384 -1.813335 2.252523 0
M  V30 29 H 4.077278 0.113861 0.935512 0
M  V30 30 H 3.222155 3.767101 -1.659337 0
M  V30 31 H -1.324653 2.593026 -1.983187 0
M  V30 32 H -2.465552 0.107607 -2.768838 0
M  V30 33 H -3.997483 -1.573821 -1.688517 0
M  V30 34 H -4.135220 -1.698508 0.795624 0
M  V30 35 H -2.781399 -0.186692 2.170164 0
M  V30 36 H 0.449614 -0.913514 0.736356 0
M  V30 37 H -0.477263 -2.860339 1.787188 0
M  V30 END ATOM
M  V30 BEGIN BOND
M  V30 1 2 1 2
M  V30 2 1 2 3
M  V30 3 1 2 4
M  V30 4 2 4 5
M  V30 5 1 5 6
M  V30 6 2 6 7
M  V30 7 1 7 8
M  V30 8 1 8 9
M  V30 9 2 9 10
M  V30 10 1 10 11
M  V30 11 2 11 12
M  V30 12 1 12 13
M  V30 13 1 12 14
M  V30 14 1 14 15
M  V30 15 1 15 16
M  V30 16 2 16 17
M  V30 17 1 17 18
M  V30 18 2 18 19
M  V30 19 1 19 20
M  V30 20 2 20 21
M  V30 21 1 21 22
M  V30 22 2 14 23
M  V30 23 1 7 24
M  V30 24 2 24 25
M  V30 25 1 25 4
M  V30 26 1 23 9
M  V30 27 1 21 16
M  V30 28 1 3 26
M  V30 29 1 5 27
M  V30 30 1 6 28
M  V30 31 1 8 29
M  V30 32 1 11 30
M  V30 33 1 15 31
M  V30 34 1 17 32
M  V30 35 1 18 33
M  V30 36 1 19 34
M  V30 37 1 20 35
M  V30 38 1 24 36
M  V30 39 1 25 37
M  V30 END BOND
M  V30 END CTAB
M  END
>  <Dataset>  (866) 
ChEMBL_Kinases

>  <Ligand_Instance>  (866) 
nan

>  <PDB_ID>  (866) 
nan

>  <Standardized_SMILES>  (866) 
O=C(O)c1ccc(Nc2ncc(F)c(Nc3ccccc3F)n2)cc1

>  <Name>  (866) 
nan

>  <Pocket>  (866) 
nan

>  <ATP_Site>  (866) 
nan

>  <Peripheral>  (866) 
nan

>  <Num_H_Atoms_ProtBoundConf>  (866) 
nan

>  <Num_Resolved_Atoms>  (866) 
nan

>  <Num_Not_Resolved_Atoms>  (866) 
nan

$$$$
CHEMBL4435124
     RDKit          3D

  0  0  0  0  0  0  0  0  0  0999 V3000
M  V30 BEGIN CTAB
M  V30 COUNTS 48 51 0 0 0
M  V30 BEGIN ATOM
M  V30 1 C 3.146238 -6.182108 1.102055 0
M  V30 2 N 3.804774 -5.504223 0.003938 0
M  V30 3 N 4.703975 -6.049464 -0.801597 0
M  V30 4 C 5.110978 -5.138057 -1.712678 0
M  V30 5 C 4.422351 -3.972847 -1.448549 0
M  V30 6 Cl 4.637195 -2.518218 -2.388854 0
M  V30 7 C 3.617752 -4.236557 -0.373138 0
M  V30 8 C 2.689787 -3.228584 0.247944 0
M  V30 9 C 1.808883 -3.212138 1.281507 0
M  V30 10 C 1.176287 -2.033799 1.472947 0
M  V30 11 C 1.385283 -0.969642 0.723446 0
M  V30 12 C 0.858819 0.388147 0.704740 0
M  V30 13 O 1.293981 1.170985 -0.179201 0
M  V30 14 N -0.096472 0.686548 1.693035 0
M  V30 15 C -0.691226 1.983153 1.783945 0 CFG=2
M  V30 16 C -0.489618 2.644938 3.119002 0
M  V30 17 N -1.226928 3.863147 3.201990 0
M  V30 18 C -2.644730 3.698522 2.968773 0
M  V30 19 C -2.775510 3.232824 1.514933 0
M  V30 20 C -2.173417 1.841323 1.506132 0 CFG=1
M  V30 21 C -2.434087 1.110350 0.258940 0
M  V30 22 C -1.975645 1.514347 -0.972661 0
M  V30 23 C -2.227548 0.820982 -2.127142 0
M  V30 24 C -2.966253 -0.323340 -2.059181 0
M  V30 25 C -3.463995 -0.797436 -0.859793 0
M  V30 26 F -4.198152 -1.935698 -0.796040 0
M  V30 27 C -3.175481 -0.055989 0.257786 0
M  V30 28 S 2.606118 -1.574032 -0.434346 0
M  V30 29 H 3.506011 -7.251035 1.174594 0
M  V30 30 H 2.058611 -6.269031 0.937962 0
M  V30 31 H 3.378165 -5.756149 2.097656 0
M  V30 32 H 5.838729 -5.299347 -2.496747 0
M  V30 33 H 1.675794 -4.111963 1.863736 0
M  V30 34 H 0.438780 -1.907967 2.285343 0
M  V30 35 H -0.413775 -0.014770 2.399148 0
M  V30 36 H -0.298037 2.668939 0.995740 0
M  V30 37 H -0.823319 1.977325 3.919880 0
M  V30 38 H 0.591250 2.938866 3.221368 0
M  V30 39 H -1.108459 4.255880 4.162375 0
M  V30 40 H -3.100285 4.706147 3.000294 0
M  V30 41 H -3.126558 2.993346 3.659183 0
M  V30 42 H -2.122063 3.884207 0.911383 0
M  V30 43 H -3.824050 3.242235 1.209609 0
M  V30 44 H -2.651054 1.307820 2.356263 0
M  V30 45 H -1.388300 2.423700 -1.028563 0
M  V30 46 H -1.869240 1.134082 -3.100016 0
M  V30 47 H -3.175257 -0.885473 -2.965974 0
M  V30 48 H -3.566277 -0.427160 1.203561 0
M  V30 END ATOM
M  V30 BEGIN BOND
M  V30 1 1 1 2
M  V30 2 1 2 3
M  V30 3 2 3 4
M  V30 4 1 4 5
M  V30 5 1 5 6
M  V30 6 2 5 7
M  V30 7 1 7 8
M  V30 8 2 8 9
M  V30 9 1 9 10
M  V30 10 2 10 11
M  V30 11 1 11 12
M  V30 12 2 12 13
M  V30 13 1 12 14
M  V30 14 1 14 15
M  V30 15 1 15 16
M  V30 16 1 16 17
M  V30 17 1 17 18
M  V30 18 1 18 19
M  V30 19 1 19 20
M  V30 20 1 20 21
M  V30 21 2 21 22
M  V30 22 1 22 23
M  V30 23 2 23 24
M  V30 24 1 24 25
M  V30 25 1 25 26
M  V30 26 2 25 27
M  V30 27 1 11 28
M  V30 28 1 7 2
M  V30 29 1 28 8
M  V30 30 1 20 15
M  V30 31 1 27 21
M  V30 32 1 1 29
M  V30 33 1 1 30
M  V30 34 1 1 31
M  V30 35 1 4 32
M  V30 36 1 9 33
M  V30 37 1 10 34
M  V30 38 1 14 35
M  V30 39 1 15 36 CFG=3
M  V30 40 1 16 37
M  V30 41 1 16 38
M  V30 42 1 17 39
M  V30 43 1 18 40
M  V30 44 1 18 41
M  V30 45 1 19 42
M  V30 46 1 19 43
M  V30 47 1 20 44 CFG=1
M  V30 48 1 22 45
M  V30 49 1 23 46
M  V30 50 1 24 47
M  V30 51 1 27 48
M  V30 END BOND
M  V30 END CTAB
M  END
>  <Dataset>  (867) 
ChEMBL_Kinases

>  <Ligand_Instance>  (867) 
nan

>  <PDB_ID>  (867) 
nan

>  <Standardized_SMILES>  (867) 
Cn1ncc(Cl)c1-c1ccc(C(=O)N[C@@H]2CNCC[C@H]2c2cccc(F)c2)s1

>  <Name>  (867) 
nan

>  <Pocket>  (867) 
nan

>  <ATP_Site>  (867) 
nan

>  <Peripheral>  (867) 
nan

>  <Num_H_Atoms_ProtBoundConf>  (867) 
nan

>  <Num_Resolved_Atoms>  (867) 
nan

>  <Num_Not_Resolved_Atoms>  (867) 
nan

$$$$
CHEMBL4439967
     RDKit          3D

  0  0  0  0  0  0  0  0  0  0999 V3000
M  V30 BEGIN CTAB
M  V30 COUNTS 49 53 0 0 0
M  V30 BEGIN ATOM
M  V30 1 O -1.001134 -1.209582 2.622226 0
M  V30 2 C -1.720406 -1.118784 1.593534 0
M  V30 3 C -1.341435 -0.401657 0.371019 0
M  V30 4 C -0.220185 0.316286 -0.008040 0
M  V30 5 C -0.057635 0.926581 -1.230733 0
M  V30 6 C 1.136101 1.673476 -1.594002 0
M  V30 7 C 1.259783 2.268461 -2.825740 0
M  V30 8 C 2.402355 2.968606 -3.139480 0
M  V30 9 N 3.398386 3.076343 -2.253450 0
M  V30 10 C 3.304060 2.506010 -1.045151 0
M  V30 11 N 4.388178 2.647554 -0.136733 0
M  V30 12 C 4.560237 2.158744 1.186584 0
M  V30 13 C 5.703804 2.402244 1.927408 0
M  V30 14 C 5.846950 1.918754 3.205434 0
M  V30 15 N 4.887241 1.188225 3.797168 0
M  V30 16 C 3.736462 0.904461 3.140990 0
M  V30 17 C 3.629531 1.404033 1.867115 0
M  V30 18 N 2.184904 1.838131 -0.779187 0
M  V30 19 C -1.113103 0.781861 -2.099078 0
M  V30 20 C -2.259719 0.076060 -1.776925 0
M  V30 21 C -2.385168 -0.529158 -0.523674 0
M  V30 22 C -3.501822 -1.322995 0.035757 0
M  V30 23 N -3.015669 -1.656770 1.359182 0
M  V30 24 C -3.693149 -2.433457 2.378762 0
M  V30 25 C -3.397580 -3.873748 2.285266 0
M  V30 26 C -4.142889 -4.757836 1.534286 0
M  V30 27 C -3.842550 -6.113140 1.462947 0
M  V30 28 C -2.743972 -6.593141 2.180282 0
M  V30 29 C -2.001357 -5.692322 2.932900 0
M  V30 30 Cl -0.643280 -6.433378 3.787421 0
M  V30 31 C -2.305882 -4.345444 2.999265 0
M  V30 32 H 0.538449 0.368792 0.734914 0
M  V30 33 H 0.521573 2.232457 -3.583563 0
M  V30 34 H 2.540266 3.452130 -4.097879 0
M  V30 35 H 5.227844 3.210272 -0.478065 0
M  V30 36 H 6.508355 2.990737 1.486524 0
M  V30 37 H 6.760882 2.147052 3.719812 0
M  V30 38 H 2.973512 0.319066 3.622083 0
M  V30 39 H 2.695334 1.148435 1.392662 0
M  V30 40 H -1.129980 1.199641 -3.082051 0
M  V30 41 H -3.096816 -0.032119 -2.480845 0
M  V30 42 H -3.741690 -2.213200 -0.570701 0
M  V30 43 H -4.364792 -0.626143 0.114277 0
M  V30 44 H -3.484684 -2.001671 3.390384 0
M  V30 45 H -4.801913 -2.310231 2.237443 0
M  V30 46 H -5.002497 -4.365515 0.976641 0
M  V30 47 H -4.436407 -6.806908 0.866893 0
M  V30 48 H -2.527706 -7.649932 2.111246 0
M  V30 49 H -1.637889 -3.744731 3.630469 0
M  V30 END ATOM
M  V30 BEGIN BOND
M  V30 1 2 1 2
M  V30 2 1 2 3
M  V30 3 2 3 4
M  V30 4 1 4 5
M  V30 5 1 5 6
M  V30 6 2 6 7
M  V30 7 1 7 8
M  V30 8 2 8 9
M  V30 9 1 9 10
M  V30 10 1 10 11
M  V30 11 1 11 12
M  V30 12 2 12 13
M  V30 13 1 13 14
M  V30 14 2 14 15
M  V30 15 1 15 16
M  V30 16 2 16 17
M  V30 17 2 10 18
M  V30 18 2 5 19
M  V30 19 1 19 20
M  V30 20 2 20 21
M  V30 21 1 21 22
M  V30 22 1 22 23
M  V30 23 1 23 24
M  V30 24 1 24 25
M  V30 25 2 25 26
M  V30 26 1 26 27
M  V30 27 2 27 28
M  V30 28 1 28 29
M  V30 29 1 29 30
M  V30 30 2 29 31
M  V30 31 1 23 2
M  V30 32 1 31 25
M  V30 33 1 21 3
M  V30 34 1 18 6
M  V30 35 1 17 12
M  V30 36 1 4 32
M  V30 37 1 7 33
M  V30 38 1 8 34
M  V30 39 1 11 35
M  V30 40 1 13 36
M  V30 41 1 14 37
M  V30 42 1 16 38
M  V30 43 1 17 39
M  V30 44 1 19 40
M  V30 45 1 20 41
M  V30 46 1 22 42
M  V30 47 1 22 43
M  V30 48 1 24 44
M  V30 49 1 24 45
M  V30 50 1 26 46
M  V30 51 1 27 47
M  V30 52 1 28 48
M  V30 53 1 31 49
M  V30 END BOND
M  V30 END CTAB
M  END
>  <Dataset>  (868) 
ChEMBL_Kinases

>  <Ligand_Instance>  (868) 
nan

>  <PDB_ID>  (868) 
nan

>  <Standardized_SMILES>  (868) 
O=C1c2cc(-c3ccnc(Nc4ccncc4)n3)ccc2CN1Cc1cccc(Cl)c1

>  <Name>  (868) 
nan

>  <Pocket>  (868) 
nan

>  <ATP_Site>  (868) 
nan

>  <Peripheral>  (868) 
nan

>  <Num_H_Atoms_ProtBoundConf>  (868) 
nan

>  <Num_Resolved_Atoms>  (868) 
nan

>  <Num_Not_Resolved_Atoms>  (868) 
nan

$$$$
CHEMBL4439913
     RDKit          3D

  0  0  0  0  0  0  0  0  0  0999 V3000
M  V30 BEGIN CTAB
M  V30 COUNTS 50 52 0 0 0
M  V30 BEGIN ATOM
M  V30 1 C 8.518671 -1.566018 4.133967 0
M  V30 2 N 7.278558 -1.386731 3.454473 0
M  V30 3 C 6.984178 -0.253989 2.651759 0
M  V30 4 O 7.942160 0.570305 2.610195 0
M  V30 5 C 5.719406 -0.055430 1.949519 0
M  V30 6 C 4.665026 -0.945015 1.984973 0
M  V30 7 C 3.482878 -0.720140 1.305485 0
M  V30 8 C 3.352118 0.450815 0.555912 0
M  V30 9 C 4.413214 1.335532 0.526433 0
M  V30 10 C 5.602059 1.106589 1.211416 0
M  V30 11 N 4.001591 2.364558 -0.269620 0
M  V30 12 C 2.751757 2.098168 -0.691351 0
M  V30 13 N 2.329695 0.920148 -0.193496 0
M  V30 14 C 1.101472 0.215973 -0.347601 0
M  V30 15 C 0.497259 -0.104735 0.855963 0
M  V30 16 C -0.716043 -0.796875 0.878112 0
M  V30 17 C -1.351221 -1.182820 -0.284251 0
M  V30 18 C -2.625397 -1.910611 -0.306090 0
M  V30 19 C -3.800999 -0.969947 -0.338893 0
M  V30 20 O -4.078858 0.261071 -0.354569 0
M  V30 21 O -4.996850 -1.670392 -0.359244 0
M  V30 22 C -6.274352 -1.115439 -0.391211 0
M  V30 23 C -7.255009 -2.295445 -0.403131 0
M  V30 24 C -6.633748 -0.292336 0.823345 0
M  V30 25 C -6.554983 -0.339391 -1.657742 0
M  V30 26 C -0.723834 -0.848368 -1.462245 0
M  V30 27 C 0.473946 -0.165511 -1.505529 0
M  V30 28 H 9.412228 -1.215246 3.578186 0
M  V30 29 H 8.591981 -1.082745 5.130965 0
M  V30 30 H 8.686626 -2.658728 4.317829 0
M  V30 31 H 6.531232 -2.138035 3.550602 0
M  V30 32 H 4.769740 -1.846399 2.563858 0
M  V30 33 H 2.689256 -1.452155 1.368911 0
M  V30 34 H 6.366279 1.880966 1.109446 0
M  V30 35 H 2.130304 2.718946 -1.344302 0
M  V30 36 H 0.879739 0.133783 1.860847 0
M  V30 37 H -1.212846 -1.061780 1.807032 0
M  V30 38 H -2.740733 -2.495969 0.632100 0
M  V30 39 H -2.739332 -2.604831 -1.155571 0
M  V30 40 H -6.801839 -3.110119 0.204374 0
M  V30 41 H -7.339806 -2.703978 -1.441040 0
M  V30 42 H -8.235755 -1.996394 -0.024926 0
M  V30 43 H -7.459167 -0.713946 1.417896 0
M  V30 44 H -6.803716 0.752475 0.510954 0
M  V30 45 H -5.699895 -0.270856 1.455776 0
M  V30 46 H -7.614057 0.028184 -1.561876 0
M  V30 47 H -5.879831 0.507156 -1.824403 0
M  V30 48 H -6.567736 -1.013610 -2.537088 0
M  V30 49 H -1.169203 -1.121832 -2.419401 0
M  V30 50 H 1.005358 0.119709 -2.407485 0
M  V30 END ATOM
M  V30 BEGIN BOND
M  V30 1 1 1 2
M  V30 2 1 2 3
M  V30 3 2 3 4
M  V30 4 1 3 5
M  V30 5 2 5 6
M  V30 6 1 6 7
M  V30 7 2 7 8
M  V30 8 1 8 9
M  V30 9 2 9 10
M  V30 10 1 9 11
M  V30 11 2 11 12
M  V30 12 1 12 13
M  V30 13 1 13 14
M  V30 14 2 14 15
M  V30 15 1 15 16
M  V30 16 2 16 17
M  V30 17 1 17 18
M  V30 18 1 18 19
M  V30 19 2 19 20
M  V30 20 1 19 21
M  V30 21 1 21 22
M  V30 22 1 22 23
M  V30 23 1 22 24
M  V30 24 1 22 25
M  V30 25 1 17 26
M  V30 26 2 26 27
M  V30 27 1 10 5
M  V30 28 1 27 14
M  V30 29 1 13 8
M  V30 30 1 1 28
M  V30 31 1 1 29
M  V30 32 1 1 30
M  V30 33 1 2 31
M  V30 34 1 6 32
M  V30 35 1 7 33
M  V30 36 1 10 34
M  V30 37 1 12 35
M  V30 38 1 15 36
M  V30 39 1 16 37
M  V30 40 1 18 38
M  V30 41 1 18 39
M  V30 42 1 23 40
M  V30 43 1 23 41
M  V30 44 1 23 42
M  V30 45 1 24 43
M  V30 46 1 24 44
M  V30 47 1 24 45
M  V30 48 1 25 46
M  V30 49 1 25 47
M  V30 50 1 25 48
M  V30 51 1 26 49
M  V30 52 1 27 50
M  V30 END BOND
M  V30 END CTAB
M  END
>  <Dataset>  (869) 
ChEMBL_Kinases

>  <Ligand_Instance>  (869) 
nan

>  <PDB_ID>  (869) 
nan

>  <Standardized_SMILES>  (869) 
CNC(=O)c1ccc2c(c1)ncn2-c1ccc(CC(=O)OC(C)(C)C)cc1

>  <Name>  (869) 
nan

>  <Pocket>  (869) 
nan

>  <ATP_Site>  (869) 
nan

>  <Peripheral>  (869) 
nan

>  <Num_H_Atoms_ProtBoundConf>  (869) 
nan

>  <Num_Resolved_Atoms>  (869) 
nan

>  <Num_Not_Resolved_Atoms>  (869) 
nan

$$$$
CHEMBL4752233
     RDKit          3D

  0  0  0  0  0  0  0  0  0  0999 V3000
M  V30 BEGIN CTAB
M  V30 COUNTS 62 66 0 0 0
M  V30 BEGIN ATOM
M  V30 1 O 4.997882 -1.547252 5.608699 0
M  V30 2 S 3.529951 -1.569892 5.254883 0
M  V30 3 O 2.880035 -2.813490 5.772468 0
M  V30 4 N 3.402159 -1.565477 3.537174 0
M  V30 5 C 4.031716 -0.435037 2.919459 0
M  V30 6 C 3.838971 -0.564719 1.411762 0
M  V30 7 N 2.437951 -0.587138 1.063418 0
M  V30 8 C 1.961431 -0.680351 -0.279998 0
M  V30 9 C 0.603143 -0.711929 -0.570901 0
M  V30 10 C 0.144023 -0.798044 -1.891349 0
M  V30 11 C -1.298214 -0.815760 -1.957088 0
M  V30 12 N -2.027651 0.229134 -1.495217 0
M  V30 13 C -3.347010 0.028031 -1.637531 0
M  V30 14 C -4.447348 0.909390 -1.266684 0
M  V30 15 C -5.768672 0.543050 -1.486205 0
M  V30 16 C -6.753880 1.433622 -1.108467 0
M  V30 17 C -6.453992 2.664248 -0.524724 0
M  V30 18 C -5.127735 3.021335 -0.309143 0
M  V30 19 C -4.136169 2.134380 -0.684963 0
M  V30 20 N -3.462810 -1.185928 -2.209621 0
M  V30 21 C -2.235478 -1.714366 -2.411904 0
M  V30 22 C -1.870355 -2.994220 -3.005015 0
M  V30 23 C -2.021712 -4.224722 -2.402349 0
M  V30 24 C -1.659139 -5.403019 -3.027687 0
M  V30 25 C -1.121401 -5.403362 -4.301390 0
M  V30 26 C -0.966283 -4.176438 -4.913184 0
M  V30 27 O -0.437380 -4.064594 -6.189218 0
M  V30 28 C -1.329850 -3.004528 -4.284512 0
M  V30 29 C 1.097329 -0.850002 -2.885459 0
M  V30 30 C 2.441841 -0.818274 -2.583593 0
M  V30 31 N 2.848410 -0.734029 -1.287314 0
M  V30 32 C 2.766191 -0.198137 5.978765 0
M  V30 33 C 1.417010 -0.287384 6.344016 0
M  V30 34 C 0.698960 0.752633 6.933234 0
M  V30 35 C 1.331714 1.945912 7.179932 0
M  V30 36 F 0.635542 2.947706 7.746572 0
M  V30 37 C 2.668172 2.068691 6.831193 0
M  V30 38 C 3.357685 1.026374 6.249564 0
M  V30 39 H 3.655898 -2.466051 3.116679 0
M  V30 40 H 3.699989 0.528784 3.296352 0
M  V30 41 H 5.121989 -0.506390 3.115634 0
M  V30 42 H 4.342941 0.262772 0.881733 0
M  V30 43 H 4.279058 -1.510061 1.034748 0
M  V30 44 H 1.746458 -0.532894 1.837695 0
M  V30 45 H -0.038764 -0.663810 0.322862 0
M  V30 46 H -1.681595 1.116529 -1.067614 0
M  V30 47 H -6.016921 -0.415107 -1.940112 0
M  V30 48 H -7.799594 1.201478 -1.255004 0
M  V30 49 H -7.247309 3.337840 -0.241635 0
M  V30 50 H -4.861757 3.954428 0.134851 0
M  V30 51 H -3.111706 2.445923 -0.501763 0
M  V30 52 H -2.446078 -4.239242 -1.395311 0
M  V30 53 H -1.797639 -6.360075 -2.512323 0
M  V30 54 H -0.822248 -6.298347 -4.830930 0
M  V30 55 H -0.137700 -4.877862 -6.677310 0
M  V30 56 H -1.202770 -2.061801 -4.784130 0
M  V30 57 H 0.667342 -0.912830 -3.866829 0
M  V30 58 H 3.112443 -0.865719 -3.441350 0
M  V30 59 H 0.868135 -1.208424 6.170669 0
M  V30 60 H -0.340069 0.614103 7.188845 0
M  V30 61 H 3.174546 2.998456 7.020838 0
M  V30 62 H 4.409129 1.079649 5.959486 0
M  V30 END ATOM
M  V30 BEGIN BOND
M  V30 1 2 1 2
M  V30 2 2 2 3
M  V30 3 1 2 4
M  V30 4 1 4 5
M  V30 5 1 5 6
M  V30 6 1 6 7
M  V30 7 1 7 8
M  V30 8 2 8 9
M  V30 9 1 9 10
M  V30 10 1 10 11
M  V30 11 1 11 12
M  V30 12 1 12 13
M  V30 13 1 13 14
M  V30 14 2 14 15
M  V30 15 1 15 16
M  V30 16 2 16 17
M  V30 17 1 17 18
M  V30 18 2 18 19
M  V30 19 2 13 20
M  V30 20 1 20 21
M  V30 21 1 21 22
M  V30 22 2 22 23
M  V30 23 1 23 24
M  V30 24 2 24 25
M  V30 25 1 25 26
M  V30 26 1 26 27
M  V30 27 2 26 28
M  V30 28 2 10 29
M  V30 29 1 29 30
M  V30 30 2 30 31
M  V30 31 1 2 32
M  V30 32 2 32 33
M  V30 33 1 33 34
M  V30 34 2 34 35
M  V30 35 1 35 36
M  V30 36 1 35 37
M  V30 37 2 37 38
M  V30 38 1 31 8
M  V30 39 1 38 32
M  V30 40 2 21 11
M  V30 41 1 28 22
M  V30 42 1 19 14
M  V30 43 1 4 39
M  V30 44 1 5 40
M  V30 45 1 5 41
M  V30 46 1 6 42
M  V30 47 1 6 43
M  V30 48 1 7 44
M  V30 49 1 9 45
M  V30 50 1 12 46
M  V30 51 1 15 47
M  V30 52 1 16 48
M  V30 53 1 17 49
M  V30 54 1 18 50
M  V30 55 1 19 51
M  V30 56 1 23 52
M  V30 57 1 24 53
M  V30 58 1 25 54
M  V30 59 1 27 55
M  V30 60 1 28 56
M  V30 61 1 29 57
M  V30 62 1 30 58
M  V30 63 1 33 59
M  V30 64 1 34 60
M  V30 65 1 37 61
M  V30 66 1 38 62
M  V30 END BOND
M  V30 END CTAB
M  END
>  <Dataset>  (870) 
ChEMBL_Kinases

>  <Ligand_Instance>  (870) 
nan

>  <PDB_ID>  (870) 
nan

>  <Standardized_SMILES>  (870) 
O=S(=O)(NCCNc1cc(-c2[nH]c(-c3ccccc3)nc2-c2cccc(O)c2)ccn1)c1ccc(F)cc1

>  <Name>  (870) 
nan

>  <Pocket>  (870) 
nan

>  <ATP_Site>  (870) 
nan

>  <Peripheral>  (870) 
nan

>  <Num_H_Atoms_ProtBoundConf>  (870) 
nan

>  <Num_Resolved_Atoms>  (870) 
nan

>  <Num_Not_Resolved_Atoms>  (870) 
nan

$$$$
CHEMBL4439815
     RDKit          3D

  0  0  0  0  0  0  0  0  0  0999 V3000
M  V30 BEGIN CTAB
M  V30 COUNTS 33 35 0 0 0
M  V30 BEGIN ATOM
M  V30 1 N 0.492253 -2.921050 4.862022 0
M  V30 2 C 0.157489 -4.063803 4.082972 0
M  V30 3 O 0.072693 -5.195482 4.625112 0
M  V30 4 C -0.095831 -3.971145 2.652866 0
M  V30 5 N -0.415806 -5.060998 1.906137 0
M  V30 6 C -0.587851 -4.645539 0.625344 0
M  V30 7 C -0.383273 -3.302475 0.535341 0
M  V30 8 C -0.411141 -2.293668 -0.498730 0
M  V30 9 C -0.139445 -0.975901 -0.209135 0
M  V30 10 C -0.154422 0.019639 -1.162825 0
M  V30 11 N 0.130762 1.370465 -0.830529 0
M  V30 12 C -0.803588 2.341153 -0.429534 0
M  V30 13 O -2.037600 2.124305 -0.313700 0
M  V30 14 C -0.271467 3.686536 -0.133893 0
M  V30 15 C 1.085891 3.658769 0.602129 0
M  V30 16 C 1.044050 4.115754 -0.805639 0
M  V30 17 N -0.444818 -0.265439 -2.458545 0
M  V30 18 C -0.723655 -1.558157 -2.808160 0
M  V30 19 C -0.696194 -2.517512 -1.819768 0
M  V30 20 Br -1.100126 -4.247744 -2.451274 0
M  V30 21 N -0.087278 -2.942185 1.794961 0
M  V30 22 H 1.079650 -2.173404 5.292252 0
M  V30 23 H 0.136281 -2.171936 5.496828 0
M  V30 24 H -0.845064 -5.264374 -0.200767 0
M  V30 25 H 0.103813 -0.626645 0.779313 0
M  V30 26 H 1.156106 1.502391 -0.940100 0
M  V30 27 H -0.954975 4.490360 0.185346 0
M  V30 28 H 1.553307 2.665406 0.789928 0
M  V30 29 H 1.239684 4.384222 1.424414 0
M  V30 30 H 1.189675 5.206611 -0.963880 0
M  V30 31 H 1.453935 3.417498 -1.584192 0
M  V30 32 H -0.949411 -1.748014 -3.843337 0
M  V30 33 H 0.147335 -2.019711 2.234149 0
M  V30 END ATOM
M  V30 BEGIN BOND
M  V30 1 1 1 2
M  V30 2 2 2 3
M  V30 3 1 2 4
M  V30 4 2 4 5
M  V30 5 1 5 6
M  V30 6 2 6 7
M  V30 7 1 7 8
M  V30 8 2 8 9
M  V30 9 1 9 10
M  V30 10 1 10 11
M  V30 11 1 11 12
M  V30 12 2 12 13
M  V30 13 1 12 14
M  V30 14 1 14 15
M  V30 15 1 15 16
M  V30 16 2 10 17
M  V30 17 1 17 18
M  V30 18 2 18 19
M  V30 19 1 19 20
M  V30 20 1 7 21
M  V30 21 1 21 4
M  V30 22 1 19 8
M  V30 23 1 16 14
M  V30 24 1 1 22
M  V30 25 1 1 23
M  V30 26 1 6 24
M  V30 27 1 9 25
M  V30 28 1 11 26
M  V30 29 1 14 27
M  V30 30 1 15 28
M  V30 31 1 15 29
M  V30 32 1 16 30
M  V30 33 1 16 31
M  V30 34 1 18 32
M  V30 35 1 21 33
M  V30 END BOND
M  V30 END CTAB
M  END
>  <Dataset>  (871) 
ChEMBL_Kinases

>  <Ligand_Instance>  (871) 
nan

>  <PDB_ID>  (871) 
nan

>  <Standardized_SMILES>  (871) 
NC(=O)c1ncc(-c2cc(NC(=O)C3CC3)ncc2Br)[nH]1

>  <Name>  (871) 
nan

>  <Pocket>  (871) 
nan

>  <ATP_Site>  (871) 
nan

>  <Peripheral>  (871) 
nan

>  <Num_H_Atoms_ProtBoundConf>  (871) 
nan

>  <Num_Resolved_Atoms>  (871) 
nan

>  <Num_Not_Resolved_Atoms>  (871) 
nan

$$$$
CHEMBL4439805
     RDKit          3D

  0  0  0  0  0  0  0  0  0  0999 V3000
M  V30 BEGIN CTAB
M  V30 COUNTS 46 48 0 0 0
M  V30 BEGIN ATOM
M  V30 1 C -1.686500 -3.516404 2.054541 0
M  V30 2 N -0.799032 -2.969870 3.009894 0
M  V30 3 C -0.809163 -3.698433 4.239879 0
M  V30 4 C 0.470999 -2.506827 2.601517 0
M  V30 5 C 1.226967 -2.055276 3.873299 0
M  V30 6 C 1.360293 -3.630773 2.055460 0
M  V30 7 C 0.521892 -1.346089 1.681831 0
M  V30 8 N -0.099443 -1.489098 0.400929 0
M  V30 9 C -0.068614 -0.311924 -0.401055 0
M  V30 10 N 0.476815 0.838387 -0.035867 0
M  V30 11 C 0.531634 1.971282 -0.752184 0
M  V30 12 C 1.173510 3.165163 -0.204124 0
M  V30 13 C 1.217497 4.319292 -0.960412 0
M  V30 14 C 1.853776 5.402313 -0.342803 0
M  V30 15 N 2.381262 5.315129 0.898429 0
M  V30 16 C 2.314145 4.163072 1.601588 0
M  V30 17 C 1.708024 3.061313 1.065124 0
M  V30 18 N -0.024436 1.967978 -1.990149 0
M  V30 19 C -0.616199 0.849914 -2.482547 0
M  V30 20 C -1.179628 0.851167 -3.740090 0
M  V30 21 N -1.772128 -0.269003 -4.232354 0
M  V30 22 C -1.804385 -1.395368 -3.470513 0
M  V30 23 C -1.232242 -1.366250 -2.216019 0
M  V30 24 C -0.621161 -0.272513 -1.662768 0
M  V30 25 H -2.434972 -4.146884 2.639091 0
M  V30 26 H -2.334187 -2.772024 1.544600 0
M  V30 27 H -1.260841 -4.238556 1.334160 0
M  V30 28 H 0.140745 -4.274341 4.406585 0
M  V30 29 H -1.067151 -3.090331 5.117864 0
M  V30 30 H -1.593492 -4.488580 4.172807 0
M  V30 31 H 1.738208 -2.929667 4.346583 0
M  V30 32 H 2.046026 -1.354680 3.600509 0
M  V30 33 H 0.572758 -1.551574 4.584797 0
M  V30 34 H 1.455529 -4.426949 2.810887 0
M  V30 35 H 2.371390 -3.209395 1.922216 0
M  V30 36 H 1.015346 -3.994277 1.083034 0
M  V30 37 H 1.619765 -1.153165 1.479022 0
M  V30 38 H 0.153615 -0.442387 2.221175 0
M  V30 39 H -0.521509 -2.379567 0.095995 0
M  V30 40 H 0.803820 4.401272 -1.943916 0
M  V30 41 H 1.945642 6.356873 -0.844543 0
M  V30 42 H 2.773218 4.194377 2.602493 0
M  V30 43 H 1.678271 2.161633 1.664798 0
M  V30 44 H -1.143699 1.771398 -4.341148 0
M  V30 45 H -2.286353 -2.267590 -3.899794 0
M  V30 46 H -1.307716 -2.289238 -1.700919 0
M  V30 END ATOM
M  V30 BEGIN BOND
M  V30 1 1 1 2
M  V30 2 1 2 3
M  V30 3 1 2 4
M  V30 4 1 4 5
M  V30 5 1 4 6
M  V30 6 1 4 7
M  V30 7 1 7 8
M  V30 8 1 8 9
M  V30 9 2 9 10
M  V30 10 1 10 11
M  V30 11 1 11 12
M  V30 12 2 12 13
M  V30 13 1 13 14
M  V30 14 2 14 15
M  V30 15 1 15 16
M  V30 16 2 16 17
M  V30 17 2 11 18
M  V30 18 1 18 19
M  V30 19 2 19 20
M  V30 20 1 20 21
M  V30 21 2 21 22
M  V30 22 1 22 23
M  V30 23 2 23 24
M  V30 24 1 24 9
M  V30 25 1 17 12
M  V30 26 1 24 19
M  V30 27 1 1 25
M  V30 28 1 1 26
M  V30 29 1 1 27
M  V30 30 1 3 28
M  V30 31 1 3 29
M  V30 32 1 3 30
M  V30 33 1 5 31
M  V30 34 1 5 32
M  V30 35 1 5 33
M  V30 36 1 6 34
M  V30 37 1 6 35
M  V30 38 1 6 36
M  V30 39 1 7 37
M  V30 40 1 7 38
M  V30 41 1 8 39
M  V30 42 1 13 40
M  V30 43 1 14 41
M  V30 44 1 16 42
M  V30 45 1 17 43
M  V30 46 1 20 44
M  V30 47 1 22 45
M  V30 48 1 23 46
M  V30 END BOND
M  V30 END CTAB
M  END
>  <Dataset>  (872) 
ChEMBL_Kinases

>  <Ligand_Instance>  (872) 
nan

>  <PDB_ID>  (872) 
nan

>  <Standardized_SMILES>  (872) 
CN(C)C(C)(C)CNc1nc(-c2ccncc2)nc2cnccc12

>  <Name>  (872) 
nan

>  <Pocket>  (872) 
nan

>  <ATP_Site>  (872) 
nan

>  <Peripheral>  (872) 
nan

>  <Num_H_Atoms_ProtBoundConf>  (872) 
nan

>  <Num_Resolved_Atoms>  (872) 
nan

>  <Num_Not_Resolved_Atoms>  (872) 
nan

$$$$
CHEMBL4439792
     RDKit          3D

  0  0  0  0  0  0  0  0  0  0999 V3000
M  V30 BEGIN CTAB
M  V30 COUNTS 52 54 0 0 0
M  V30 BEGIN ATOM
M  V30 1 C -2.854476 0.175504 -3.595722 0
M  V30 2 N -2.008590 -0.956754 -3.272891 0
M  V30 3 C -0.943051 -0.818001 -2.351013 0
M  V30 4 N -0.701314 0.390345 -1.822242 0
M  V30 5 C 0.345235 0.584842 -0.967099 0
M  V30 6 N 0.585145 1.868033 -0.413260 0
M  V30 7 C 0.570214 2.510538 0.848556 0
M  V30 8 C 0.832101 3.845781 0.931132 0
M  V30 9 N 0.835167 4.467502 2.104500 0
M  V30 10 C 0.575023 3.775665 3.250423 0
M  V30 11 C 0.633947 4.647779 4.414573 0
M  V30 12 N 0.692375 5.331979 5.352808 0
M  V30 13 C 0.297536 2.414284 3.262163 0
M  V30 14 O 0.091779 2.047603 4.496774 0
M  V30 15 C -0.194795 1.055964 5.328761 0
M  V30 16 C 0.786613 -0.077655 5.381709 0
M  V30 17 N 0.918293 -0.733658 4.103711 0
M  V30 18 C 1.917104 -1.788730 4.217355 0
M  V30 19 C -0.349571 -1.427951 3.794135 0
M  V30 20 C 0.306239 1.821809 2.034427 0
M  V30 21 N 1.181230 -0.437375 -0.618657 0
M  V30 22 C 0.989907 -1.682298 -1.117689 0
M  V30 23 C -0.078400 -1.821071 -1.973136 0
M  V30 24 C -0.301555 -3.168612 -2.481415 0
M  V30 25 C -1.605951 -3.681245 -2.413514 0
M  V30 26 N -1.465169 -4.922347 -2.958215 0
M  V30 27 N -0.215655 -5.128456 -3.312077 0
M  V30 28 C 0.233787 -6.367061 -3.919330 0
M  V30 29 C 0.601906 -4.071246 -3.049148 0
M  V30 30 H -3.903865 0.014415 -3.287665 0
M  V30 31 H -2.402639 1.095722 -3.160369 0
M  V30 32 H -2.878424 0.370071 -4.704324 0
M  V30 33 H -2.367786 -1.736692 -3.830388 0
M  V30 34 H 0.841322 2.435487 -1.255192 0
M  V30 35 H 1.037545 4.392892 0.014724 0
M  V30 36 H -1.210385 0.544114 5.121793 0
M  V30 37 H -0.398468 1.425143 6.402044 0
M  V30 38 H 0.469041 -0.781040 6.185874 0
M  V30 39 H 1.807776 0.344456 5.612551 0
M  V30 40 H 1.523646 -2.702288 3.748893 0
M  V30 41 H 2.223734 -1.935783 5.286504 0
M  V30 42 H 2.843745 -1.516030 3.672657 0
M  V30 43 H -1.093101 -0.731179 3.395072 0
M  V30 44 H -0.087935 -2.254408 3.112896 0
M  V30 45 H -0.739735 -1.792296 4.775255 0
M  V30 46 H 0.091680 0.774259 1.999425 0
M  V30 47 H 1.637659 -2.530625 -0.862348 0
M  V30 48 H -2.519430 -3.264945 -2.040580 0
M  V30 49 H -0.521303 -7.176389 -3.846441 0
M  V30 50 H 0.505095 -6.152088 -4.981950 0
M  V30 51 H 1.193738 -6.664766 -3.427567 0
M  V30 52 H 1.637357 -3.909745 -3.202795 0
M  V30 END ATOM
M  V30 BEGIN BOND
M  V30 1 1 1 2
M  V30 2 1 2 3
M  V30 3 2 3 4
M  V30 4 1 4 5
M  V30 5 1 5 6
M  V30 6 1 6 7
M  V30 7 2 7 8
M  V30 8 1 8 9
M  V30 9 2 9 10
M  V30 10 1 10 11
M  V30 11 3 11 12
M  V30 12 1 10 13
M  V30 13 1 13 14
M  V30 14 1 14 15
M  V30 15 1 15 16
M  V30 16 1 16 17
M  V30 17 1 17 18
M  V30 18 1 17 19
M  V30 19 2 13 20
M  V30 20 2 5 21
M  V30 21 1 21 22
M  V30 22 2 22 23
M  V30 23 1 23 24
M  V30 24 1 24 25
M  V30 25 2 25 26
M  V30 26 1 26 27
M  V30 27 1 27 28
M  V30 28 1 27 29
M  V30 29 1 23 3
M  V30 30 2 29 24
M  V30 31 1 20 7
M  V30 32 1 1 30
M  V30 33 1 1 31
M  V30 34 1 1 32
M  V30 35 1 2 33
M  V30 36 1 6 34
M  V30 37 1 8 35
M  V30 38 1 15 36
M  V30 39 1 15 37
M  V30 40 1 16 38
M  V30 41 1 16 39
M  V30 42 1 18 40
M  V30 43 1 18 41
M  V30 44 1 18 42
M  V30 45 1 19 43
M  V30 46 1 19 44
M  V30 47 1 19 45
M  V30 48 1 20 46
M  V30 49 1 22 47
M  V30 50 1 25 48
M  V30 51 1 28 49
M  V30 52 1 28 50
M  V30 53 1 28 51
M  V30 54 1 29 52
M  V30 END BOND
M  V30 END CTAB
M  END
>  <Dataset>  (873) 
ChEMBL_Kinases

>  <Ligand_Instance>  (873) 
nan

>  <PDB_ID>  (873) 
nan

>  <Standardized_SMILES>  (873) 
CNc1nc(Nc2cnc(C#N)c(OCCN(C)C)c2)ncc1-c1cnn(C)c1

>  <Name>  (873) 
nan

>  <Pocket>  (873) 
nan

>  <ATP_Site>  (873) 
nan

>  <Peripheral>  (873) 
nan

>  <Num_H_Atoms_ProtBoundConf>  (873) 
nan

>  <Num_Resolved_Atoms>  (873) 
nan

>  <Num_Not_Resolved_Atoms>  (873) 
nan

$$$$
CHEMBL4752236
     RDKit          3D

  0  0  0  0  0  0  0  0  0  0999 V3000
M  V30 BEGIN CTAB
M  V30 COUNTS 48 52 0 0 0
M  V30 BEGIN ATOM
M  V30 1 O 0.848210 -0.825010 2.712511 0
M  V30 2 C 1.087552 0.315251 2.238425 0
M  V30 3 C 2.119988 0.630415 1.380916 0
M  V30 4 C 2.972622 -0.390156 1.003368 0
M  V30 5 C 4.016029 -0.087589 0.141000 0
M  V30 6 C 4.959184 -1.142197 -0.296769 0
M  V30 7 C 5.402488 -2.275664 0.390205 0
M  V30 8 N 6.249681 -2.910133 -0.441997 0
M  V30 9 N 6.358533 -2.252362 -1.584535 0
M  V30 10 C 5.574178 -1.141401 -1.547028 0
M  V30 11 C 4.181454 1.205163 -0.316992 0
M  V30 12 C 3.322452 2.237441 0.062386 0
M  V30 13 C 2.290432 1.914757 0.921519 0
M  V30 14 N 1.408111 2.839873 1.346000 0
M  V30 15 C 0.385282 2.533193 2.194213 0
M  V30 16 N 0.220259 1.256315 2.647781 0
M  V30 17 C -0.910713 1.123649 3.534626 0
M  V30 18 C -2.174577 0.790886 2.826417 0
M  V30 19 C -3.021957 1.798017 2.358236 0
M  V30 20 C -4.219153 1.545326 1.686937 0
M  V30 21 C -4.539909 0.211416 1.499551 0
M  V30 22 C -3.734853 -0.816832 1.943967 0
M  V30 23 O -4.180368 -2.111661 1.686673 0
M  V30 24 C -3.770661 -2.684180 0.490167 0
M  V30 25 C -4.569035 -2.498924 -0.626018 0
M  V30 26 C -4.225742 -3.036829 -1.843503 0
M  V30 27 C -3.078495 -3.777919 -1.999296 0
M  V30 28 F -2.778542 -4.288936 -3.215222 0
M  V30 29 C -2.260016 -3.977685 -0.892241 0
M  V30 30 C -2.631977 -3.429270 0.300062 0
M  V30 31 C -2.573219 -0.502614 2.595762 0
M  V30 32 H 2.840066 -1.399573 1.363503 0
M  V30 33 H 5.054183 -2.487361 1.394075 0
M  V30 34 H 6.946149 -2.513093 -2.414609 0
M  V30 35 H 5.433063 -0.392161 -2.309971 0
M  V30 36 H 4.991464 1.481575 -0.997396 0
M  V30 37 H 3.416164 3.250794 -0.269456 0
M  V30 38 H -0.191378 3.429799 2.395491 0
M  V30 39 H -0.687474 0.225129 4.174036 0
M  V30 40 H -1.058941 2.010828 4.172377 0
M  V30 41 H -2.693911 2.808517 2.548515 0
M  V30 42 H -4.850217 2.343367 1.338627 0
M  V30 43 H -5.479576 0.057541 0.972827 0
M  V30 44 H -5.485063 -1.917908 -0.539999 0
M  V30 45 H -4.884871 -2.860030 -2.678862 0
M  V30 46 H -1.355352 -4.552712 -0.980530 0
M  V30 47 H -2.010753 -3.565557 1.198926 0
M  V30 48 H -1.966765 -1.338709 2.930049 0
M  V30 END ATOM
M  V30 BEGIN BOND
M  V30 1 2 1 2
M  V30 2 1 2 3
M  V30 3 2 3 4
M  V30 4 1 4 5
M  V30 5 1 5 6
M  V30 6 1 6 7
M  V30 7 2 7 8
M  V30 8 1 8 9
M  V30 9 1 9 10
M  V30 10 2 5 11
M  V30 11 1 11 12
M  V30 12 2 12 13
M  V30 13 1 13 14
M  V30 14 2 14 15
M  V30 15 1 15 16
M  V30 16 1 16 17
M  V30 17 1 17 18
M  V30 18 2 18 19
M  V30 19 1 19 20
M  V30 20 2 20 21
M  V30 21 1 21 22
M  V30 22 1 22 23
M  V30 23 1 23 24
M  V30 24 2 24 25
M  V30 25 1 25 26
M  V30 26 2 26 27
M  V30 27 1 27 28
M  V30 28 1 27 29
M  V30 29 2 29 30
M  V30 30 2 22 31
M  V30 31 1 16 2
M  V30 32 1 31 18
M  V30 33 1 13 3
M  V30 34 1 30 24
M  V30 35 2 10 6
M  V30 36 1 4 32
M  V30 37 1 7 33
M  V30 38 1 9 34
M  V30 39 1 10 35
M  V30 40 1 11 36
M  V30 41 1 12 37
M  V30 42 1 15 38
M  V30 43 1 17 39
M  V30 44 1 17 40
M  V30 45 1 19 41
M  V30 46 1 20 42
M  V30 47 1 21 43
M  V30 48 1 25 44
M  V30 49 1 26 45
M  V30 50 1 29 46
M  V30 51 1 30 47
M  V30 52 1 31 48
M  V30 END BOND
M  V30 END CTAB
M  END
>  <Dataset>  (874) 
ChEMBL_Kinases

>  <Ligand_Instance>  (874) 
nan

>  <PDB_ID>  (874) 
nan

>  <Standardized_SMILES>  (874) 
O=c1c2cc(-c3cn[nH]c3)ccc2ncn1Cc1cccc(Oc2ccc(F)cc2)c1

>  <Name>  (874) 
nan

>  <Pocket>  (874) 
nan

>  <ATP_Site>  (874) 
nan

>  <Peripheral>  (874) 
nan

>  <Num_H_Atoms_ProtBoundConf>  (874) 
nan

>  <Num_Resolved_Atoms>  (874) 
nan

>  <Num_Not_Resolved_Atoms>  (874) 
nan

$$$$
CHEMBL4439720
     RDKit          3D

  0  0  0  0  0  0  0  0  0  0999 V3000
M  V30 BEGIN CTAB
M  V30 COUNTS 48 51 0 0 0
M  V30 BEGIN ATOM
M  V30 1 C 1.167147 -3.651445 1.575801 0
M  V30 2 N 1.859684 -4.477006 0.573396 0
M  V30 3 N 2.083267 -5.754126 0.825010 0
M  V30 4 C 2.719997 -6.316155 -0.216973 0
M  V30 5 C 2.846650 -5.266354 -1.088035 0
M  V30 6 Br 3.708480 -5.578386 -2.726828 0
M  V30 7 C 2.322683 -4.086210 -0.641358 0
M  V30 8 C 2.192466 -2.747742 -1.162283 0
M  V30 9 O 1.682172 -1.778827 -0.454144 0
M  V30 10 C 1.625556 -0.640176 -1.040502 0
M  V30 11 C 1.086538 0.565754 -0.409519 0
M  V30 12 O 1.082370 1.627806 -1.083338 0
M  V30 13 N 0.578899 0.565725 0.916959 0
M  V30 14 C 0.054972 1.747488 1.524098 0 CFG=2
M  V30 15 C 0.890843 2.214961 2.722496 0
M  V30 16 N 0.175186 3.285045 3.347958 0
M  V30 17 C -0.809633 3.925370 2.509867 0
M  V30 18 C -1.920497 2.988035 2.074486 0
M  V30 19 C -1.347986 1.607737 2.060930 0 CFG=1
M  V30 20 C -2.141773 0.591195 1.371244 0
M  V30 21 C -2.650133 -0.483901 2.111088 0
M  V30 22 C -3.415954 -1.485889 1.504967 0
M  V30 23 C -3.672013 -1.411402 0.161367 0
M  V30 24 Cl -4.635661 -2.710735 -0.494054 0
M  V30 25 C -3.193682 -0.380210 -0.589387 0
M  V30 26 C -2.445759 0.585305 0.038945 0
M  V30 27 C 2.142526 -0.769898 -2.307797 0
M  V30 28 C 2.476706 -2.101477 -2.322733 0
M  V30 29 Br 3.241313 -2.858319 -3.869667 0
M  V30 30 H 1.850898 -2.893521 2.007704 0
M  V30 31 H 0.401312 -3.072254 0.979775 0
M  V30 32 H 0.651726 -4.264654 2.321210 0
M  V30 33 H 3.009204 -7.351740 -0.244393 0
M  V30 34 H 0.597374 -0.327295 1.444415 0
M  V30 35 H 0.115029 2.611291 0.810336 0
M  V30 36 H 0.991235 1.386832 3.478980 0
M  V30 37 H 1.914328 2.480773 2.373956 0
M  V30 38 H 0.837671 4.043280 3.625715 0
M  V30 39 H -1.271206 4.721539 3.151153 0
M  V30 40 H -0.289972 4.417949 1.670442 0
M  V30 41 H -2.826597 3.093834 2.702818 0
M  V30 42 H -2.151494 3.306569 1.018887 0
M  V30 43 H -1.305503 1.287113 3.143110 0
M  V30 44 H -2.467619 -0.580750 3.190667 0
M  V30 45 H -3.782060 -2.296315 2.138549 0
M  V30 46 H -3.402387 -0.337272 -1.634980 0
M  V30 47 H -2.066243 1.402205 -0.553191 0
M  V30 48 H 2.233966 -0.000958 -3.042418 0
M  V30 END ATOM
M  V30 BEGIN BOND
M  V30 1 1 1 2
M  V30 2 1 2 3
M  V30 3 2 3 4
M  V30 4 1 4 5
M  V30 5 1 5 6
M  V30 6 2 5 7
M  V30 7 1 7 8
M  V30 8 1 8 9
M  V30 9 1 9 10
M  V30 10 1 10 11
M  V30 11 2 11 12
M  V30 12 1 11 13
M  V30 13 1 13 14
M  V30 14 1 14 15
M  V30 15 1 15 16
M  V30 16 1 16 17
M  V30 17 1 17 18
M  V30 18 1 18 19
M  V30 19 1 19 20
M  V30 20 2 20 21
M  V30 21 1 21 22
M  V30 22 2 22 23
M  V30 23 1 23 24
M  V30 24 1 23 25
M  V30 25 2 25 26
M  V30 26 2 10 27
M  V30 27 1 27 28
M  V30 28 1 28 29
M  V30 29 1 7 2
M  V30 30 2 28 8
M  V30 31 1 19 14
M  V30 32 1 26 20
M  V30 33 1 1 30
M  V30 34 1 1 31
M  V30 35 1 1 32
M  V30 36 1 4 33
M  V30 37 1 13 34
M  V30 38 1 14 35 CFG=3
M  V30 39 1 15 36
M  V30 40 1 15 37
M  V30 41 1 16 38
M  V30 42 1 17 39
M  V30 43 1 17 40
M  V30 44 1 18 41
M  V30 45 1 18 42
M  V30 46 1 19 43 CFG=1
M  V30 47 1 21 44
M  V30 48 1 22 45
M  V30 49 1 25 46
M  V30 50 1 26 47
M  V30 51 1 27 48
M  V30 END BOND
M  V30 END CTAB
M  END
>  <Dataset>  (875) 
ChEMBL_Kinases

>  <Ligand_Instance>  (875) 
nan

>  <PDB_ID>  (875) 
nan

>  <Standardized_SMILES>  (875) 
Cn1ncc(Br)c1-c1oc(C(=O)N[C@@H]2CNCC[C@H]2c2ccc(Cl)cc2)cc1Br

>  <Name>  (875) 
nan

>  <Pocket>  (875) 
nan

>  <ATP_Site>  (875) 
nan

>  <Peripheral>  (875) 
nan

>  <Num_H_Atoms_ProtBoundConf>  (875) 
nan

>  <Num_Resolved_Atoms>  (875) 
nan

>  <Num_Not_Resolved_Atoms>  (875) 
nan

$$$$
CHEMBL4439686
     RDKit          3D

  0  0  0  0  0  0  0  0  0  0999 V3000
M  V30 BEGIN CTAB
M  V30 COUNTS 52 55 0 0 0
M  V30 BEGIN ATOM
M  V30 1 C 0.584668 -1.014356 4.029325 0
M  V30 2 C 0.699743 -2.174241 3.096511 0
M  V30 3 C 2.070547 -2.427163 2.654470 0
M  V30 4 C 2.790484 -3.459965 3.222823 0
M  V30 5 C 4.084124 -3.804539 2.903356 0
M  V30 6 C 4.706069 -3.041602 1.926176 0
M  V30 7 C 4.038986 -1.998220 1.322622 0
M  V30 8 C 2.742594 -1.707878 1.691177 0
M  V30 9 C 2.118107 -0.606843 1.010663 0
M  V30 10 C 2.160290 0.708902 1.412196 0
M  V30 11 Cl 3.054970 1.116364 2.858844 0
M  V30 12 C 1.504693 1.653562 0.649372 0
M  V30 13 C 0.775176 1.415795 -0.530808 0
M  V30 14 C 0.253230 2.621568 -1.167041 0
M  V30 15 N -0.862483 3.297580 -0.757126 0
M  V30 16 C -2.196734 3.052047 -0.848684 0
M  V30 17 C -3.000511 2.054575 -0.154455 0
M  V30 18 C -2.801232 0.623965 -0.333256 0
M  V30 19 N -3.473118 0.007328 -1.354238 0
M  V30 20 C -3.247959 -1.300879 -1.373641 0
M  V30 21 C -3.760450 -2.255911 -2.259390 0
M  V30 22 C -3.343931 -3.568312 -2.020964 0
M  V30 23 C -2.489972 -3.881257 -0.984360 0
M  V30 24 C -2.035581 -2.881007 -0.164014 0
M  V30 25 C -2.398509 -1.571713 -0.333995 0
M  V30 26 N -2.161029 -0.394500 0.254444 0
M  V30 27 C 0.762745 0.089011 -0.888930 0
M  V30 28 C 1.402802 -0.888008 -0.159171 0
M  V30 29 Cl 1.340583 -2.539752 -0.734519 0
M  V30 30 H -0.258554 -1.225938 4.745781 0
M  V30 31 H 0.298474 -0.107782 3.475961 0
M  V30 32 H 1.516942 -0.794176 4.580571 0
M  V30 33 H 0.069373 -1.981103 2.202032 0
M  V30 34 H 0.259161 -3.096289 3.550087 0
M  V30 35 H 2.296922 -4.056102 3.990366 0
M  V30 36 H 4.592004 -4.629070 3.389778 0
M  V30 37 H 5.729564 -3.309372 1.670213 0
M  V30 38 H 4.585018 -1.454211 0.576276 0
M  V30 39 H 1.605447 2.659548 1.060606 0
M  V30 40 H 0.147473 2.434542 -2.303915 0
M  V30 41 H 1.138818 3.361532 -1.133248 0
M  V30 42 H -0.624775 4.216388 -0.221363 0
M  V30 43 H -2.737898 4.060049 -0.608784 0
M  V30 44 H -2.457373 3.016567 -1.979687 0
M  V30 45 H -2.906720 2.261103 0.971023 0
M  V30 46 H -4.126515 2.250374 -0.281122 0
M  V30 47 H -4.418238 -2.019863 -3.060043 0
M  V30 48 H -3.746677 -4.308032 -2.714712 0
M  V30 49 H -2.189373 -4.920109 -0.833519 0
M  V30 50 H -1.365832 -3.087744 0.658503 0
M  V30 51 H -1.555958 -0.215087 1.082261 0
M  V30 52 H 0.194758 -0.076319 -1.800762 0
M  V30 END ATOM
M  V30 BEGIN BOND
M  V30 1 1 1 2
M  V30 2 1 2 3
M  V30 3 2 3 4
M  V30 4 1 4 5
M  V30 5 2 5 6
M  V30 6 1 6 7
M  V30 7 2 7 8
M  V30 8 1 8 9
M  V30 9 2 9 10
M  V30 10 1 10 11
M  V30 11 1 10 12
M  V30 12 2 12 13
M  V30 13 1 13 14
M  V30 14 1 14 15
M  V30 15 1 15 16
M  V30 16 1 16 17
M  V30 17 1 17 18
M  V30 18 2 18 19
M  V30 19 1 19 20
M  V30 20 2 20 21
M  V30 21 1 21 22
M  V30 22 2 22 23
M  V30 23 1 23 24
M  V30 24 2 24 25
M  V30 25 1 25 26
M  V30 26 1 13 27
M  V30 27 2 27 28
M  V30 28 1 28 29
M  V30 29 1 8 3
M  V30 30 1 28 9
M  V30 31 1 26 18
M  V30 32 1 25 20
M  V30 33 1 1 30
M  V30 34 1 1 31
M  V30 35 1 1 32
M  V30 36 1 2 33
M  V30 37 1 2 34
M  V30 38 1 4 35
M  V30 39 1 5 36
M  V30 40 1 6 37
M  V30 41 1 7 38
M  V30 42 1 12 39
M  V30 43 1 14 40
M  V30 44 1 14 41
M  V30 45 1 15 42
M  V30 46 1 16 43
M  V30 47 1 16 44
M  V30 48 1 17 45
M  V30 49 1 17 46
M  V30 50 1 21 47
M  V30 51 1 22 48
M  V30 52 1 23 49
M  V30 53 1 24 50
M  V30 54 1 26 51
M  V30 55 1 27 52
M  V30 END BOND
M  V30 END CTAB
M  END
>  <Dataset>  (876) 
ChEMBL_Kinases

>  <Ligand_Instance>  (876) 
nan

>  <PDB_ID>  (876) 
nan

>  <Standardized_SMILES>  (876) 
CCc1ccccc1-c1c(Cl)cc(CNCCc2nc3ccccc3[nH]2)cc1Cl

>  <Name>  (876) 
nan

>  <Pocket>  (876) 
nan

>  <ATP_Site>  (876) 
nan

>  <Peripheral>  (876) 
nan

>  <Num_H_Atoms_ProtBoundConf>  (876) 
nan

>  <Num_Resolved_Atoms>  (876) 
nan

>  <Num_Not_Resolved_Atoms>  (876) 
nan

$$$$
CHEMBL4439653
     RDKit          3D

  0  0  0  0  0  0  0  0  0  0999 V3000
M  V30 BEGIN CTAB
M  V30 COUNTS 47 49 0 0 0
M  V30 BEGIN ATOM
M  V30 1 C 0.462352 -6.977214 -0.322386 0
M  V30 2 N -0.297397 -5.778541 -0.637652 0
M  V30 3 C -1.632225 -5.846684 -1.221887 0
M  V30 4 C 0.061006 -4.412554 -0.462024 0
M  V30 5 C 0.719327 -3.745959 -1.495205 0
M  V30 6 C 1.083955 -2.418609 -1.362399 0
M  V30 7 C 0.809730 -1.722003 -0.215074 0
M  V30 8 C 1.155566 -0.322560 0.014111 0
M  V30 9 C 1.806624 0.437442 -0.934017 0
M  V30 10 C 2.142159 1.763265 -0.735387 0
M  V30 11 N 2.775634 2.532327 -1.636011 0
M  V30 12 C 3.078848 3.825897 -1.386183 0
M  V30 13 C 2.733206 4.390729 -0.170462 0
M  V30 14 N 2.091946 3.619576 0.746642 0
M  V30 15 C 1.794627 2.319644 0.478497 0
M  V30 16 C 1.132446 1.560627 1.453096 0
M  V30 17 N 0.759312 2.103933 2.717342 0
M  V30 18 C 0.079334 1.367848 3.749509 0
M  V30 19 C -1.255666 0.845579 3.319221 0
M  V30 20 C -2.208799 1.940160 2.903568 0
M  V30 21 C -2.492075 2.918075 3.992163 0
M  V30 22 O -3.388729 3.864684 3.446931 0
M  V30 23 N 0.854357 0.286588 1.159607 0
M  V30 24 C 0.157449 -2.416151 0.783852 0
M  V30 25 N -0.202406 -3.709306 0.665153 0
M  V30 26 H -0.254720 -7.767902 0.021335 0
M  V30 27 H 1.093153 -7.304064 -1.149903 0
M  V30 28 H 1.105101 -6.785234 0.577215 0
M  V30 29 H -2.339499 -5.307163 -0.571175 0
M  V30 30 H -1.918434 -6.908140 -1.386542 0
M  V30 31 H -1.633697 -5.315269 -2.208171 0
M  V30 32 H 0.946886 -4.266011 -2.404568 0
M  V30 33 H 1.584837 -1.926454 -2.159598 0
M  V30 34 H 2.086684 0.025534 -1.885421 0
M  V30 35 H 3.596452 4.405248 -2.158151 0
M  V30 36 H 2.966969 5.424145 0.048723 0
M  V30 37 H 1.015224 3.124502 2.876592 0
M  V30 38 H 0.067949 1.947874 4.668473 0
M  V30 39 H 0.694733 0.453793 3.994477 0
M  V30 40 H -1.121076 0.147145 2.475335 0
M  V30 41 H -1.755834 0.254749 4.112225 0
M  V30 42 H -3.167819 1.532973 2.527252 0
M  V30 43 H -1.758579 2.516598 2.055645 0
M  V30 44 H -3.029933 2.490179 4.855365 0
M  V30 45 H -1.592576 3.500856 4.287030 0
M  V30 46 H -4.103542 3.359253 2.959563 0
M  V30 47 H -0.112774 -1.973674 1.734892 0
M  V30 END ATOM
M  V30 BEGIN BOND
M  V30 1 1 1 2
M  V30 2 1 2 3
M  V30 3 1 2 4
M  V30 4 2 4 5
M  V30 5 1 5 6
M  V30 6 2 6 7
M  V30 7 1 7 8
M  V30 8 2 8 9
M  V30 9 1 9 10
M  V30 10 2 10 11
M  V30 11 1 11 12
M  V30 12 2 12 13
M  V30 13 1 13 14
M  V30 14 2 14 15
M  V30 15 1 15 16
M  V30 16 1 16 17
M  V30 17 1 17 18
M  V30 18 1 18 19
M  V30 19 1 19 20
M  V30 20 1 20 21
M  V30 21 1 21 22
M  V30 22 2 16 23
M  V30 23 1 7 24
M  V30 24 2 24 25
M  V30 25 1 25 4
M  V30 26 1 23 8
M  V30 27 1 15 10
M  V30 28 1 1 26
M  V30 29 1 1 27
M  V30 30 1 1 28
M  V30 31 1 3 29
M  V30 32 1 3 30
M  V30 33 1 3 31
M  V30 34 1 5 32
M  V30 35 1 6 33
M  V30 36 1 9 34
M  V30 37 1 12 35
M  V30 38 1 13 36
M  V30 39 1 17 37
M  V30 40 1 18 38
M  V30 41 1 18 39
M  V30 42 1 19 40
M  V30 43 1 19 41
M  V30 44 1 20 42
M  V30 45 1 20 43
M  V30 46 1 21 44
M  V30 47 1 21 45
M  V30 48 1 22 46
M  V30 49 1 24 47
M  V30 END BOND
M  V30 END CTAB
M  END
>  <Dataset>  (877) 
ChEMBL_Kinases

>  <Ligand_Instance>  (877) 
nan

>  <PDB_ID>  (877) 
nan

>  <Standardized_SMILES>  (877) 
CN(C)c1ccc(-c2cc3nccnc3c(NCCCCO)n2)cn1

>  <Name>  (877) 
nan

>  <Pocket>  (877) 
nan

>  <ATP_Site>  (877) 
nan

>  <Peripheral>  (877) 
nan

>  <Num_H_Atoms_ProtBoundConf>  (877) 
nan

>  <Num_Resolved_Atoms>  (877) 
nan

>  <Num_Not_Resolved_Atoms>  (877) 
nan

$$$$
CHEMBL4752279
     RDKit          3D

  0  0  0  0  0  0  0  0  0  0999 V3000
M  V30 BEGIN CTAB
M  V30 COUNTS 36 38 0 0 0
M  V30 BEGIN ATOM
M  V30 1 C 1.727400 -5.014064 2.877787 0
M  V30 2 C 2.752848 -4.049952 3.377442 0
M  V30 3 O 3.099757 -3.086802 2.383914 0
M  V30 4 C 2.150060 -2.232474 1.841632 0
M  V30 5 O 0.926221 -2.249391 2.187385 0
M  V30 6 C 2.528995 -1.241536 0.813495 0
M  V30 7 C 3.832610 -1.168714 0.394018 0
M  V30 8 N 4.102401 -0.252054 -0.535296 0
M  V30 9 C 3.168870 0.580717 -1.061831 0
M  V30 10 N 3.563900 1.527006 -2.052603 0
M  V30 11 N 1.892487 0.486758 -0.629943 0
M  V30 12 N 0.806426 1.186101 -0.990680 0
M  V30 13 C -0.255604 0.723992 -0.272556 0
M  V30 14 C -1.662054 1.121301 -0.264660 0
M  V30 15 C -1.997355 2.061693 0.695826 0
M  V30 16 C -3.305156 2.499224 0.780358 0
M  V30 17 C -4.219366 1.969592 -0.107601 0
M  V30 18 O -5.536929 2.450812 0.023394 0
M  V30 19 C -3.874962 1.026786 -1.067964 0
M  V30 20 O -4.854376 0.540580 -1.927213 0
M  V30 21 C -2.569461 0.586592 -1.156239 0
M  V30 22 N 0.196464 -0.264488 0.529277 0
M  V30 23 C 1.530287 -0.423999 0.318769 0
M  V30 24 H 0.716247 -4.618716 3.056849 0
M  V30 25 H 1.850669 -6.012614 3.362038 0
M  V30 26 H 1.810110 -5.213964 1.788235 0
M  V30 27 H 3.643853 -4.508109 3.828237 0
M  V30 28 H 2.269029 -3.445134 4.194310 0
M  V30 29 H 4.585920 -1.834041 0.812666 0
M  V30 30 H 3.653042 1.489319 -3.109629 0
M  V30 31 H 3.745461 2.307336 -1.362062 0
M  V30 32 H -1.270351 2.466277 1.383166 0
M  V30 33 H -3.577301 3.238872 1.533170 0
M  V30 34 H -6.245285 1.782582 0.310178 0
M  V30 35 H -4.708425 -0.413468 -2.272238 0
M  V30 36 H -2.262768 -0.142891 -1.886649 0
M  V30 END ATOM
M  V30 BEGIN BOND
M  V30 1 1 1 2
M  V30 2 1 2 3
M  V30 3 1 3 4
M  V30 4 2 4 5
M  V30 5 1 4 6
M  V30 6 2 6 7
M  V30 7 1 7 8
M  V30 8 2 8 9
M  V30 9 1 9 10
M  V30 10 1 9 11
M  V30 11 1 11 12
M  V30 12 2 12 13
M  V30 13 1 13 14
M  V30 14 2 14 15
M  V30 15 1 15 16
M  V30 16 2 16 17
M  V30 17 1 17 18
M  V30 18 1 17 19
M  V30 19 1 19 20
M  V30 20 2 19 21
M  V30 21 1 13 22
M  V30 22 2 22 23
M  V30 23 1 23 6
M  V30 24 1 23 11
M  V30 25 1 21 14
M  V30 26 1 1 24
M  V30 27 1 1 25
M  V30 28 1 1 26
M  V30 29 1 2 27
M  V30 30 1 2 28
M  V30 31 1 7 29
M  V30 32 1 10 30
M  V30 33 1 10 31
M  V30 34 1 15 32
M  V30 35 1 16 33
M  V30 36 1 18 34
M  V30 37 1 20 35
M  V30 38 1 21 36
M  V30 END BOND
M  V30 END CTAB
M  END
>  <Dataset>  (878) 
ChEMBL_Kinases

>  <Ligand_Instance>  (878) 
nan

>  <PDB_ID>  (878) 
nan

>  <Standardized_SMILES>  (878) 
CCOC(=O)c1cnc(N)n2nc(-c3ccc(O)c(O)c3)nc12

>  <Name>  (878) 
nan

>  <Pocket>  (878) 
nan

>  <ATP_Site>  (878) 
nan

>  <Peripheral>  (878) 
nan

>  <Num_H_Atoms_ProtBoundConf>  (878) 
nan

>  <Num_Resolved_Atoms>  (878) 
nan

>  <Num_Not_Resolved_Atoms>  (878) 
nan

$$$$
CHEMBL4436998
     RDKit          3D

  0  0  0  0  0  0  0  0  0  0999 V3000
M  V30 BEGIN CTAB
M  V30 COUNTS 50 53 0 0 0
M  V30 BEGIN ATOM
M  V30 1 C -2.321484 -4.000877 4.439505 0
M  V30 2 C -1.584560 -3.089853 3.543115 0
M  V30 3 C -0.473334 -2.355923 3.903982 0
M  V30 4 C 0.179838 -1.510663 3.008018 0
M  V30 5 O 1.267646 -0.910382 3.677673 0
M  V30 6 C -0.304370 -1.397259 1.690917 0
M  V30 7 C 0.612411 -0.461648 1.098476 0
M  V30 8 C 1.836445 -0.712704 0.427319 0
M  V30 9 C 2.614103 0.346791 0.008681 0
M  V30 10 C 2.190840 1.635686 0.248427 0
M  V30 11 C 3.122592 2.695209 -0.254478 0 CFG=1
M  V30 12 C 4.447782 2.574535 0.436397 0
M  V30 13 C 3.361437 2.577501 -1.744470 0
M  V30 14 N 4.277606 3.648394 -2.137215 0
M  V30 15 C 1.017923 1.950976 0.892040 0
M  V30 16 C 0.221854 0.881729 1.320686 0
M  V30 17 C -1.397464 -2.131911 1.370521 0
M  V30 18 C -2.021808 -2.948410 2.249537 0
M  V30 19 N -3.098507 -3.638362 1.842991 0
M  V30 20 C -3.583770 -3.551850 0.596183 0
M  V30 21 O -4.593142 -4.205759 0.233789 0
M  V30 22 C -2.921203 -2.703169 -0.288215 0
M  V30 23 C -3.427956 -2.619430 -1.567973 0
M  V30 24 O -4.534471 -3.355887 -1.913169 0
M  V30 25 C -2.770511 -1.780960 -2.430946 0
M  V30 26 C -1.643843 -1.022130 -2.103191 0
M  V30 27 C -1.249414 -1.202985 -0.799050 0
M  V30 28 C -1.832415 -2.002955 0.116112 0
M  V30 29 H -1.848257 -3.990995 5.432602 0
M  V30 30 H -2.204140 -5.040418 4.043384 0
M  V30 31 H -3.396993 -3.804419 4.471580 0
M  V30 32 H -0.204275 -2.534562 4.945452 0
M  V30 33 H 2.037066 -0.565022 3.091335 0
M  V30 34 H 2.024022 -1.771959 0.317977 0
M  V30 35 H 3.529630 0.079333 -0.493808 0
M  V30 36 H 2.706539 3.696320 -0.020266 0
M  V30 37 H 4.366492 2.226430 1.501302 0
M  V30 38 H 5.152746 1.905846 -0.100712 0
M  V30 39 H 4.901330 3.586372 0.482503 0
M  V30 40 H 3.883347 1.632830 -1.981054 0
M  V30 41 H 2.412367 2.615983 -2.311930 0
M  V30 42 H 4.149802 4.430123 -1.456141 0
M  V30 43 H 3.924041 4.009901 -3.051414 0
M  V30 44 H 0.740218 2.964544 1.050406 0
M  V30 45 H -0.679903 1.175466 1.815797 0
M  V30 46 H -3.599095 -4.271141 2.488859 0
M  V30 47 H -5.446581 -2.918588 -1.826873 0
M  V30 48 H -3.215827 -1.757673 -3.421681 0
M  V30 49 H -1.300999 -0.444682 -2.926572 0
M  V30 50 H -0.422235 -0.572832 -0.747140 0
M  V30 END ATOM
M  V30 BEGIN BOND
M  V30 1 1 1 2
M  V30 2 2 2 3
M  V30 3 1 3 4
M  V30 4 1 4 5
M  V30 5 2 4 6
M  V30 6 1 6 7
M  V30 7 2 7 8
M  V30 8 1 8 9
M  V30 9 2 9 10
M  V30 10 1 10 11
M  V30 11 1 11 12
M  V30 12 1 11 13
M  V30 13 1 13 14
M  V30 14 1 10 15
M  V30 15 2 15 16
M  V30 16 1 6 17
M  V30 17 2 17 18
M  V30 18 1 18 19
M  V30 19 1 19 20
M  V30 20 2 20 21
M  V30 21 1 20 22
M  V30 22 2 22 23
M  V30 23 1 23 24
M  V30 24 1 23 25
M  V30 25 2 25 26
M  V30 26 1 26 27
M  V30 27 2 27 28
M  V30 28 1 18 2
M  V30 29 1 28 22
M  V30 30 1 16 7
M  V30 31 1 28 17
M  V30 32 1 1 29
M  V30 33 1 1 30
M  V30 34 1 1 31
M  V30 35 1 3 32
M  V30 36 1 5 33
M  V30 37 1 8 34
M  V30 38 1 9 35
M  V30 39 1 11 36 CFG=3
M  V30 40 1 12 37
M  V30 41 1 12 38
M  V30 42 1 12 39
M  V30 43 1 13 40
M  V30 44 1 13 41
M  V30 45 1 14 42
M  V30 46 1 14 43
M  V30 47 1 15 44
M  V30 48 1 16 45
M  V30 49 1 19 46
M  V30 50 1 24 47
M  V30 51 1 25 48
M  V30 52 1 26 49
M  V30 53 1 27 50
M  V30 END BOND
M  V30 END CTAB
M  END
>  <Dataset>  (879) 
ChEMBL_Kinases

>  <Ligand_Instance>  (879) 
nan

>  <PDB_ID>  (879) 
nan

>  <Standardized_SMILES>  (879) 
Cc1cc(O)c(-c2ccc([C@@H](C)CN)cc2)c2c1[nH]c(=O)c1c(O)cccc12

>  <Name>  (879) 
nan

>  <Pocket>  (879) 
nan

>  <ATP_Site>  (879) 
nan

>  <Peripheral>  (879) 
nan

>  <Num_H_Atoms_ProtBoundConf>  (879) 
nan

>  <Num_Resolved_Atoms>  (879) 
nan

>  <Num_Not_Resolved_Atoms>  (879) 
nan

$$$$
CHEMBL4439346
     RDKit          3D

  0  0  0  0  0  0  0  0  0  0999 V3000
M  V30 BEGIN CTAB
M  V30 COUNTS 57 61 0 0 0
M  V30 BEGIN ATOM
M  V30 1 O 1.584469 1.798527 3.762179 0
M  V30 2 C 1.014580 1.897712 4.902231 0
M  V30 3 C 1.586589 3.222066 5.337313 0
M  V30 4 C 2.468881 3.620453 4.181054 0
M  V30 5 C 3.798251 3.259151 4.112315 0
M  V30 6 C 4.614594 3.617686 3.059974 0
M  V30 7 C 4.062959 4.373146 2.034834 0
M  V30 8 C 2.738969 4.759078 2.057985 0
M  V30 9 O 2.263725 5.508259 1.004057 0
M  V30 10 C 1.696181 4.935703 -0.160298 0
M  V30 11 F 2.586684 4.101681 -0.831082 0
M  V30 12 F 1.325356 5.901100 -1.060213 0
M  V30 13 F 0.597293 4.189393 0.149507 0
M  V30 14 C 1.946898 4.379111 3.134815 0
M  V30 15 N 0.127844 0.962535 5.467940 0
M  V30 16 C 0.015022 -0.091728 4.504559 0
M  V30 17 C -1.002684 0.105663 3.592333 0
M  V30 18 C -1.210946 -0.843235 2.612083 0
M  V30 19 O -2.229925 -0.662959 1.684439 0
M  V30 20 C -2.474833 -1.587205 0.678117 0
M  V30 21 C -3.323344 -2.673063 0.739736 0
M  V30 22 C -3.538069 -3.567881 -0.284184 0
M  V30 23 C -2.877049 -3.410202 -1.485936 0
M  V30 24 N -2.923353 -4.130364 -2.591123 0
M  V30 25 C -2.401287 -4.030188 -3.581525 0
M  V30 26 N -2.452484 -4.836964 -4.827114 0
M  V30 27 C -1.499362 -5.864179 -4.822106 0
M  V30 28 O -0.580007 -6.682211 -4.567490 0
M  V30 29 C -1.385485 -6.788119 -5.979967 0
M  V30 30 C -1.483870 -6.259651 -7.378542 0
M  V30 31 C -2.575041 -7.103197 -6.806639 0
M  V30 32 S -1.377863 -2.463988 -3.225347 0
M  V30 33 C -2.031563 -2.328936 -1.548661 0
M  V30 34 C -1.806237 -1.415124 -0.516633 0
M  V30 35 C -0.371438 -1.937922 2.617241 0
M  V30 36 C 0.648298 -2.143582 3.525067 0
M  V30 37 C 0.850082 -1.184161 4.506853 0
M  V30 38 F 1.825506 -1.298537 5.440814 0
M  V30 39 H 2.231979 3.054635 6.227315 0
M  V30 40 H 0.796934 3.956667 5.522475 0
M  V30 41 H 4.237044 2.666908 4.912494 0
M  V30 42 H 5.653292 3.317235 3.037270 0
M  V30 43 H 4.701791 4.664066 1.193063 0
M  V30 44 H 0.906678 4.690633 3.137698 0
M  V30 45 H -0.157331 1.337407 6.398581 0
M  V30 46 H -1.658958 0.961805 3.588254 0
M  V30 47 H -3.843760 -2.786769 1.704220 0
M  V30 48 H -4.250721 -4.372676 -0.052174 0
M  V30 49 H -3.062784 -4.751053 -5.658935 0
M  V30 50 H -0.595061 -7.552151 -5.849669 0
M  V30 51 H -0.855340 -6.733342 -8.183130 0
M  V30 52 H -1.690271 -5.211811 -7.596743 0
M  V30 53 H -2.644474 -8.167308 -7.139881 0
M  V30 54 H -3.526152 -6.574053 -6.547679 0
M  V30 55 H -1.114030 -0.644116 -0.759423 0
M  V30 56 H -0.553833 -2.677883 1.832004 0
M  V30 57 H 1.279671 -3.019816 3.486766 0
M  V30 END ATOM
M  V30 BEGIN BOND
M  V30 1 2 1 2
M  V30 2 1 2 3
M  V30 3 1 3 4
M  V30 4 2 4 5
M  V30 5 1 5 6
M  V30 6 2 6 7
M  V30 7 1 7 8
M  V30 8 1 8 9
M  V30 9 1 9 10
M  V30 10 1 10 11
M  V30 11 1 10 12
M  V30 12 1 10 13
M  V30 13 2 8 14
M  V30 14 1 2 15
M  V30 15 1 15 16
M  V30 16 2 16 17
M  V30 17 1 17 18
M  V30 18 1 18 19
M  V30 19 1 19 20
M  V30 20 2 20 21
M  V30 21 1 21 22
M  V30 22 2 22 23
M  V30 23 1 23 24
M  V30 24 2 24 25
M  V30 25 1 25 26
M  V30 26 1 26 27
M  V30 27 2 27 28
M  V30 28 1 27 29
M  V30 29 1 29 30
M  V30 30 1 30 31
M  V30 31 1 25 32
M  V30 32 1 32 33
M  V30 33 2 33 34
M  V30 34 2 18 35
M  V30 35 1 35 36
M  V30 36 2 36 37
M  V30 37 1 37 38
M  V30 38 1 14 4
M  V30 39 1 37 16
M  V30 40 1 34 20
M  V30 41 1 33 23
M  V30 42 1 31 29
M  V30 43 1 3 39
M  V30 44 1 3 40
M  V30 45 1 5 41
M  V30 46 1 6 42
M  V30 47 1 7 43
M  V30 48 1 14 44
M  V30 49 1 15 45
M  V30 50 1 17 46
M  V30 51 1 21 47
M  V30 52 1 22 48
M  V30 53 1 26 49
M  V30 54 1 29 50
M  V30 55 1 30 51
M  V30 56 1 30 52
M  V30 57 1 31 53
M  V30 58 1 31 54
M  V30 59 1 34 55
M  V30 60 1 35 56
M  V30 61 1 36 57
M  V30 END BOND
M  V30 END CTAB
M  END
>  <Dataset>  (880) 
ChEMBL_Kinases

>  <Ligand_Instance>  (880) 
nan

>  <PDB_ID>  (880) 
nan

>  <Standardized_SMILES>  (880) 
O=C(Cc1cccc(OC(F)(F)F)c1)Nc1cc(Oc2ccc3nc(NC(=O)C4CC4)sc3c2)ccc1F

>  <Name>  (880) 
nan

>  <Pocket>  (880) 
nan

>  <ATP_Site>  (880) 
nan

>  <Peripheral>  (880) 
nan

>  <Num_H_Atoms_ProtBoundConf>  (880) 
nan

>  <Num_Resolved_Atoms>  (880) 
nan

>  <Num_Not_Resolved_Atoms>  (880) 
nan

$$$$
CHEMBL4439340
     RDKit          3D

  0  0  0  0  0  0  0  0  0  0999 V3000
M  V30 BEGIN CTAB
M  V30 COUNTS 41 43 0 0 0
M  V30 BEGIN ATOM
M  V30 1 C 0.828485 -3.928740 2.324276 0
M  V30 2 C -0.006797 -3.949639 1.091951 0
M  V30 3 C -0.954828 -2.741835 0.987931 0
M  V30 4 C -1.917854 -2.719193 2.192150 0
M  V30 5 C -2.760663 -3.946680 2.263332 0
M  V30 6 N -0.437666 -1.547445 0.674625 0
M  V30 7 C 0.137885 -0.218234 0.325968 0
M  V30 8 N 1.175754 0.445494 0.936321 0
M  V30 9 C 1.549648 1.621173 0.425909 0
M  V30 10 C 2.667447 2.219920 1.136125 0
M  V30 11 C 3.113659 3.439469 0.618676 0
M  V30 12 C 4.203068 3.966068 1.325051 0
M  V30 13 N 4.803489 3.412323 2.391720 0
M  V30 14 C 4.372105 2.242409 2.884839 0
M  V30 15 C 3.302418 1.700617 2.212234 0
M  V30 16 N 0.955609 2.152099 -0.635316 0
M  V30 17 C -0.066259 1.595371 -1.311690 0
M  V30 18 C -0.602615 2.240171 -2.394611 0
M  V30 19 N -1.615377 1.601286 -2.995566 0
M  V30 20 C -2.076277 0.410819 -2.568172 0
M  V30 21 C -1.501002 -0.215784 -1.455979 0
M  V30 22 C -0.432145 0.389274 -0.768652 0
M  V30 23 H 0.668504 -4.868624 2.904111 0
M  V30 24 H 1.930746 -3.924683 2.072864 0
M  V30 25 H 0.692103 -3.030307 2.967777 0
M  V30 26 H -0.534118 -4.898108 0.909521 0
M  V30 27 H 0.665777 -3.817359 0.195117 0
M  V30 28 H -1.685428 -3.143690 0.162465 0
M  V30 29 H -1.355550 -2.453625 3.086163 0
M  V30 30 H -2.609425 -1.864469 1.964882 0
M  V30 31 H -2.347164 -4.832694 1.776791 0
M  V30 32 H -2.929853 -4.219626 3.342357 0
M  V30 33 H -3.805508 -3.804600 1.860629 0
M  V30 34 H 0.153181 -1.690950 1.556701 0
M  V30 35 H 2.642708 3.892620 -0.237736 0
M  V30 36 H 4.602026 4.929791 0.967673 0
M  V30 37 H 4.817488 1.768322 3.728127 0
M  V30 38 H 2.936925 0.742400 2.606068 0
M  V30 39 H -0.243736 3.184693 -2.745867 0
M  V30 40 H -2.890381 -0.061048 -3.083538 0
M  V30 41 H -1.893542 -1.173035 -1.140142 0
M  V30 END ATOM
M  V30 BEGIN BOND
M  V30 1 1 1 2
M  V30 2 1 2 3
M  V30 3 1 3 4
M  V30 4 1 4 5
M  V30 5 1 3 6
M  V30 6 1 6 7
M  V30 7 2 7 8
M  V30 8 1 8 9
M  V30 9 1 9 10
M  V30 10 2 10 11
M  V30 11 1 11 12
M  V30 12 2 12 13
M  V30 13 1 13 14
M  V30 14 2 14 15
M  V30 15 2 9 16
M  V30 16 1 16 17
M  V30 17 2 17 18
M  V30 18 1 18 19
M  V30 19 2 19 20
M  V30 20 1 20 21
M  V30 21 2 21 22
M  V30 22 1 22 7
M  V30 23 1 15 10
M  V30 24 1 22 17
M  V30 25 1 1 23
M  V30 26 1 1 24
M  V30 27 1 1 25
M  V30 28 1 2 26
M  V30 29 1 2 27
M  V30 30 1 3 28
M  V30 31 1 4 29
M  V30 32 1 4 30
M  V30 33 1 5 31
M  V30 34 1 5 32
M  V30 35 1 5 33
M  V30 36 1 6 34
M  V30 37 1 11 35
M  V30 38 1 12 36
M  V30 39 1 14 37
M  V30 40 1 15 38
M  V30 41 1 18 39
M  V30 42 1 20 40
M  V30 43 1 21 41
M  V30 END BOND
M  V30 END CTAB
M  END
>  <Dataset>  (881) 
ChEMBL_Kinases

>  <Ligand_Instance>  (881) 
nan

>  <PDB_ID>  (881) 
nan

>  <Standardized_SMILES>  (881) 
CCC(CC)Nc1nc(-c2ccncc2)nc2cnccc12

>  <Name>  (881) 
nan

>  <Pocket>  (881) 
nan

>  <ATP_Site>  (881) 
nan

>  <Peripheral>  (881) 
nan

>  <Num_H_Atoms_ProtBoundConf>  (881) 
nan

>  <Num_Resolved_Atoms>  (881) 
nan

>  <Num_Not_Resolved_Atoms>  (881) 
nan

$$$$
CHEMBL4439328
     RDKit          3D

  0  0  0  0  0  0  0  0  0  0999 V3000
M  V30 BEGIN CTAB
M  V30 COUNTS 45 48 0 0 0
M  V30 BEGIN ATOM
M  V30 1 C 4.209290 -6.608681 -0.335685 0
M  V30 2 N 3.159872 -5.679167 -0.713048 0
M  V30 3 C 2.727952 -4.570083 -0.044071 0
M  V30 4 C 1.739201 -4.114388 -0.879076 0
M  V30 5 C 0.919526 -2.931974 -0.661914 0
M  V30 6 C -0.067240 -2.470574 -1.490623 0
M  V30 7 C -0.853927 -1.357718 -1.309492 0
M  V30 8 N -1.781283 -1.077053 -2.246002 0
M  V30 9 C -2.563918 0.002501 -2.080115 0
M  V30 10 C -2.343857 0.743404 -0.941301 0
M  V30 11 N -1.419573 0.449232 -0.024723 0
M  V30 12 C -0.632226 -0.612738 -0.165299 0
M  V30 13 C 0.378909 -1.077496 0.691712 0
M  V30 14 N 0.515349 -0.200387 1.824980 0
M  V30 15 C 0.648990 0.651441 2.927164 0
M  V30 16 C -0.195476 1.905266 2.713889 0 CFG=2
M  V30 17 C 0.212668 2.714111 1.522588 0
M  V30 18 N -0.938364 3.508169 1.149479 0
M  V30 19 C -1.886183 3.708200 2.217492 0
M  V30 20 C -1.296326 3.869063 3.574131 0
M  V30 21 C -0.255393 2.804768 3.896609 0
M  V30 22 F 0.917839 3.468547 4.166786 0
M  V30 23 F -0.595094 2.055763 5.000808 0
M  V30 24 N 1.080454 -2.167236 0.421535 0
M  V30 25 C 1.564715 -4.891535 -2.000337 0
M  V30 26 N 2.494356 -5.881782 -1.853352 0
M  V30 27 H 5.144896 -6.387092 -0.929291 0
M  V30 28 H 3.911840 -7.648249 -0.544611 0
M  V30 29 H 4.505798 -6.487496 0.725873 0
M  V30 30 H 3.100101 -4.202016 0.882983 0
M  V30 31 H -0.223241 -3.061974 -2.374211 0
M  V30 32 H -3.316009 0.265662 -2.799982 0
M  V30 33 H -2.938767 1.642870 -0.724736 0
M  V30 34 H 1.274776 -0.776891 2.306544 0
M  V30 35 H 1.695108 0.977721 3.203565 0
M  V30 36 H 0.197517 0.205096 3.865269 0
M  V30 37 H -1.230024 1.537246 2.535431 0
M  V30 38 H 1.009108 3.452934 1.841587 0
M  V30 39 H 0.656233 2.160834 0.694681 0
M  V30 40 H -1.360306 3.235159 0.260829 0
M  V30 41 H -2.694883 2.943764 2.153674 0
M  V30 42 H -2.390300 4.689298 1.977945 0
M  V30 43 H -2.139675 3.688468 4.305192 0
M  V30 44 H -0.966040 4.892338 3.779759 0
M  V30 45 H 0.852441 -4.740332 -2.802491 0
M  V30 END ATOM
M  V30 BEGIN BOND
M  V30 1 1 1 2
M  V30 2 1 2 3
M  V30 3 2 3 4
M  V30 4 1 4 5
M  V30 5 2 5 6
M  V30 6 1 6 7
M  V30 7 2 7 8
M  V30 8 1 8 9
M  V30 9 2 9 10
M  V30 10 1 10 11
M  V30 11 2 11 12
M  V30 12 1 12 13
M  V30 13 1 13 14
M  V30 14 1 14 15
M  V30 15 1 15 16
M  V30 16 1 16 17
M  V30 17 1 17 18
M  V30 18 1 18 19
M  V30 19 1 19 20
M  V30 20 1 20 21
M  V30 21 1 21 22
M  V30 22 1 21 23
M  V30 23 2 13 24
M  V30 24 1 4 25
M  V30 25 2 25 26
M  V30 26 1 26 2
M  V30 27 1 24 5
M  V30 28 1 12 7
M  V30 29 1 21 16
M  V30 30 1 1 27
M  V30 31 1 1 28
M  V30 32 1 1 29
M  V30 33 1 3 30
M  V30 34 1 6 31
M  V30 35 1 9 32
M  V30 36 1 10 33
M  V30 37 1 14 34
M  V30 38 1 15 35
M  V30 39 1 15 36
M  V30 40 1 16 37 CFG=3
M  V30 41 1 17 38
M  V30 42 1 17 39
M  V30 43 1 18 40
M  V30 44 1 19 41
M  V30 45 1 19 42
M  V30 46 1 20 43
M  V30 47 1 20 44
M  V30 48 1 25 45
M  V30 END BOND
M  V30 END CTAB
M  END
>  <Dataset>  (882) 
ChEMBL_Kinases

>  <Ligand_Instance>  (882) 
nan

>  <PDB_ID>  (882) 
nan

>  <Standardized_SMILES>  (882) 
Cn1cc(-c2cc3nccnc3c(NC[C@@H]3CNCCC3(F)F)n2)cn1

>  <Name>  (882) 
nan

>  <Pocket>  (882) 
nan

>  <ATP_Site>  (882) 
nan

>  <Peripheral>  (882) 
nan

>  <Num_H_Atoms_ProtBoundConf>  (882) 
nan

>  <Num_Resolved_Atoms>  (882) 
nan

>  <Num_Not_Resolved_Atoms>  (882) 
nan

$$$$
CHEMBL4439279
     RDKit          3D

  0  0  0  0  0  0  0  0  0  0999 V3000
M  V30 BEGIN CTAB
M  V30 COUNTS 59 63 0 0 0
M  V30 BEGIN ATOM
M  V30 1 O 1.520692 1.896091 1.383209 0
M  V30 2 C 1.366298 1.056223 2.304208 0
M  V30 3 C 1.950666 0.105255 3.253635 0
M  V30 4 C 3.449368 0.036993 3.140790 0
M  V30 5 C 4.107025 1.336661 3.411962 0
M  V30 6 C 4.387005 1.514995 4.754448 0
M  V30 7 C 5.007626 2.649272 5.264405 0
M  V30 8 C 5.364864 3.653517 4.387034 0
M  V30 9 C 5.088284 3.478228 3.056774 0
M  V30 10 C 5.457457 4.534688 2.093146 0
M  V30 11 F 5.955183 3.985392 0.937005 0
M  V30 12 F 6.404665 5.377331 2.669523 0
M  V30 13 F 4.311445 5.296528 1.840301 0
M  V30 14 C 4.473067 2.352023 2.555907 0
M  V30 15 N -0.067412 1.044512 2.492681 0
M  V30 16 C -0.940843 1.880391 1.700467 0
M  V30 17 C -1.420828 1.329372 0.527031 0
M  V30 18 C -2.260542 1.956757 -0.371103 0
M  V30 19 O -2.706367 1.343168 -1.534373 0
M  V30 20 C -2.291556 0.051499 -1.746799 0
M  V30 21 C -1.187697 -0.478723 -2.373518 0
M  V30 22 C -0.931905 -1.816108 -2.493053 0
M  V30 23 C -1.806375 -2.761668 -1.968231 0
M  V30 24 N -1.708364 -4.069973 -1.997584 0
M  V30 25 C -2.384804 -4.877019 -1.590311 0
M  V30 26 N -2.386653 -6.343962 -1.555386 0
M  V30 27 C -3.053271 -6.856512 -2.693711 0
M  V30 28 O -3.550676 -6.116733 -3.574044 0
M  V30 29 C -3.191183 -8.336927 -2.890417 0
M  V30 30 C -4.594881 -8.721643 -3.356394 0
M  V30 31 C -3.395344 -8.829620 -4.272882 0
M  V30 32 S -3.722773 -3.711241 -0.842109 0
M  V30 33 C -2.900328 -2.283712 -1.346516 0
M  V30 34 C -3.177471 -0.894973 -1.215276 0
M  V30 35 C -2.626253 3.259663 -0.015296 0
M  V30 36 C -2.168767 3.854412 1.153887 0
M  V30 37 C -1.332418 3.167393 2.003595 0
M  V30 38 F -0.837308 3.668557 3.165953 0
M  V30 39 H 1.577771 -0.931282 3.037594 0
M  V30 40 H 1.634976 0.318323 4.301695 0
M  V30 41 H 3.856153 -0.776090 3.772194 0
M  V30 42 H 3.693068 -0.199930 2.074394 0
M  V30 43 H 4.154897 0.794784 5.547781 0
M  V30 44 H 5.231306 2.801963 6.304107 0
M  V30 45 H 5.844245 4.534282 4.760692 0
M  V30 46 H 4.228118 2.142679 1.524352 0
M  V30 47 H -0.776255 0.564632 3.096030 0
M  V30 48 H -1.126966 0.304269 0.257330 0
M  V30 49 H -0.538802 0.322582 -2.765129 0
M  V30 50 H 0.004984 -2.013260 -3.030019 0
M  V30 51 H -1.965993 -6.977309 -0.813156 0
M  V30 52 H -2.770359 -9.013185 -2.143110 0
M  V30 53 H -5.036335 -9.658476 -2.961429 0
M  V30 54 H -5.311976 -7.933933 -3.631947 0
M  V30 55 H -3.081441 -9.868439 -4.507859 0
M  V30 56 H -3.278685 -8.131964 -5.124312 0
M  V30 57 H -4.110528 -0.717758 -0.680931 0
M  V30 58 H -3.296208 3.820302 -0.688022 0
M  V30 59 H -2.462732 4.872770 1.420336 0
M  V30 END ATOM
M  V30 BEGIN BOND
M  V30 1 2 1 2
M  V30 2 1 2 3
M  V30 3 1 3 4
M  V30 4 1 4 5
M  V30 5 2 5 6
M  V30 6 1 6 7
M  V30 7 2 7 8
M  V30 8 1 8 9
M  V30 9 1 9 10
M  V30 10 1 10 11
M  V30 11 1 10 12
M  V30 12 1 10 13
M  V30 13 2 9 14
M  V30 14 1 2 15
M  V30 15 1 15 16
M  V30 16 2 16 17
M  V30 17 1 17 18
M  V30 18 1 18 19
M  V30 19 1 19 20
M  V30 20 2 20 21
M  V30 21 1 21 22
M  V30 22 2 22 23
M  V30 23 1 23 24
M  V30 24 2 24 25
M  V30 25 1 25 26
M  V30 26 1 26 27
M  V30 27 2 27 28
M  V30 28 1 27 29
M  V30 29 1 29 30
M  V30 30 1 30 31
M  V30 31 1 25 32
M  V30 32 1 32 33
M  V30 33 2 33 34
M  V30 34 2 18 35
M  V30 35 1 35 36
M  V30 36 2 36 37
M  V30 37 1 37 38
M  V30 38 1 14 5
M  V30 39 1 37 16
M  V30 40 1 34 20
M  V30 41 1 33 23
M  V30 42 1 31 29
M  V30 43 1 3 39
M  V30 44 1 3 40
M  V30 45 1 4 41
M  V30 46 1 4 42
M  V30 47 1 6 43
M  V30 48 1 7 44
M  V30 49 1 8 45
M  V30 50 1 14 46
M  V30 51 1 15 47
M  V30 52 1 17 48
M  V30 53 1 21 49
M  V30 54 1 22 50
M  V30 55 1 26 51
M  V30 56 1 29 52
M  V30 57 1 30 53
M  V30 58 1 30 54
M  V30 59 1 31 55
M  V30 60 1 31 56
M  V30 61 1 34 57
M  V30 62 1 35 58
M  V30 63 1 36 59
M  V30 END BOND
M  V30 END CTAB
M  END
>  <Dataset>  (883) 
ChEMBL_Kinases

>  <Ligand_Instance>  (883) 
nan

>  <PDB_ID>  (883) 
nan

>  <Standardized_SMILES>  (883) 
O=C(CCc1cccc(C(F)(F)F)c1)Nc1cc(Oc2ccc3nc(NC(=O)C4CC4)sc3c2)ccc1F

>  <Name>  (883) 
nan

>  <Pocket>  (883) 
nan

>  <ATP_Site>  (883) 
nan

>  <Peripheral>  (883) 
nan

>  <Num_H_Atoms_ProtBoundConf>  (883) 
nan

>  <Num_Resolved_Atoms>  (883) 
nan

>  <Num_Not_Resolved_Atoms>  (883) 
nan

$$$$
CHEMBL4439259
     RDKit          3D

  0  0  0  0  0  0  0  0  0  0999 V3000
M  V30 BEGIN CTAB
M  V30 COUNTS 48 52 0 0 0
M  V30 BEGIN ATOM
M  V30 1 C 4.308175 1.445117 0.988673 0
M  V30 2 C 4.373517 0.239588 0.138415 0
M  V30 3 C 5.559328 -0.383736 -0.187426 0
M  V30 4 C 5.499313 -1.503851 -0.988605 0
M  V30 5 N 6.488615 -2.293741 -1.451670 0
M  V30 6 C 5.953340 -3.274807 -2.200755 0
M  V30 7 N 4.612893 -3.079368 -2.194103 0
M  V30 8 N 4.338188 -1.997399 -1.453261 0
M  V30 9 C 3.141180 -1.412186 -1.155607 0
M  V30 10 C 3.183253 -0.287215 -0.352710 0
M  V30 11 N 1.938836 0.352725 -0.021908 0
M  V30 12 C 0.633830 -0.064084 -0.443065 0
M  V30 13 N 0.221917 -0.257572 -1.698446 0
M  V30 14 C -1.071304 -0.656433 -1.889273 0
M  V30 15 C -1.949598 -0.860804 -0.819375 0
M  V30 16 C -1.487781 -0.650917 0.462826 0
M  V30 17 N -0.208021 -0.259721 0.587248 0
M  V30 18 N -2.514718 -0.913585 1.294991 0
M  V30 19 C -2.311221 -0.773489 2.722421 0
M  V30 20 C -3.536873 -1.032082 3.541174 0
M  V30 21 C -3.302598 -0.366671 4.895093 0
M  V30 22 O -3.557232 1.006374 4.706890 0
M  V30 23 C -3.026391 1.471901 3.519980 0
M  V30 24 C -1.865435 0.663374 3.003001 0
M  V30 25 C -3.558683 -1.269392 0.536312 0
M  V30 26 O -4.665554 -1.574100 1.041527 0
M  V30 27 N -3.230384 -1.242906 -0.767545 0
M  V30 28 C -4.087297 -1.561920 -1.891917 0
M  V30 29 H 5.314876 1.580469 1.440023 0
M  V30 30 H 3.611082 1.334768 1.836267 0
M  V30 31 H 4.111342 2.348582 0.397097 0
M  V30 32 H 6.478352 0.050103 0.211820 0
M  V30 33 H 6.442048 -4.084889 -2.728269 0
M  V30 34 H 2.203619 -1.820724 -1.538940 0
M  V30 35 H 1.959891 1.218910 0.590913 0
M  V30 36 H -1.404315 -0.812484 -2.904950 0
M  V30 37 H -1.481218 -1.451134 3.059619 0
M  V30 38 H -3.687557 -2.126791 3.637693 0
M  V30 39 H -4.410787 -0.515062 3.108422 0
M  V30 40 H -3.959476 -0.785344 5.658975 0
M  V30 41 H -2.216668 -0.464967 5.122366 0
M  V30 42 H -2.647892 2.530278 3.621479 0
M  V30 43 H -3.827229 1.473529 2.756956 0
M  V30 44 H -1.544786 1.161725 2.058531 0
M  V30 45 H -1.022003 0.655305 3.717703 0
M  V30 46 H -4.956884 -2.139785 -1.492073 0
M  V30 47 H -4.510500 -0.623460 -2.314100 0
M  V30 48 H -3.587162 -2.159343 -2.667693 0
M  V30 END ATOM
M  V30 BEGIN BOND
M  V30 1 1 1 2
M  V30 2 2 2 3
M  V30 3 1 3 4
M  V30 4 2 4 5
M  V30 5 1 5 6
M  V30 6 2 6 7
M  V30 7 1 7 8
M  V30 8 1 8 9
M  V30 9 2 9 10
M  V30 10 1 10 11
M  V30 11 1 11 12
M  V30 12 2 12 13
M  V30 13 1 13 14
M  V30 14 2 14 15
M  V30 15 1 15 16
M  V30 16 2 16 17
M  V30 17 1 16 18
M  V30 18 1 18 19
M  V30 19 1 19 20
M  V30 20 1 20 21
M  V30 21 1 21 22
M  V30 22 1 22 23
M  V30 23 1 23 24
M  V30 24 1 18 25
M  V30 25 2 25 26
M  V30 26 1 25 27
M  V30 27 1 27 28
M  V30 28 1 10 2
M  V30 29 1 17 12
M  V30 30 1 24 19
M  V30 31 1 8 4
M  V30 32 1 27 15
M  V30 33 1 1 29
M  V30 34 1 1 30
M  V30 35 1 1 31
M  V30 36 1 3 32
M  V30 37 1 6 33
M  V30 38 1 9 34
M  V30 39 1 11 35
M  V30 40 1 14 36
M  V30 41 1 19 37
M  V30 42 1 20 38
M  V30 43 1 20 39
M  V30 44 1 21 40
M  V30 45 1 21 41
M  V30 46 1 23 42
M  V30 47 1 23 43
M  V30 48 1 24 44
M  V30 49 1 24 45
M  V30 50 1 28 46
M  V30 51 1 28 47
M  V30 52 1 28 48
M  V30 END BOND
M  V30 END CTAB
M  END
>  <Dataset>  (884) 
ChEMBL_Kinases

>  <Ligand_Instance>  (884) 
nan

>  <PDB_ID>  (884) 
nan

>  <Standardized_SMILES>  (884) 
Cc1cc2ncnn2cc1Nc1ncc2c(n1)n(C1CCOCC1)c(=O)n2C

>  <Name>  (884) 
nan

>  <Pocket>  (884) 
nan

>  <ATP_Site>  (884) 
nan

>  <Peripheral>  (884) 
nan

>  <Num_H_Atoms_ProtBoundConf>  (884) 
nan

>  <Num_Resolved_Atoms>  (884) 
nan

>  <Num_Not_Resolved_Atoms>  (884) 
nan

$$$$
CHEMBL4439241
     RDKit          3D

  0  0  0  0  0  0  0  0  0  0999 V3000
M  V30 BEGIN CTAB
M  V30 COUNTS 44 47 0 0 0
M  V30 BEGIN ATOM
M  V30 1 C 1.001144 -3.062216 3.981188 0
M  V30 2 C 0.458501 -1.658121 3.774327 0
M  V30 3 C 1.103984 -0.901978 2.731441 0
M  V30 4 N 2.224303 -0.243017 3.185952 0
M  V30 5 C 2.770012 0.480669 2.203095 0
M  V30 6 C 3.885174 1.281821 2.231357 0
M  V30 7 N 4.200878 1.902177 1.084202 0
M  V30 8 C 3.450319 1.733312 -0.017957 0
M  V30 9 C 3.867192 2.434799 -1.123777 0
M  V30 10 C 3.106516 2.296786 -2.267347 0
M  V30 11 C 1.976667 1.488812 -2.295165 0
M  V30 12 Cl 1.110324 1.410606 -3.812542 0
M  V30 13 C 1.655548 0.830712 -1.119020 0
M  V30 14 C 2.347903 0.910935 0.041841 0
M  V30 15 C 1.920017 0.221989 1.141462 0
M  V30 16 N 0.898221 -0.612206 1.418406 0
M  V30 17 C -0.122525 -1.076120 0.603034 0 CFG=1
M  V30 18 C -0.700032 -2.461586 0.952588 0
M  V30 19 C -2.127979 -2.378396 1.440110 0
M  V30 20 O -2.953098 -2.178026 0.361161 0
M  V30 21 C -2.355089 -1.190744 -0.374950 0 CFG=1
M  V30 22 C -3.525421 -0.334642 -0.884594 0
M  V30 23 C -3.009860 0.777724 -1.701708 0
M  V30 24 N -2.588193 1.670329 -2.338639 0
M  V30 25 C -1.379045 -0.318520 0.397134 0
M  V30 26 H 0.188264 -3.814095 3.875225 0
M  V30 27 H 1.709751 -3.314918 3.139063 0
M  V30 28 H 1.589977 -3.190309 4.890501 0
M  V30 29 H -0.641149 -1.720003 3.740470 0
M  V30 30 H 0.576518 -1.194961 4.797703 0
M  V30 31 H 4.450857 1.381150 3.146997 0
M  V30 32 H 4.743189 3.064324 -1.109513 0
M  V30 33 H 3.426733 2.845945 -3.146814 0
M  V30 34 H 0.777499 0.279856 -1.285625 0
M  V30 35 H 0.216104 -1.299296 -0.440265 0
M  V30 36 H -0.841781 -3.076849 -0.017108 0
M  V30 37 H -0.032754 -3.093615 1.506560 0
M  V30 38 H -2.341996 -1.532986 2.119193 0
M  V30 39 H -2.372687 -3.287456 2.021903 0
M  V30 40 H -1.838010 -1.554098 -1.273931 0
M  V30 41 H -4.091412 0.070868 -0.043932 0
M  V30 42 H -4.187603 -0.909780 -1.528848 0
M  V30 43 H -1.815615 0.175065 1.281075 0
M  V30 44 H -1.333457 0.475240 -0.406664 0
M  V30 END ATOM
M  V30 BEGIN BOND
M  V30 1 1 1 2
M  V30 2 1 2 3
M  V30 3 2 3 4
M  V30 4 1 4 5
M  V30 5 2 5 6
M  V30 6 1 6 7
M  V30 7 2 7 8
M  V30 8 1 8 9
M  V30 9 2 9 10
M  V30 10 1 10 11
M  V30 11 1 11 12
M  V30 12 2 11 13
M  V30 13 1 13 14
M  V30 14 2 14 15
M  V30 15 1 15 16
M  V30 16 1 16 17
M  V30 17 1 17 18
M  V30 18 1 18 19
M  V30 19 1 19 20
M  V30 20 1 20 21
M  V30 21 1 21 22
M  V30 22 1 22 23
M  V30 23 3 23 24
M  V30 24 1 21 25
M  V30 25 1 16 3
M  V30 26 1 25 17
M  V30 27 1 15 5
M  V30 28 1 14 8
M  V30 29 1 1 26
M  V30 30 1 1 27
M  V30 31 1 1 28
M  V30 32 1 2 29
M  V30 33 1 2 30
M  V30 34 1 6 31
M  V30 35 1 9 32
M  V30 36 1 10 33
M  V30 37 1 13 34
M  V30 38 1 17 35 CFG=3
M  V30 39 1 18 36
M  V30 40 1 18 37
M  V30 41 1 19 38
M  V30 42 1 19 39
M  V30 43 1 21 40 CFG=3
M  V30 44 1 22 41
M  V30 45 1 22 42
M  V30 46 1 25 43
M  V30 47 1 25 44
M  V30 END BOND
M  V30 END CTAB
M  END
>  <Dataset>  (885) 
ChEMBL_Kinases

>  <Ligand_Instance>  (885) 
nan

>  <PDB_ID>  (885) 
nan

>  <Standardized_SMILES>  (885) 
CCc1nc2cnc3ccc(Cl)cc3c2n1[C@H]1CCO[C@@H](CC#N)C1

>  <Name>  (885) 
nan

>  <Pocket>  (885) 
nan

>  <ATP_Site>  (885) 
nan

>  <Peripheral>  (885) 
nan

>  <Num_H_Atoms_ProtBoundConf>  (885) 
nan

>  <Num_Resolved_Atoms>  (885) 
nan

>  <Num_Not_Resolved_Atoms>  (885) 
nan

$$$$
CHEMBL4439152
     RDKit          3D

  0  0  0  0  0  0  0  0  0  0999 V3000
M  V30 BEGIN CTAB
M  V30 COUNTS 52 56 0 0 0
M  V30 BEGIN ATOM
M  V30 1 C 4.808076 -0.343828 7.050087 0
M  V30 2 C 4.114404 0.078633 5.810757 0
M  V30 3 C 3.769945 1.381539 5.521631 0
M  V30 4 C 3.131284 1.669660 4.353275 0
M  V30 5 C 2.782592 0.714532 3.385060 0
M  V30 6 N 2.127556 1.271414 2.246413 0
M  V30 7 C 2.467190 1.239079 0.869968 0
M  V30 8 N 3.581483 1.900414 0.621710 0
M  V30 9 C 4.147302 2.047566 -0.585568 0
M  V30 10 N 3.507641 1.464505 -1.609561 0
M  V30 11 C 2.375354 0.794755 -1.347756 0
M  V30 12 S 1.189926 -0.138807 -2.459335 0
M  V30 13 C 0.111534 -0.587361 -1.139806 0
M  V30 14 C 0.613282 -0.082445 -0.029513 0
M  V30 15 C 1.766808 0.621055 -0.136478 0
M  V30 16 C -0.320776 -0.469174 1.051793 0
M  V30 17 C -1.719283 -0.407239 0.425386 0
M  V30 18 N -1.814110 -1.672749 -0.326704 0
M  V30 19 S -3.384027 -2.267224 -0.382314 0
M  V30 20 O -4.229273 -1.553026 0.661201 0
M  V30 21 O -3.340797 -3.711968 0.114743 0
M  V30 22 C -4.185346 -2.274751 -1.904364 0
M  V30 23 C -5.290354 -1.433178 -2.079032 0
M  V30 24 C -6.002886 -1.318858 -3.230630 0
M  V30 25 C -5.655171 -2.058615 -4.327974 0
M  V30 26 C -4.575487 -2.910261 -4.227207 0
M  V30 27 C -3.893395 -2.983742 -3.035535 0
M  V30 28 N -2.806809 -3.892041 -2.964879 0 CHG=1 VAL=4
M  V30 29 O -2.267239 -4.612697 -2.105105 0
M  V30 30 O -1.990601 -4.226559 -4.016617 0 CHG=-1 VAL=1
M  V30 31 C -1.122796 -1.433002 -1.541547 0
M  V30 32 C 3.136061 -0.576423 3.694134 0
M  V30 33 Br 2.688004 -1.860855 2.390189 0
M  V30 34 C 3.779418 -0.874152 4.869476 0
M  V30 35 H 5.906502 -0.294968 6.974483 0
M  V30 36 H 4.529555 -1.374789 7.352449 0
M  V30 37 H 4.479089 0.358379 7.843689 0
M  V30 38 H 4.041754 2.109577 6.272250 0
M  V30 39 H 2.916880 2.738995 4.250241 0
M  V30 40 H 1.260451 1.789970 2.505954 0
M  V30 41 H 5.039815 2.565446 -0.852458 0
M  V30 42 H -0.366505 0.202090 1.907966 0
M  V30 43 H -0.191128 -1.544481 1.358420 0
M  V30 44 H -1.822839 0.447873 -0.275707 0
M  V30 45 H -2.495515 -0.356296 1.185240 0
M  V30 46 H -5.638625 -0.806648 -1.256491 0
M  V30 47 H -6.857187 -0.646347 -3.311127 0
M  V30 48 H -6.219555 -1.967550 -5.237801 0
M  V30 49 H -4.275763 -3.508055 -5.075512 0
M  V30 50 H -0.739995 -2.357277 -2.030369 0
M  V30 51 H -1.717281 -0.813562 -2.261452 0
M  V30 52 H 4.015179 -1.933096 5.018016 0
M  V30 END ATOM
M  V30 BEGIN BOND
M  V30 1 1 1 2
M  V30 2 2 2 3
M  V30 3 1 3 4
M  V30 4 2 4 5
M  V30 5 1 5 6
M  V30 6 1 6 7
M  V30 7 2 7 8
M  V30 8 1 8 9
M  V30 9 2 9 10
M  V30 10 1 10 11
M  V30 11 1 11 12
M  V30 12 1 12 13
M  V30 13 2 13 14
M  V30 14 1 14 15
M  V30 15 1 14 16
M  V30 16 1 16 17
M  V30 17 1 17 18
M  V30 18 1 18 19
M  V30 19 2 19 20
M  V30 20 2 19 21
M  V30 21 1 19 22
M  V30 22 2 22 23
M  V30 23 1 23 24
M  V30 24 2 24 25
M  V30 25 1 25 26
M  V30 26 2 26 27
M  V30 27 1 27 28
M  V30 28 2 28 29
M  V30 29 1 28 30
M  V30 30 1 18 31
M  V30 31 1 5 32
M  V30 32 1 32 33
M  V30 33 2 32 34
M  V30 34 1 34 2
M  V30 35 1 15 7
M  V30 36 1 27 22
M  V30 37 2 15 11
M  V30 38 1 31 13
M  V30 39 1 1 35
M  V30 40 1 1 36
M  V30 41 1 1 37
M  V30 42 1 3 38
M  V30 43 1 4 39
M  V30 44 1 6 40
M  V30 45 1 9 41
M  V30 46 1 16 42
M  V30 47 1 16 43
M  V30 48 1 17 44
M  V30 49 1 17 45
M  V30 50 1 23 46
M  V30 51 1 24 47
M  V30 52 1 25 48
M  V30 53 1 26 49
M  V30 54 1 31 50
M  V30 55 1 31 51
M  V30 56 1 34 52
M  V30 END BOND
M  V30 END CTAB
M  END
>  <Dataset>  (886) 
ChEMBL_Kinases

>  <Ligand_Instance>  (886) 
nan

>  <PDB_ID>  (886) 
nan

>  <Standardized_SMILES>  (886) 
Cc1ccc(Nc2ncnc3sc4c(c23)CCN(S(=O)(=O)c2ccccc2[N+](=O)[O-])C4)c(Br)c1

>  <Name>  (886) 
nan

>  <Pocket>  (886) 
nan

>  <ATP_Site>  (886) 
nan

>  <Peripheral>  (886) 
nan

>  <Num_H_Atoms_ProtBoundConf>  (886) 
nan

>  <Num_Resolved_Atoms>  (886) 
nan

>  <Num_Not_Resolved_Atoms>  (886) 
nan

$$$$
CHEMBL4439149
     RDKit          3D

  0  0  0  0  0  0  0  0  0  0999 V3000
M  V30 BEGIN CTAB
M  V30 COUNTS 40 42 0 0 0
M  V30 BEGIN ATOM
M  V30 1 N 0.615431 -5.499332 0.053195 0
M  V30 2 C -0.390446 -4.688354 0.704333 0
M  V30 3 C 0.264644 -3.439525 1.219168 0
M  V30 4 C 0.898741 -2.621069 0.120390 0
M  V30 5 C -0.081265 -2.174087 -0.912688 0
M  V30 6 N -1.119128 -1.355378 -0.312905 0
M  V30 7 C -0.819927 -0.113374 0.306361 0
M  V30 8 N 0.438485 0.352359 0.350562 0
M  V30 9 C 0.780699 1.521616 0.917795 0
M  V30 10 C 2.163062 1.940827 0.917187 0
M  V30 11 C 2.575981 3.119557 1.478098 0
M  V30 12 C 3.896196 3.510610 1.472599 0
M  V30 13 N 4.829803 2.734480 0.908078 0
M  V30 14 C 4.474307 1.553098 0.336455 0
M  V30 15 C 3.139701 1.145902 0.335686 0
M  V30 16 N -0.146851 2.300617 1.482857 0
M  V30 17 C -1.454026 1.920339 1.492063 0
M  V30 18 C -2.435390 2.701166 2.066871 0
M  V30 19 N -3.732451 2.283164 2.054415 0
M  V30 20 C -4.063727 1.098109 1.477009 0
M  V30 21 C -3.062259 0.342837 0.912550 0
M  V30 22 C -1.742377 0.715046 0.896921 0
M  V30 23 H 0.425074 -5.732979 -0.926210 0
M  V30 24 H 1.586982 -5.245737 0.293053 0
M  V30 25 H -1.213936 -4.414481 -0.009646 0
M  V30 26 H -0.798075 -5.229463 1.583165 0
M  V30 27 H 1.057016 -3.733359 1.928939 0
M  V30 28 H -0.475420 -2.807250 1.771907 0
M  V30 29 H 1.423665 -1.771120 0.551992 0
M  V30 30 H 1.637108 -3.295243 -0.370141 0
M  V30 31 H -0.491367 -2.989543 -1.522899 0
M  V30 32 H 0.496085 -1.517740 -1.628118 0
M  V30 33 H -2.072635 -1.765399 -0.384012 0
M  V30 34 H 1.869805 3.791623 1.950364 0
M  V30 35 H 4.303967 4.424203 1.893141 0
M  V30 36 H 5.224331 0.929008 -0.117358 0
M  V30 37 H 2.881349 0.197709 -0.127481 0
M  V30 38 H -2.169433 3.651889 2.530068 0
M  V30 39 H -5.108324 0.881965 1.531148 0
M  V30 40 H -3.401916 -0.571136 0.480915 0
M  V30 END ATOM
M  V30 BEGIN BOND
M  V30 1 1 1 2
M  V30 2 1 2 3
M  V30 3 1 3 4
M  V30 4 1 4 5
M  V30 5 1 5 6
M  V30 6 1 6 7
M  V30 7 2 7 8
M  V30 8 1 8 9
M  V30 9 1 9 10
M  V30 10 2 10 11
M  V30 11 1 11 12
M  V30 12 2 12 13
M  V30 13 1 13 14
M  V30 14 2 14 15
M  V30 15 2 9 16
M  V30 16 1 16 17
M  V30 17 2 17 18
M  V30 18 1 18 19
M  V30 19 2 19 20
M  V30 20 1 20 21
M  V30 21 2 21 22
M  V30 22 1 22 7
M  V30 23 1 15 10
M  V30 24 1 22 17
M  V30 25 1 1 23
M  V30 26 1 1 24
M  V30 27 1 2 25
M  V30 28 1 2 26
M  V30 29 1 3 27
M  V30 30 1 3 28
M  V30 31 1 4 29
M  V30 32 1 4 30
M  V30 33 1 5 31
M  V30 34 1 5 32
M  V30 35 1 6 33
M  V30 36 1 11 34
M  V30 37 1 12 35
M  V30 38 1 14 36
M  V30 39 1 15 37
M  V30 40 1 18 38
M  V30 41 1 20 39
M  V30 42 1 21 40
M  V30 END BOND
M  V30 END CTAB
M  END
>  <Dataset>  (887) 
ChEMBL_Kinases

>  <Ligand_Instance>  (887) 
nan

>  <PDB_ID>  (887) 
nan

>  <Standardized_SMILES>  (887) 
NCCCCNc1nc(-c2ccncc2)nc2cnccc12

>  <Name>  (887) 
nan

>  <Pocket>  (887) 
nan

>  <ATP_Site>  (887) 
nan

>  <Peripheral>  (887) 
nan

>  <Num_H_Atoms_ProtBoundConf>  (887) 
nan

>  <Num_Resolved_Atoms>  (887) 
nan

>  <Num_Not_Resolved_Atoms>  (887) 
nan

$$$$
CHEMBL4752286
     RDKit          3D

  0  0  0  0  0  0  0  0  0  0999 V3000
M  V30 BEGIN CTAB
M  V30 COUNTS 61 65 0 0 0
M  V30 BEGIN ATOM
M  V30 1 C 4.029000 -3.715172 6.693689 0
M  V30 2 O 2.808275 -3.346704 7.348877 0
M  V30 3 C 1.894065 -2.632299 6.587345 0
M  V30 4 C 2.093167 -2.269016 5.268052 0
M  V30 5 C 1.155442 -1.555965 4.544888 0
M  V30 6 C 1.372797 -1.182797 3.134912 0
M  V30 7 C 0.820560 -0.002151 2.614627 0
M  V30 8 N 1.063319 0.249512 1.314159 0
M  V30 9 C 1.781068 -0.536237 0.505915 0
M  V30 10 C 2.010826 -0.283187 -0.772724 0
M  V30 11 N 1.702115 0.732816 -1.790019 0
M  V30 12 C 2.487174 1.930783 -2.149533 0
M  V30 13 C 1.508106 2.929423 -2.802964 0
M  V30 14 C 0.259681 2.922435 -1.955181 0
M  V30 15 C -0.504084 1.593897 -2.095299 0
M  V30 16 C -1.723276 1.777107 -2.922110 0
M  V30 17 N -2.569570 0.657579 -3.173653 0
M  V30 18 C -2.503076 -0.565820 -3.844731 0
M  V30 19 O -1.431204 -0.837334 -4.440822 0
M  V30 20 C -3.563112 -1.555651 -3.916553 0
M  V30 21 C -4.797923 -1.466095 -3.319407 0
M  V30 22 C -5.815791 -2.389317 -3.370373 0
M  V30 23 C -5.573260 -3.528581 -4.099033 0
M  V30 24 C -4.347095 -3.699919 -4.736234 0
M  V30 25 C -3.386069 -2.717955 -4.627287 0
M  V30 26 C 0.459605 0.568923 -2.588800 0
M  V30 27 S 2.950767 -1.517774 -1.434928 0
M  V30 28 N 3.081244 -2.522081 0.145518 0
M  V30 29 C 2.345883 -1.700383 0.954417 0
M  V30 30 C 2.127512 -2.010380 2.288759 0
M  V30 31 C -0.046752 -1.178890 5.154550 0
M  V30 32 C -0.264141 -1.527469 6.458021 0
M  V30 33 C 0.685608 -2.245857 7.178677 0
M  V30 34 N 0.350869 -2.563332 8.545688 0
M  V30 35 H 3.842473 -4.195252 5.712171 0
M  V30 36 H 4.564186 -4.454808 7.342399 0
M  V30 37 H 4.650951 -2.816759 6.518822 0
M  V30 38 H 3.019746 -2.557983 4.798674 0
M  V30 39 H 0.248947 0.605220 3.304465 0
M  V30 40 H 2.751765 2.424629 -1.188298 0
M  V30 41 H 3.324504 1.677614 -2.791693 0
M  V30 42 H 1.333438 2.724863 -3.851371 0
M  V30 43 H 1.971566 3.924080 -2.671030 0
M  V30 44 H -0.423947 3.706650 -2.389431 0
M  V30 45 H 0.455089 3.149492 -0.906914 0
M  V30 46 H -0.826146 1.314849 -1.030179 0
M  V30 47 H -2.343260 2.609523 -2.507004 0
M  V30 48 H -1.359144 2.204940 -3.909912 0
M  V30 49 H -3.540456 0.742542 -2.735485 0
M  V30 50 H -5.031944 -0.579242 -2.732785 0
M  V30 51 H -6.762032 -2.232692 -2.864191 0
M  V30 52 H -6.323516 -4.326033 -4.200225 0
M  V30 53 H -4.130621 -4.583887 -5.314197 0
M  V30 54 H -2.439524 -2.891924 -5.142351 0
M  V30 55 H 0.678756 0.689826 -3.655276 0
M  V30 56 H 0.046334 -0.445807 -2.357813 0
M  V30 57 H 2.505712 -2.885909 2.779522 0
M  V30 58 H -0.829130 -0.615366 4.639695 0
M  V30 59 H -1.210914 -1.230292 6.933592 0
M  V30 60 H 0.857462 -2.274920 9.419505 0
M  V30 61 H -0.519838 -3.156078 8.536295 0
M  V30 END ATOM
M  V30 BEGIN BOND
M  V30 1 1 1 2
M  V30 2 1 2 3
M  V30 3 2 3 4
M  V30 4 1 4 5
M  V30 5 1 5 6
M  V30 6 1 6 7
M  V30 7 2 7 8
M  V30 8 1 8 9
M  V30 9 2 9 10
M  V30 10 1 10 11
M  V30 11 1 11 12
M  V30 12 1 12 13
M  V30 13 1 13 14
M  V30 14 1 14 15
M  V30 15 1 15 16
M  V30 16 1 16 17
M  V30 17 1 17 18
M  V30 18 2 18 19
M  V30 19 1 18 20
M  V30 20 2 20 21
M  V30 21 1 21 22
M  V30 22 2 22 23
M  V30 23 1 23 24
M  V30 24 2 24 25
M  V30 25 1 15 26
M  V30 26 1 10 27
M  V30 27 1 27 28
M  V30 28 2 28 29
M  V30 29 1 29 30
M  V30 30 2 5 31
M  V30 31 1 31 32
M  V30 32 2 32 33
M  V30 33 1 33 34
M  V30 34 1 33 3
M  V30 35 2 30 6
M  V30 36 1 29 9
M  V30 37 1 26 11
M  V30 38 1 25 20
M  V30 39 1 1 35
M  V30 40 1 1 36
M  V30 41 1 1 37
M  V30 42 1 4 38
M  V30 43 1 7 39
M  V30 44 1 12 40
M  V30 45 1 12 41
M  V30 46 1 13 42
M  V30 47 1 13 43
M  V30 48 1 14 44
M  V30 49 1 14 45
M  V30 50 1 15 46
M  V30 51 1 16 47
M  V30 52 1 16 48
M  V30 53 1 17 49
M  V30 54 1 21 50
M  V30 55 1 22 51
M  V30 56 1 23 52
M  V30 57 1 24 53
M  V30 58 1 25 54
M  V30 59 1 26 55
M  V30 60 1 26 56
M  V30 61 1 30 57
M  V30 62 1 31 58
M  V30 63 1 32 59
M  V30 64 1 34 60
M  V30 65 1 34 61
M  V30 END BOND
M  V30 END CTAB
M  END
>  <Dataset>  (888) 
ChEMBL_Kinases

>  <Ligand_Instance>  (888) 
nan

>  <PDB_ID>  (888) 
nan

>  <Standardized_SMILES>  (888) 
COc1cc(-c2cnc3c(N4CCCC(CNC(=O)c5ccccc5)C4)snc3c2)ccc1N

>  <Name>  (888) 
nan

>  <Pocket>  (888) 
nan

>  <ATP_Site>  (888) 
nan

>  <Peripheral>  (888) 
nan

>  <Num_H_Atoms_ProtBoundConf>  (888) 
nan

>  <Num_Resolved_Atoms>  (888) 
nan

>  <Num_Not_Resolved_Atoms>  (888) 
nan

$$$$
CHEMBL4439132
     RDKit          3D

  0  0  0  0  0  0  0  0  0  0999 V3000
M  V30 BEGIN CTAB
M  V30 COUNTS 39 42 0 0 0
M  V30 BEGIN ATOM
M  V30 1 O 0.441384 -4.082138 3.720189 0
M  V30 2 C 0.631635 -3.018331 4.396041 0
M  V30 3 O -0.409439 -3.775877 4.910956 0
M  V30 4 C 1.715413 -2.112240 3.957745 0 CFG=1
M  V30 5 C 2.456923 -2.604414 2.732542 0
M  V30 6 C 1.790932 -1.560170 1.870010 0 CFG=1
M  V30 7 N 0.795280 -2.144397 0.992335 0
M  V30 8 C 0.126268 -1.225877 0.150776 0
M  V30 9 N 0.434734 0.081571 0.206329 0
M  V30 10 C -0.180399 1.011655 -0.583893 0
M  V30 11 C 0.221773 2.406300 -0.451944 0
M  V30 12 C -0.386867 3.360701 -1.240422 0
M  V30 13 C -0.035971 4.693337 -1.147559 0
M  V30 14 N 0.926246 5.054820 -0.260334 0
M  V30 15 C 1.495955 4.086176 0.492174 0
M  V30 16 C 1.202397 2.740282 0.458866 0
M  V30 17 N -1.134301 0.650409 -1.462897 0
M  V30 18 C -1.507303 -0.654391 -1.583122 0
M  V30 19 C -2.484712 -1.073759 -2.474347 0
M  V30 20 N -2.822097 -2.376772 -2.559515 0
M  V30 21 C -2.201841 -3.286621 -1.768078 0
M  V30 22 C -1.232386 -2.857289 -0.886676 0
M  V30 23 C -0.855102 -1.542375 -0.764130 0
M  V30 24 C 1.268939 -0.918531 3.128249 0
M  V30 25 H -1.160687 -3.340900 5.463404 0
M  V30 26 H 2.390948 -1.815265 4.808208 0
M  V30 27 H 2.198821 -3.652271 2.467119 0
M  V30 28 H 3.564634 -2.468760 2.880746 0
M  V30 29 H 2.580078 -0.972105 1.341937 0
M  V30 30 H 0.633182 -3.171445 1.028444 0
M  V30 31 H -1.150571 3.037318 -1.937600 0
M  V30 32 H -0.544515 5.412704 -1.791367 0
M  V30 33 H 2.258005 4.443520 1.181175 0
M  V30 34 H 1.703899 2.041960 1.091638 0
M  V30 35 H -2.908322 -0.256490 -3.052479 0
M  V30 36 H -2.502922 -4.330098 -1.866999 0
M  V30 37 H -0.791207 -3.624888 -0.300616 0
M  V30 38 H 0.181740 -0.789186 3.210693 0
M  V30 39 H 1.876419 -0.006968 3.388518 0
M  V30 END ATOM
M  V30 BEGIN BOND
M  V30 1 2 1 2
M  V30 2 1 2 3
M  V30 3 1 2 4
M  V30 4 1 4 5
M  V30 5 1 5 6
M  V30 6 1 6 7
M  V30 7 1 7 8
M  V30 8 2 8 9
M  V30 9 1 9 10
M  V30 10 1 10 11
M  V30 11 2 11 12
M  V30 12 1 12 13
M  V30 13 2 13 14
M  V30 14 1 14 15
M  V30 15 2 15 16
M  V30 16 2 10 17
M  V30 17 1 17 18
M  V30 18 2 18 19
M  V30 19 1 19 20
M  V30 20 2 20 21
M  V30 21 1 21 22
M  V30 22 2 22 23
M  V30 23 1 6 24
M  V30 24 1 24 4
M  V30 25 1 23 8
M  V30 26 1 16 11
M  V30 27 1 23 18
M  V30 28 1 3 25
M  V30 29 1 4 26 CFG=1
M  V30 30 1 5 27
M  V30 31 1 5 28
M  V30 32 1 6 29 CFG=3
M  V30 33 1 7 30
M  V30 34 1 12 31
M  V30 35 1 13 32
M  V30 36 1 15 33
M  V30 37 1 16 34
M  V30 38 1 19 35
M  V30 39 1 21 36
M  V30 40 1 22 37
M  V30 41 1 24 38
M  V30 42 1 24 39
M  V30 END BOND
M  V30 END CTAB
M  END
>  <Dataset>  (889) 
ChEMBL_Kinases

>  <Ligand_Instance>  (889) 
nan

>  <PDB_ID>  (889) 
nan

>  <Standardized_SMILES>  (889) 
O=C(O)[C@H]1C[C@@H](Nc2nc(-c3ccncc3)nc3cnccc23)C1

>  <Name>  (889) 
nan

>  <Pocket>  (889) 
nan

>  <ATP_Site>  (889) 
nan

>  <Peripheral>  (889) 
nan

>  <Num_H_Atoms_ProtBoundConf>  (889) 
nan

>  <Num_Resolved_Atoms>  (889) 
nan

>  <Num_Not_Resolved_Atoms>  (889) 
nan

$$$$
CHEMBL4439128
     RDKit          3D

  0  0  0  0  0  0  0  0  0  0999 V3000
M  V30 BEGIN CTAB
M  V30 COUNTS 44 47 0 0 0
M  V30 BEGIN ATOM
M  V30 1 C -0.022830 -4.881533 2.880110 0
M  V30 2 O 0.123406 -4.904758 1.472273 0
M  V30 3 C 0.689960 -3.866457 0.770334 0
M  V30 4 C 1.079479 -2.843531 1.588028 0
M  V30 5 C 1.643855 -1.789015 0.887671 0
M  V30 6 C 1.833418 -1.687537 -0.484491 0
M  V30 7 C 2.349852 -0.426264 -1.012090 0
M  V30 8 C 3.164840 0.083897 -1.961943 0
M  V30 9 N 3.289899 1.369031 -2.223101 0
M  V30 10 C 2.652525 2.386756 -1.628903 0
M  V30 11 N 2.527398 3.709479 -1.631994 0
M  V30 12 C 1.644870 4.219095 -0.732124 0
M  V30 13 C 1.192171 3.115262 -0.124298 0
M  V30 14 C 0.190999 2.905363 0.916345 0
M  V30 15 C -0.606614 2.746139 1.734157 0
M  V30 16 C -1.516983 2.543423 2.653761 0
M  V30 17 C -1.787437 1.516820 3.628150 0
M  V30 18 C -2.936615 1.533991 4.549434 0
M  V30 19 C -4.010211 2.555475 4.670065 0
M  V30 20 N -3.639872 3.647465 3.551678 0
M  V30 21 C -2.711248 3.101215 3.206580 0
M  V30 22 C 1.770189 1.950046 -0.625532 0
M  V30 23 C 1.631987 0.602196 -0.337024 0
M  V30 24 C 1.413168 -2.770506 -1.210640 0
M  V30 25 C 0.837551 -3.862642 -0.592715 0
M  V30 26 O 0.365871 -4.986595 -1.218248 0
M  V30 27 C 0.450045 -5.051124 -2.642427 0
M  V30 28 H 0.991010 -4.780724 3.366161 0
M  V30 29 H -0.509564 -5.777731 3.242429 0
M  V30 30 H -0.592844 -3.973732 3.209489 0
M  V30 31 H 1.018994 -2.729516 2.670410 0
M  V30 32 H 2.002093 -0.933209 1.471499 0
M  V30 33 H 3.659285 -0.760139 -2.415146 0
M  V30 34 H 3.087951 4.294223 -2.285263 0
M  V30 35 H 1.306152 5.187958 -0.486475 0
M  V30 36 H -1.024282 0.699170 3.617435 0
M  V30 37 H -2.823687 0.582812 5.166198 0
M  V30 38 H -4.499288 2.016881 5.486084 0
M  V30 39 H -2.715485 4.066448 2.471842 0
M  V30 40 H 0.902425 0.393304 0.474961 0
M  V30 41 H 1.523294 -2.774920 -2.283433 0
M  V30 42 H -0.268822 -4.306925 -3.025584 0
M  V30 43 H 1.510409 -4.741242 -2.868927 0
M  V30 44 H 0.210571 -6.049169 -3.017148 0
M  V30 END ATOM
M  V30 BEGIN BOND
M  V30 1 1 1 2
M  V30 2 1 2 3
M  V30 3 2 3 4
M  V30 4 1 4 5
M  V30 5 2 5 6
M  V30 6 1 6 7
M  V30 7 2 7 8
M  V30 8 1 8 9
M  V30 9 2 9 10
M  V30 10 1 10 11
M  V30 11 1 11 12
M  V30 12 2 12 13
M  V30 13 1 13 14
M  V30 14 3 14 15
M  V30 15 1 15 16
M  V30 16 2 16 17
M  V30 17 1 17 18
M  V30 18 2 18 19
M  V30 19 1 19 20
M  V30 20 2 20 21
M  V30 21 1 13 22
M  V30 22 2 22 23
M  V30 23 1 6 24
M  V30 24 2 24 25
M  V30 25 1 25 26
M  V30 26 1 26 27
M  V30 27 1 25 3
M  V30 28 1 23 7
M  V30 29 1 22 10
M  V30 30 1 21 16
M  V30 31 1 1 28
M  V30 32 1 1 29
M  V30 33 1 1 30
M  V30 34 1 4 31
M  V30 35 1 5 32
M  V30 36 1 8 33
M  V30 37 1 11 34
M  V30 38 1 12 35
M  V30 39 1 17 36
M  V30 40 1 18 37
M  V30 41 1 19 38
M  V30 42 1 21 39
M  V30 43 1 23 40
M  V30 44 1 24 41
M  V30 45 1 27 42
M  V30 46 1 27 43
M  V30 47 1 27 44
M  V30 END BOND
M  V30 END CTAB
M  END
>  <Dataset>  (890) 
ChEMBL_Kinases

>  <Ligand_Instance>  (890) 
nan

>  <PDB_ID>  (890) 
nan

>  <Standardized_SMILES>  (890) 
COc1ccc(-c2cnc3[nH]cc(C#Cc4cccnc4)c3c2)cc1OC

>  <Name>  (890) 
nan

>  <Pocket>  (890) 
nan

>  <ATP_Site>  (890) 
nan

>  <Peripheral>  (890) 
nan

>  <Num_H_Atoms_ProtBoundConf>  (890) 
nan

>  <Num_Resolved_Atoms>  (890) 
nan

>  <Num_Not_Resolved_Atoms>  (890) 
nan

$$$$
CHEMBL4439395
     RDKit          3D

  0  0  0  0  0  0  0  0  0  0999 V3000
M  V30 BEGIN CTAB
M  V30 COUNTS 46 49 0 0 0
M  V30 BEGIN ATOM
M  V30 1 O 0.740695 -1.389148 1.207855 0
M  V30 2 C 0.244481 -2.062652 2.145364 0
M  V30 3 C 1.698629 -1.983828 2.509979 0
M  V30 4 C 2.452609 -1.208357 1.491713 0
M  V30 5 C 2.563993 0.166553 1.683134 0
M  V30 6 C 3.255009 0.963334 0.775061 0
M  V30 7 C 3.807469 0.317724 -0.298548 0
M  V30 8 C 4.537415 1.126992 -1.266134 0
M  V30 9 C 4.538600 0.726974 -2.587186 0
M  V30 10 C 5.186691 1.396917 -3.605426 0
M  V30 11 C 5.892110 2.556658 -3.298291 0
M  V30 12 C 5.882793 2.944104 -1.978227 0
M  V30 13 C 5.242505 2.289044 -0.949808 0
M  V30 14 C 3.716219 -1.039422 -0.517965 0
M  V30 15 C 3.020978 -1.825164 0.399977 0
M  V30 16 N -0.675609 -2.754229 2.968507 0
M  V30 17 C -2.003260 -2.682450 2.399360 0
M  V30 18 C -3.031255 -1.774194 2.561467 0
M  V30 19 C -4.053700 -2.255583 1.742857 0
M  V30 20 C -5.350301 -1.524192 1.653876 0
M  V30 21 C -5.179556 -0.044760 1.374677 0
M  V30 22 C -6.334023 0.183302 2.329615 0
M  V30 23 C -5.989710 -1.156279 2.952580 0
M  V30 24 N -3.653051 -3.386985 1.129656 0
M  V30 25 N -2.428151 -3.632192 1.528798 0
M  V30 26 H 2.093348 -3.025240 2.496354 0
M  V30 27 H 1.803124 -1.527589 3.520291 0
M  V30 28 H 2.102002 0.613095 2.555844 0
M  V30 29 H 3.348071 2.034328 0.913892 0
M  V30 30 H 3.989022 -0.184586 -2.853192 0
M  V30 31 H 5.152196 1.030327 -4.639656 0
M  V30 32 H 6.421004 3.127867 -4.048679 0
M  V30 33 H 6.440493 3.858589 -1.742392 0
M  V30 34 H 5.244470 2.601178 0.066417 0
M  V30 35 H 4.147137 -1.566593 -1.361448 0
M  V30 36 H 2.882684 -2.898289 0.334052 0
M  V30 37 H -0.259486 -3.187174 3.820952 0
M  V30 38 H -2.927871 -0.928102 3.208571 0
M  V30 39 H -6.098238 -1.979801 0.978316 0
M  V30 40 H -5.377228 0.262009 0.330500 0
M  V30 41 H -4.227147 0.365368 1.800633 0
M  V30 42 H -7.274010 0.120022 1.757077 0
M  V30 43 H -6.230142 1.069689 2.984367 0
M  V30 44 H -5.234289 -1.117923 3.765092 0
M  V30 45 H -6.894042 -1.775639 3.174242 0
M  V30 46 H -4.294383 -3.890173 0.473780 0
M  V30 END ATOM
M  V30 BEGIN BOND
M  V30 1 2 1 2
M  V30 2 1 2 3
M  V30 3 1 3 4
M  V30 4 2 4 5
M  V30 5 1 5 6
M  V30 6 2 6 7
M  V30 7 1 7 8
M  V30 8 2 8 9
M  V30 9 1 9 10
M  V30 10 2 10 11
M  V30 11 1 11 12
M  V30 12 2 12 13
M  V30 13 1 7 14
M  V30 14 2 14 15
M  V30 15 1 2 16
M  V30 16 1 16 17
M  V30 17 1 17 18
M  V30 18 2 18 19
M  V30 19 1 19 20
M  V30 20 1 20 21
M  V30 21 1 21 22
M  V30 22 1 22 23
M  V30 23 1 19 24
M  V30 24 1 24 25
M  V30 25 1 15 4
M  V30 26 2 25 17
M  V30 27 1 13 8
M  V30 28 1 23 20
M  V30 29 1 3 26
M  V30 30 1 3 27
M  V30 31 1 5 28
M  V30 32 1 6 29
M  V30 33 1 9 30
M  V30 34 1 10 31
M  V30 35 1 11 32
M  V30 36 1 12 33
M  V30 37 1 13 34
M  V30 38 1 14 35
M  V30 39 1 15 36
M  V30 40 1 16 37
M  V30 41 1 18 38
M  V30 42 1 20 39
M  V30 43 1 21 40
M  V30 44 1 21 41
M  V30 45 1 22 42
M  V30 46 1 22 43
M  V30 47 1 23 44
M  V30 48 1 23 45
M  V30 49 1 24 46
M  V30 END BOND
M  V30 END CTAB
M  END
>  <Dataset>  (891) 
ChEMBL_Kinases

>  <Ligand_Instance>  (891) 
nan

>  <PDB_ID>  (891) 
nan

>  <Standardized_SMILES>  (891) 
O=C(Cc1ccc(-c2ccccc2)cc1)Nc1cc(C2CCC2)[nH]n1

>  <Name>  (891) 
nan

>  <Pocket>  (891) 
nan

>  <ATP_Site>  (891) 
nan

>  <Peripheral>  (891) 
nan

>  <Num_H_Atoms_ProtBoundConf>  (891) 
nan

>  <Num_Resolved_Atoms>  (891) 
nan

>  <Num_Not_Resolved_Atoms>  (891) 
nan

$$$$
CHEMBL4440790
     RDKit          3D

  0  0  0  0  0  0  0  0  0  0999 V3000
M  V30 BEGIN CTAB
M  V30 COUNTS 54 56 0 0 0
M  V30 BEGIN ATOM
M  V30 1 C 0.707296 -4.220988 3.261497 0
M  V30 2 O 1.221201 -4.670154 2.000925 0
M  V30 3 C 1.730423 -3.779967 1.073176 0
M  V30 4 C 2.213333 -4.255595 -0.124473 0
M  V30 5 C 2.719714 -3.373146 -1.047648 0
M  V30 6 C 2.734444 -2.026286 -0.756271 0
M  V30 7 C 3.192888 -0.982503 -1.530520 0
M  V30 8 C 3.769024 -0.953020 -2.782423 0
M  V30 9 C 4.131551 0.289252 -3.255650 0
M  V30 10 N 3.915536 1.374607 -2.502411 0
M  V30 11 C 3.353328 1.355980 -1.276835 0
M  V30 12 C 3.184305 2.585844 -0.478100 0
M  V30 13 C 2.974933 0.136621 -0.767958 0
M  V30 14 N 2.413028 -0.121302 0.422023 0
M  V30 15 C 1.913152 0.587216 1.523052 0
M  V30 16 C 0.416813 0.791999 1.576489 0
M  V30 17 C -0.236595 1.532961 0.494096 0
M  V30 18 N -1.709280 1.595633 0.685976 0
M  V30 19 C -2.551060 0.460917 0.743939 0
M  V30 20 O -2.088078 -0.701240 0.631016 0
M  V30 21 O -3.902737 0.561627 0.924251 0
M  V30 22 C -4.792434 -0.510362 0.991295 0
M  V30 23 C -4.419557 -1.413216 2.146341 0
M  V30 24 C -4.800551 -1.361771 -0.254408 0
M  V30 25 C -6.193256 0.020894 1.244056 0
M  V30 26 C 2.277689 -1.489073 0.397458 0
M  V30 27 C 1.775360 -2.439785 1.295152 0
M  V30 28 H 1.525926 -3.895710 3.917351 0
M  V30 29 H 0.188238 -5.053100 3.769804 0
M  V30 30 H 0.001759 -3.360636 3.069390 0
M  V30 31 H 2.184673 -5.315776 -0.315555 0
M  V30 32 H 3.093496 -3.752236 -1.977290 0
M  V30 33 H 3.917941 -1.866504 -3.342758 0
M  V30 34 H 4.589026 0.351427 -4.241436 0
M  V30 35 H 2.183072 2.953885 -0.346985 0
M  V30 36 H 3.645836 3.394807 -1.133723 0
M  V30 37 H 3.880227 2.635222 0.385574 0
M  V30 38 H 2.368567 1.538297 1.787144 0
M  V30 39 H 2.104353 -0.022567 2.463325 0
M  V30 40 H 0.188038 1.301560 2.553360 0
M  V30 41 H -0.103022 -0.207365 1.693160 0
M  V30 42 H -0.079871 1.129979 -0.494001 0
M  V30 43 H 0.111305 2.612416 0.485273 0
M  V30 44 H -2.212676 2.525144 0.791688 0
M  V30 45 H -5.320889 -1.855315 2.630725 0
M  V30 46 H -3.798630 -0.838676 2.839013 0
M  V30 47 H -3.781266 -2.233089 1.760638 0
M  V30 48 H -5.830178 -1.759307 -0.373924 0
M  V30 49 H -4.136958 -2.248929 -0.120942 0
M  V30 50 H -4.563764 -0.782142 -1.166425 0
M  V30 51 H -6.785000 -0.843968 1.617310 0
M  V30 52 H -6.672858 0.329119 0.293887 0
M  V30 53 H -6.142073 0.850646 1.979217 0
M  V30 54 H 1.385213 -2.105777 2.250837 0
M  V30 END ATOM
M  V30 BEGIN BOND
M  V30 1 1 1 2
M  V30 2 1 2 3
M  V30 3 2 3 4
M  V30 4 1 4 5
M  V30 5 2 5 6
M  V30 6 1 6 7
M  V30 7 2 7 8
M  V30 8 1 8 9
M  V30 9 2 9 10
M  V30 10 1 10 11
M  V30 11 1 11 12
M  V30 12 2 11 13
M  V30 13 1 13 14
M  V30 14 1 14 15
M  V30 15 1 15 16
M  V30 16 1 16 17
M  V30 17 1 17 18
M  V30 18 1 18 19
M  V30 19 2 19 20
M  V30 20 1 19 21
M  V30 21 1 21 22
M  V30 22 1 22 23
M  V30 23 1 22 24
M  V30 24 1 22 25
M  V30 25 1 14 26
M  V30 26 2 26 27
M  V30 27 1 27 3
M  V30 28 1 26 6
M  V30 29 1 13 7
M  V30 30 1 1 28
M  V30 31 1 1 29
M  V30 32 1 1 30
M  V30 33 1 4 31
M  V30 34 1 5 32
M  V30 35 1 8 33
M  V30 36 1 9 34
M  V30 37 1 12 35
M  V30 38 1 12 36
M  V30 39 1 12 37
M  V30 40 1 15 38
M  V30 41 1 15 39
M  V30 42 1 16 40
M  V30 43 1 16 41
M  V30 44 1 17 42
M  V30 45 1 17 43
M  V30 46 1 18 44
M  V30 47 1 23 45
M  V30 48 1 23 46
M  V30 49 1 23 47
M  V30 50 1 24 48
M  V30 51 1 24 49
M  V30 52 1 24 50
M  V30 53 1 25 51
M  V30 54 1 25 52
M  V30 55 1 25 53
M  V30 56 1 27 54
M  V30 END BOND
M  V30 END CTAB
M  END
>  <Dataset>  (892) 
ChEMBL_Kinases

>  <Ligand_Instance>  (892) 
nan

>  <PDB_ID>  (892) 
nan

>  <Standardized_SMILES>  (892) 
COc1ccc2c3ccnc(C)c3n(CCCNC(=O)OC(C)(C)C)c2c1

>  <Name>  (892) 
nan

>  <Pocket>  (892) 
nan

>  <ATP_Site>  (892) 
nan

>  <Peripheral>  (892) 
nan

>  <Num_H_Atoms_ProtBoundConf>  (892) 
nan

>  <Num_Resolved_Atoms>  (892) 
nan

>  <Num_Not_Resolved_Atoms>  (892) 
nan

$$$$
CHEMBL4440668
     RDKit          3D

  0  0  0  0  0  0  0  0  0  0999 V3000
M  V30 BEGIN CTAB
M  V30 COUNTS 51 54 0 0 0
M  V30 BEGIN ATOM
M  V30 1 C 6.086042 -1.584103 5.503810 0
M  V30 2 C 5.585212 -1.510029 4.104958 0
M  V30 3 C 6.337107 -1.923356 3.002067 0
M  V30 4 C 5.789952 -1.817429 1.737897 0
M  V30 5 C 4.538642 -1.318121 1.573259 0
M  V30 6 C 3.971724 -1.212088 0.223106 0
M  V30 7 C 2.733304 -0.738160 -0.157415 0
M  V30 8 C 2.611739 -0.817240 -1.529283 0
M  V30 9 C 1.457510 -0.417716 -2.331082 0
M  V30 10 C 1.503723 -0.566595 -3.702320 0
M  V30 11 C 0.376016 -0.168650 -4.406909 0
M  V30 12 C -0.754557 0.354403 -3.802443 0
M  V30 13 C -0.779856 0.495967 -2.417188 0
M  V30 14 N -1.847710 1.010721 -1.627002 0
M  V30 15 C -2.886534 0.243980 -1.080119 0
M  V30 16 O -2.855527 -0.975508 -1.313859 0
M  V30 17 N -3.849965 0.965086 -0.322287 0
M  V30 18 C -4.976018 0.364602 0.310871 0
M  V30 19 C -6.242251 0.156002 -0.194201 0
M  V30 20 C -7.196893 -0.451733 0.599417 0
M  V30 21 C -6.902334 -0.852974 1.889465 0
M  V30 22 Cl -8.159412 -1.621354 2.851204 0
M  V30 23 C -5.623903 -0.648326 2.414954 0
M  V30 24 C -5.380191 -1.098705 3.790697 0
M  V30 25 F -6.224768 -0.464737 4.710683 0
M  V30 26 F -5.453713 -2.455298 3.969620 0
M  V30 27 F -4.094017 -0.726643 4.186234 0
M  V30 28 C -4.672939 -0.033480 1.599773 0
M  V30 29 C 0.348157 0.099617 -1.694578 0
M  V30 30 N 3.773131 -1.336350 -1.965629 0
M  V30 31 N 4.574863 -1.569170 -0.933042 0
M  V30 32 C 3.743559 -0.892259 2.620827 0
M  V30 33 C 4.321178 -1.012278 3.868480 0
M  V30 34 H 5.940954 -0.622841 6.027324 0
M  V30 35 H 5.487936 -2.348831 6.031398 0
M  V30 36 H 7.166403 -1.806202 5.531022 0
M  V30 37 H 7.333750 -2.315117 3.195882 0
M  V30 38 H 6.418707 -2.152744 0.925500 0
M  V30 39 H 2.011606 -0.375406 0.540685 0
M  V30 40 H 2.355173 -0.968098 -4.237763 0
M  V30 41 H 0.304216 -0.242487 -5.498963 0
M  V30 42 H -1.639102 0.672429 -4.293294 0
M  V30 43 H -1.751973 2.043977 -1.508942 0
M  V30 44 H -3.790379 1.996734 -0.180833 0
M  V30 45 H -6.363098 0.507369 -1.210331 0
M  V30 46 H -8.163462 -0.578606 0.129530 0
M  V30 47 H -3.711140 0.074249 2.115653 0
M  V30 48 H 0.385297 0.186829 -0.611962 0
M  V30 49 H 3.929303 -1.496783 -2.987144 0
M  V30 50 H 2.749409 -0.490335 2.546128 0
M  V30 51 H 3.732831 -0.688919 4.730808 0
M  V30 END ATOM
M  V30 BEGIN BOND
M  V30 1 1 1 2
M  V30 2 2 2 3
M  V30 3 1 3 4
M  V30 4 2 4 5
M  V30 5 1 5 6
M  V30 6 1 6 7
M  V30 7 2 7 8
M  V30 8 1 8 9
M  V30 9 2 9 10
M  V30 10 1 10 11
M  V30 11 2 11 12
M  V30 12 1 12 13
M  V30 13 1 13 14
M  V30 14 1 14 15
M  V30 15 2 15 16
M  V30 16 1 15 17
M  V30 17 1 17 18
M  V30 18 2 18 19
M  V30 19 1 19 20
M  V30 20 2 20 21
M  V30 21 1 21 22
M  V30 22 1 21 23
M  V30 23 1 23 24
M  V30 24 1 24 25
M  V30 25 1 24 26
M  V30 26 1 24 27
M  V30 27 2 23 28
M  V30 28 2 13 29
M  V30 29 1 8 30
M  V30 30 1 30 31
M  V30 31 1 5 32
M  V30 32 2 32 33
M  V30 33 1 33 2
M  V30 34 2 31 6
M  V30 35 1 29 9
M  V30 36 1 28 18
M  V30 37 1 1 34
M  V30 38 1 1 35
M  V30 39 1 1 36
M  V30 40 1 3 37
M  V30 41 1 4 38
M  V30 42 1 7 39
M  V30 43 1 10 40
M  V30 44 1 11 41
M  V30 45 1 12 42
M  V30 46 1 14 43
M  V30 47 1 17 44
M  V30 48 1 19 45
M  V30 49 1 20 46
M  V30 50 1 28 47
M  V30 51 1 29 48
M  V30 52 1 30 49
M  V30 53 1 32 50
M  V30 54 1 33 51
M  V30 END BOND
M  V30 END CTAB
M  END
>  <Dataset>  (893) 
ChEMBL_Kinases

>  <Ligand_Instance>  (893) 
nan

>  <PDB_ID>  (893) 
nan

>  <Standardized_SMILES>  (893) 
Cc1ccc(-c2cc(-c3cccc(NC(=O)Nc4ccc(Cl)c(C(F)(F)F)c4)c3)[nH]n2)cc1

>  <Name>  (893) 
nan

>  <Pocket>  (893) 
nan

>  <ATP_Site>  (893) 
nan

>  <Peripheral>  (893) 
nan

>  <Num_H_Atoms_ProtBoundConf>  (893) 
nan

>  <Num_Resolved_Atoms>  (893) 
nan

>  <Num_Not_Resolved_Atoms>  (893) 
nan

$$$$
CHEMBL4440637
     RDKit          3D

  0  0  0  0  0  0  0  0  0  0999 V3000
M  V30 BEGIN CTAB
M  V30 COUNTS 38 40 0 0 0
M  V30 BEGIN ATOM
M  V30 1 C -2.230203 -0.234109 3.650124 0
M  V30 2 C -1.216735 0.741633 3.082574 0
M  V30 3 C -1.763060 1.451746 1.860693 0
M  V30 4 N -2.095695 0.524208 0.807117 0
M  V30 5 C -1.101899 -0.256533 0.174161 0
M  V30 6 N 0.185316 -0.129968 0.531846 0
M  V30 7 C 1.185018 -0.819842 -0.025265 0
M  V30 8 C 2.604986 -0.753200 0.274351 0
M  V30 9 C 3.504688 -1.574586 -0.390190 0
M  V30 10 C 4.860770 -1.577996 -0.176348 0
M  V30 11 N 5.365947 -0.730687 0.738712 0
M  V30 12 C 4.566324 0.107421 1.435636 0
M  V30 13 C 3.188439 0.088039 1.195785 0
M  V30 14 C 2.366467 1.014599 1.972815 0
M  V30 15 N 0.819278 -1.674656 -0.993465 0
M  V30 16 C -0.429939 -1.879256 -1.426915 0
M  V30 17 C -0.661290 -2.792738 -2.433857 0
M  V30 18 N -1.935253 -2.960106 -2.832151 0
M  V30 19 C -2.961590 -2.260411 -2.269806 0
M  V30 20 C -2.713092 -1.351207 -1.264394 0
M  V30 21 C -1.426333 -1.145798 -0.823641 0
M  V30 22 H -1.762776 -1.186582 3.975205 0
M  V30 23 H -2.981923 -0.461970 2.871209 0
M  V30 24 H -2.752602 0.171482 4.531626 0
M  V30 25 H -0.994522 1.487116 3.869471 0
M  V30 26 H -0.328151 0.152677 2.828898 0
M  V30 27 H -0.929326 2.143570 1.538936 0
M  V30 28 H -2.594935 2.101260 2.132929 0
M  V30 29 H -3.100815 0.490563 0.571062 0
M  V30 30 H 3.131263 -2.277629 -1.142114 0
M  V30 31 H 5.495242 -2.250381 -0.736677 0
M  V30 32 H 4.976964 0.787986 2.171394 0
M  V30 33 H 3.016183 1.842326 2.398922 0
M  V30 34 H 1.557625 1.519982 1.446634 0
M  V30 35 H 2.016618 0.484752 2.907587 0
M  V30 36 H 0.127481 -3.365234 -2.902818 0
M  V30 37 H -3.977347 -2.439931 -2.636133 0
M  V30 38 H -3.536403 -0.807670 -0.831733 0
M  V30 END ATOM
M  V30 BEGIN BOND
M  V30 1 1 1 2
M  V30 2 1 2 3
M  V30 3 1 3 4
M  V30 4 1 4 5
M  V30 5 2 5 6
M  V30 6 1 6 7
M  V30 7 1 7 8
M  V30 8 2 8 9
M  V30 9 1 9 10
M  V30 10 2 10 11
M  V30 11 1 11 12
M  V30 12 2 12 13
M  V30 13 1 13 14
M  V30 14 2 7 15
M  V30 15 1 15 16
M  V30 16 2 16 17
M  V30 17 1 17 18
M  V30 18 2 18 19
M  V30 19 1 19 20
M  V30 20 2 20 21
M  V30 21 1 21 5
M  V30 22 1 13 8
M  V30 23 1 21 16
M  V30 24 1 1 22
M  V30 25 1 1 23
M  V30 26 1 1 24
M  V30 27 1 2 25
M  V30 28 1 2 26
M  V30 29 1 3 27
M  V30 30 1 3 28
M  V30 31 1 4 29
M  V30 32 1 9 30
M  V30 33 1 10 31
M  V30 34 1 12 32
M  V30 35 1 14 33
M  V30 36 1 14 34
M  V30 37 1 14 35
M  V30 38 1 17 36
M  V30 39 1 19 37
M  V30 40 1 20 38
M  V30 END BOND
M  V30 END CTAB
M  END
>  <Dataset>  (894) 
ChEMBL_Kinases

>  <Ligand_Instance>  (894) 
nan

>  <PDB_ID>  (894) 
nan

>  <Standardized_SMILES>  (894) 
CCCNc1nc(-c2ccncc2C)nc2cnccc12

>  <Name>  (894) 
nan

>  <Pocket>  (894) 
nan

>  <ATP_Site>  (894) 
nan

>  <Peripheral>  (894) 
nan

>  <Num_H_Atoms_ProtBoundConf>  (894) 
nan

>  <Num_Resolved_Atoms>  (894) 
nan

>  <Num_Not_Resolved_Atoms>  (894) 
nan

$$$$
CHEMBL4440586
     RDKit          3D

  0  0  0  0  0  0  0  0  0  0999 V3000
M  V30 BEGIN CTAB
M  V30 COUNTS 40 42 0 0 0
M  V30 BEGIN ATOM
M  V30 1 C 1.868418 -4.961413 -0.958904 0
M  V30 2 C 2.192875 -4.151295 -0.126524 0
M  V30 3 C 2.561136 -3.167546 0.864534 0
M  V30 4 C 3.248704 -3.494735 2.014034 0
M  V30 5 C 3.582989 -2.518824 2.940516 0
M  V30 6 C 3.234548 -1.186193 2.735905 0
M  V30 7 C 2.541465 -0.833575 1.584569 0
M  V30 8 N 2.143083 0.513485 1.293438 0
M  V30 9 C 1.427703 0.826135 0.088499 0
M  V30 10 C 2.005761 1.173099 -1.115856 0
M  V30 11 C 3.440227 1.216193 -1.133485 0
M  V30 12 N 4.598053 1.248759 -1.158022 0
M  V30 13 C 1.212198 1.454056 -2.213265 0
M  V30 14 N -0.148120 1.391788 -2.118805 0
M  V30 15 C -0.713126 1.049830 -0.931378 0
M  V30 16 C -2.088933 0.993758 -0.860932 0
M  V30 17 C -2.740150 0.655806 0.303597 0
M  V30 18 O -4.111805 0.566339 0.495721 0
M  V30 19 C -5.033586 0.828640 -0.546452 0
M  V30 20 C -1.984805 0.367241 1.424947 0
M  V30 21 O -2.538313 0.020714 2.630094 0
M  V30 22 C -1.716206 -0.259787 3.728617 0
M  V30 23 C -0.597669 0.427149 1.341664 0
M  V30 24 C 0.035193 0.763337 0.181761 0
M  V30 25 C 2.229724 -1.837713 0.690112 0
M  V30 26 H 1.572836 -5.663878 -1.700479 0
M  V30 27 H 3.521171 -4.545873 2.171098 0
M  V30 28 H 4.116947 -2.797993 3.825065 0
M  V30 29 H 3.482082 -0.418834 3.436432 0
M  V30 30 H 2.383782 1.267424 1.977100 0
M  V30 31 H 1.727894 1.722992 -3.140233 0
M  V30 32 H -2.703283 1.208708 -1.701220 0
M  V30 33 H -4.592102 0.460606 -1.517650 0
M  V30 34 H -5.127581 1.928221 -0.605696 0
M  V30 35 H -5.995647 0.300322 -0.391243 0
M  V30 36 H -2.358143 -0.658283 4.541166 0
M  V30 37 H -0.940594 -1.041352 3.517681 0
M  V30 38 H -1.236242 0.665374 4.138676 0
M  V30 39 H 0.012023 0.205325 2.206509 0
M  V30 40 H 1.690972 -1.566452 -0.205762 0
M  V30 END ATOM
M  V30 BEGIN BOND
M  V30 1 3 1 2
M  V30 2 1 2 3
M  V30 3 2 3 4
M  V30 4 1 4 5
M  V30 5 2 5 6
M  V30 6 1 6 7
M  V30 7 1 7 8
M  V30 8 1 8 9
M  V30 9 2 9 10
M  V30 10 1 10 11
M  V30 11 3 11 12
M  V30 12 1 10 13
M  V30 13 2 13 14
M  V30 14 1 14 15
M  V30 15 2 15 16
M  V30 16 1 16 17
M  V30 17 1 17 18
M  V30 18 1 18 19
M  V30 19 2 17 20
M  V30 20 1 20 21
M  V30 21 1 21 22
M  V30 22 1 20 23
M  V30 23 2 23 24
M  V30 24 2 7 25
M  V30 25 1 25 3
M  V30 26 1 24 9
M  V30 27 1 24 15
M  V30 28 1 1 26
M  V30 29 1 4 27
M  V30 30 1 5 28
M  V30 31 1 6 29
M  V30 32 1 8 30
M  V30 33 1 13 31
M  V30 34 1 16 32
M  V30 35 1 19 33
M  V30 36 1 19 34
M  V30 37 1 19 35
M  V30 38 1 22 36
M  V30 39 1 22 37
M  V30 40 1 22 38
M  V30 41 1 23 39
M  V30 42 1 25 40
M  V30 END BOND
M  V30 END CTAB
M  END
>  <Dataset>  (895) 
ChEMBL_Kinases

>  <Ligand_Instance>  (895) 
nan

>  <PDB_ID>  (895) 
nan

>  <Standardized_SMILES>  (895) 
C#Cc1cccc(Nc2c(C#N)cnc3cc(OC)c(OC)cc23)c1

>  <Name>  (895) 
nan

>  <Pocket>  (895) 
nan

>  <ATP_Site>  (895) 
nan

>  <Peripheral>  (895) 
nan

>  <Num_H_Atoms_ProtBoundConf>  (895) 
nan

>  <Num_Resolved_Atoms>  (895) 
nan

>  <Num_Not_Resolved_Atoms>  (895) 
nan

$$$$
CHEMBL4440480
     RDKit          3D

  0  0  0  0  0  0  0  0  0  0999 V3000
M  V30 BEGIN CTAB
M  V30 COUNTS 39 41 0 0 0
M  V30 BEGIN ATOM
M  V30 1 O 0.931854 -4.207099 1.951208 0
M  V30 2 C 1.807736 -3.370119 2.577124 0
M  V30 3 C 2.195340 -2.141243 1.732143 0
M  V30 4 C 2.818415 -2.660982 0.446207 0
M  V30 5 C 4.039443 -3.477975 0.645671 0
M  V30 6 F 3.912743 -4.623136 1.369657 0
M  V30 7 F 4.601344 -3.844442 -0.591635 0
M  V30 8 F 5.048042 -2.739224 1.292076 0
M  V30 9 N 1.043475 -1.354505 1.496197 0
M  V30 10 C -0.007756 -0.446006 1.150938 0
M  V30 11 N 0.037588 0.635317 0.359759 0
M  V30 12 C -0.944366 1.455253 0.031434 0
M  V30 13 C -0.704574 2.590887 -0.851001 0
M  V30 14 C -1.797011 3.385713 -1.132190 0
M  V30 15 C -1.544113 4.458274 -1.972744 0
M  V30 16 N -0.318481 4.683295 -2.462156 0
M  V30 17 C 0.714768 3.877669 -2.157382 0
M  V30 18 C 0.577894 2.769508 -1.322146 0
M  V30 19 N -2.098697 1.108151 0.590142 0
M  V30 20 C -2.301768 0.072124 1.391425 0
M  V30 21 C -3.597154 -0.068077 1.845466 0
M  V30 22 N -3.852536 -1.119165 2.679634 0
M  V30 23 C -2.865181 -1.967289 3.028638 0
M  V30 24 C -1.601515 -1.754468 2.530225 0
M  V30 25 C -1.236345 -0.745409 1.695982 0
M  V30 26 H 0.200317 -4.573206 2.483853 0
M  V30 27 H 2.674465 -3.915700 2.953392 0
M  V30 28 H 1.343141 -2.937683 3.529034 0
M  V30 29 H 3.026540 -1.620286 2.288838 0
M  V30 30 H 2.065324 -3.321105 -0.078604 0
M  V30 31 H 3.012333 -1.816207 -0.251170 0
M  V30 32 H 1.763370 -0.789277 0.955045 0
M  V30 33 H -2.773938 3.138208 -0.692994 0
M  V30 34 H -2.393145 5.110252 -2.215964 0
M  V30 35 H 1.697421 4.084277 -2.568649 0
M  V30 36 H 1.382684 2.098979 -1.053747 0
M  V30 37 H -4.388435 0.612426 1.565355 0
M  V30 38 H -3.046078 -2.799710 3.683773 0
M  V30 39 H -0.836179 -2.428823 2.823277 0
M  V30 END ATOM
M  V30 BEGIN BOND
M  V30 1 1 1 2
M  V30 2 1 2 3
M  V30 3 1 3 4
M  V30 4 1 4 5
M  V30 5 1 5 6
M  V30 6 1 5 7
M  V30 7 1 5 8
M  V30 8 1 3 9
M  V30 9 1 9 10
M  V30 10 2 10 11
M  V30 11 1 11 12
M  V30 12 1 12 13
M  V30 13 2 13 14
M  V30 14 1 14 15
M  V30 15 2 15 16
M  V30 16 1 16 17
M  V30 17 2 17 18
M  V30 18 2 12 19
M  V30 19 1 19 20
M  V30 20 2 20 21
M  V30 21 1 21 22
M  V30 22 2 22 23
M  V30 23 1 23 24
M  V30 24 2 24 25
M  V30 25 1 25 10
M  V30 26 1 18 13
M  V30 27 1 25 20
M  V30 28 1 1 26
M  V30 29 1 2 27
M  V30 30 1 2 28
M  V30 31 1 3 29
M  V30 32 1 4 30
M  V30 33 1 4 31
M  V30 34 1 9 32
M  V30 35 1 14 33
M  V30 36 1 15 34
M  V30 37 1 17 35
M  V30 38 1 18 36
M  V30 39 1 21 37
M  V30 40 1 23 38
M  V30 41 1 24 39
M  V30 END BOND
M  V30 END CTAB
M  END
>  <Dataset>  (896) 
ChEMBL_Kinases

>  <Ligand_Instance>  (896) 
nan

>  <PDB_ID>  (896) 
nan

>  <Standardized_SMILES>  (896) 
OCC(CC(F)(F)F)Nc1nc(-c2ccncc2)nc2cnccc12

>  <Name>  (896) 
nan

>  <Pocket>  (896) 
nan

>  <ATP_Site>  (896) 
nan

>  <Peripheral>  (896) 
nan

>  <Num_H_Atoms_ProtBoundConf>  (896) 
nan

>  <Num_Resolved_Atoms>  (896) 
nan

>  <Num_Not_Resolved_Atoms>  (896) 
nan

$$$$
CHEMBL4440471
     RDKit          3D

  0  0  0  0  0  0  0  0  0  0999 V3000
M  V30 BEGIN CTAB
M  V30 COUNTS 54 58 0 0 0
M  V30 BEGIN ATOM
M  V30 1 C -0.346264 -3.422017 6.277261 0
M  V30 2 O -0.530771 -3.879027 4.951670 0
M  V30 3 C 0.169805 -3.340686 3.886273 0
M  V30 4 C 1.062936 -2.335847 4.152584 0
M  V30 5 N 1.762838 -1.781532 3.164987 0
M  V30 6 C 1.609296 -2.196770 1.872430 0
M  V30 7 N 2.340663 -1.631378 0.808416 0
M  V30 8 C 2.651333 -1.491666 -0.546453 0
M  V30 9 C 1.489741 -0.824543 -1.315640 0
M  V30 10 C 2.169659 0.452881 -1.006417 0
M  V30 11 C 3.459234 -0.263087 -0.993887 0
M  V30 12 C 1.737265 1.271641 0.121285 0
M  V30 13 C 1.014334 2.139361 -0.891339 0
M  V30 14 O -0.276839 1.638739 -1.094329 0
M  V30 15 C -1.421074 2.417469 -1.078488 0
M  V30 16 N -1.352522 3.762326 -0.854969 0
M  V30 17 C -2.479064 4.497519 -0.844410 0
M  V30 18 C -3.740711 3.984464 -1.048177 0
M  V30 19 C -3.845071 2.613071 -1.279430 0
M  V30 20 C -2.677120 1.896776 -1.282973 0
M  V30 21 C -2.832637 0.470892 -1.528868 0
M  V30 22 N -4.057422 -0.192523 -1.751961 0
M  V30 23 O -2.046542 -0.497401 -1.611731 0
M  V30 24 C 1.968527 1.588398 -1.931271 0
M  V30 25 C 0.705878 -3.210052 1.630981 0
M  V30 26 C 0.458528 -3.745608 0.384158 0
M  V30 27 C -0.426221 -4.765196 0.110079 0
M  V30 28 Cl -0.695984 -5.398275 -1.485584 0
M  V30 29 C -1.136106 -5.313860 1.154663 0
M  V30 30 C -0.953897 -4.843585 2.438207 0
M  V30 31 C -0.046807 -3.821065 2.614237 0
M  V30 32 H -0.336582 -2.296085 6.271184 0
M  V30 33 H 0.646702 -3.750746 6.611910 0
M  V30 34 H -1.171385 -3.709408 6.943033 0
M  V30 35 H 1.291104 -1.906273 5.109026 0
M  V30 36 H 3.049819 -0.951257 1.217533 0
M  V30 37 H 3.047117 -2.374429 -1.093816 0
M  V30 38 H 1.424163 -1.117179 -2.372083 0
M  V30 39 H 0.527147 -0.934827 -0.762019 0
M  V30 40 H 3.908818 -0.379203 -1.975832 0
M  V30 41 H 4.106094 0.067447 -0.176557 0
M  V30 42 H 1.071567 0.813336 0.881791 0
M  V30 43 H 2.586797 1.857311 0.549643 0
M  V30 44 H 1.098063 3.225839 -0.713812 0
M  V30 45 H -2.392082 5.567341 -0.663499 0
M  V30 46 H -4.617269 4.610290 -1.031267 0
M  V30 47 H -4.821670 2.176638 -1.443516 0
M  V30 48 H -4.521155 -0.198384 -2.690741 0
M  V30 49 H -4.720222 -0.752044 -1.174535 0
M  V30 50 H 2.855596 2.223235 -2.121349 0
M  V30 51 H 1.464830 1.245271 -2.870642 0
M  V30 52 H 0.992444 -3.374648 -0.467240 0
M  V30 53 H -1.849656 -6.111248 1.046437 0
M  V30 54 H -1.484265 -5.233848 3.313747 0
M  V30 END ATOM
M  V30 BEGIN BOND
M  V30 1 1 1 2
M  V30 2 1 2 3
M  V30 3 2 3 4
M  V30 4 1 4 5
M  V30 5 2 5 6
M  V30 6 1 6 7
M  V30 7 1 7 8
M  V30 8 1 8 9
M  V30 9 1 9 10
M  V30 10 1 10 11
M  V30 11 1 10 12
M  V30 12 1 12 13
M  V30 13 1 13 14
M  V30 14 1 14 15
M  V30 15 2 15 16
M  V30 16 1 16 17
M  V30 17 2 17 18
M  V30 18 1 18 19
M  V30 19 2 19 20
M  V30 20 1 20 21
M  V30 21 1 21 22
M  V30 22 2 21 23
M  V30 23 1 13 24
M  V30 24 1 6 25
M  V30 25 2 25 26
M  V30 26 1 26 27
M  V30 27 1 27 28
M  V30 28 2 27 29
M  V30 29 1 29 30
M  V30 30 2 30 31
M  V30 31 1 31 3
M  V30 32 1 11 8
M  V30 33 1 20 15
M  V30 34 1 31 25
M  V30 35 1 24 10
M  V30 36 1 1 32
M  V30 37 1 1 33
M  V30 38 1 1 34
M  V30 39 1 4 35
M  V30 40 1 7 36
M  V30 41 1 8 37
M  V30 42 1 9 38
M  V30 43 1 9 39
M  V30 44 1 11 40
M  V30 45 1 11 41
M  V30 46 1 12 42
M  V30 47 1 12 43
M  V30 48 1 13 44
M  V30 49 1 17 45
M  V30 50 1 18 46
M  V30 51 1 19 47
M  V30 52 1 22 48
M  V30 53 1 22 49
M  V30 54 1 24 50
M  V30 55 1 24 51
M  V30 56 1 26 52
M  V30 57 1 29 53
M  V30 58 1 30 54
M  V30 END BOND
M  V30 END CTAB
M  END
>  <Dataset>  (897) 
ChEMBL_Kinases

>  <Ligand_Instance>  (897) 
nan

>  <PDB_ID>  (897) 
nan

>  <Standardized_SMILES>  (897) 
COc1cnc(NC2CC3(C2)CC(Oc2ncccc2C(N)=O)C3)c2cc(Cl)ccc12

>  <Name>  (897) 
nan

>  <Pocket>  (897) 
nan

>  <ATP_Site>  (897) 
nan

>  <Peripheral>  (897) 
nan

>  <Num_H_Atoms_ProtBoundConf>  (897) 
nan

>  <Num_Resolved_Atoms>  (897) 
nan

>  <Num_Not_Resolved_Atoms>  (897) 
nan

$$$$
CHEMBL4752045
     RDKit          3D

  0  0  0  0  0  0  0  0  0  0999 V3000
M  V30 BEGIN CTAB
M  V30 COUNTS 46 49 0 0 0
M  V30 BEGIN ATOM
M  V30 1 C 3.525706 -3.461352 2.664775 0
M  V30 2 S 5.061582 -2.661176 3.060247 0
M  V30 3 O 5.395581 -3.021876 4.485134 0
M  V30 4 O 6.137146 -3.179057 2.144258 0
M  V30 5 N 4.944352 -0.948994 2.956944 0
M  V30 6 C 4.622312 -0.297357 1.723694 0
M  V30 7 C 5.198093 -0.633468 0.514095 0
M  V30 8 C 4.841790 0.037473 -0.644435 0
M  V30 9 C 3.908164 1.054383 -0.627026 0
M  V30 10 C 3.336427 1.382398 0.597717 0
M  V30 11 C 2.321807 2.458131 0.737680 0
M  V30 12 C 0.940422 1.934377 0.566317 0
M  V30 13 O 0.703265 0.718796 0.331974 0
M  V30 14 N -0.094197 2.899308 0.685054 0
M  V30 15 C -1.428024 2.304149 0.503341 0
M  V30 16 N -1.778327 1.182949 0.279925 0
M  V30 17 C -3.015646 0.747657 0.135489 0
M  V30 18 C -3.256170 -0.648467 -0.163158 0
M  V30 19 C -2.300507 -1.589154 -0.572534 0
M  V30 20 N -2.810066 -2.814873 -0.751027 0
M  V30 21 C -4.110352 -2.768786 -0.476532 0
M  V30 22 N -5.066800 -3.700670 -0.485900 0
M  V30 23 C -6.324461 -3.406439 -0.150027 0
M  V30 24 C -6.655885 -2.097555 0.220968 0
M  V30 25 F -7.957558 -1.868383 0.552078 0
M  V30 26 C -5.649535 -1.158466 0.220892 0
M  V30 27 C -4.357932 -1.461697 -0.125636 0
M  V30 28 C -3.998177 1.758382 0.267556 0
M  V30 29 S -2.942455 3.282096 0.602173 0
M  V30 30 C 3.682005 0.723135 1.756465 0
M  V30 31 H 3.455292 -4.386450 3.250021 0
M  V30 32 H 3.494100 -3.672225 1.575336 0
M  V30 33 H 2.718270 -2.741645 2.960205 0
M  V30 34 H 5.098475 -0.310241 3.769922 0
M  V30 35 H 5.933052 -1.431727 0.491085 0
M  V30 36 H 5.284166 -0.213382 -1.604165 0
M  V30 37 H 3.571164 1.626362 -1.464867 0
M  V30 38 H 2.486505 3.185412 -0.092657 0
M  V30 39 H 2.440795 3.006634 1.685907 0
M  V30 40 H -0.042457 3.903157 0.870639 0
M  V30 41 H -1.225738 -1.404172 -0.747524 0
M  V30 42 H -2.304303 -3.666489 -1.049653 0
M  V30 43 H -7.023573 -4.235038 -0.190934 0
M  V30 44 H -5.987409 -0.202841 0.526815 0
M  V30 45 H -5.120028 1.751528 0.192533 0
M  V30 46 H 3.237427 0.979184 2.704735 0
M  V30 END ATOM
M  V30 BEGIN BOND
M  V30 1 1 1 2
M  V30 2 2 2 3
M  V30 3 2 2 4
M  V30 4 1 2 5
M  V30 5 1 5 6
M  V30 6 2 6 7
M  V30 7 1 7 8
M  V30 8 2 8 9
M  V30 9 1 9 10
M  V30 10 1 10 11
M  V30 11 1 11 12
M  V30 12 2 12 13
M  V30 13 1 12 14
M  V30 14 1 14 15
M  V30 15 2 15 16
M  V30 16 1 16 17
M  V30 17 1 17 18
M  V30 18 2 18 19
M  V30 19 1 19 20
M  V30 20 1 20 21
M  V30 21 2 21 22
M  V30 22 1 22 23
M  V30 23 2 23 24
M  V30 24 1 24 25
M  V30 25 1 24 26
M  V30 26 2 26 27
M  V30 27 2 17 28
M  V30 28 1 28 29
M  V30 29 2 10 30
M  V30 30 1 30 6
M  V30 31 1 29 15
M  V30 32 1 27 18
M  V30 33 1 27 21
M  V30 34 1 1 31
M  V30 35 1 1 32
M  V30 36 1 1 33
M  V30 37 1 5 34
M  V30 38 1 7 35
M  V30 39 1 8 36
M  V30 40 1 9 37
M  V30 41 1 11 38
M  V30 42 1 11 39
M  V30 43 1 14 40
M  V30 44 1 19 41
M  V30 45 1 20 42
M  V30 46 1 23 43
M  V30 47 1 26 44
M  V30 48 1 28 45
M  V30 49 1 30 46
M  V30 END BOND
M  V30 END CTAB
M  END
>  <Dataset>  (898) 
ChEMBL_Kinases

>  <Ligand_Instance>  (898) 
nan

>  <PDB_ID>  (898) 
nan

>  <Standardized_SMILES>  (898) 
CS(=O)(=O)Nc1cccc(CC(=O)Nc2nc(-c3c[nH]c4ncc(F)cc34)cs2)c1

>  <Name>  (898) 
nan

>  <Pocket>  (898) 
nan

>  <ATP_Site>  (898) 
nan

>  <Peripheral>  (898) 
nan

>  <Num_H_Atoms_ProtBoundConf>  (898) 
nan

>  <Num_Resolved_Atoms>  (898) 
nan

>  <Num_Not_Resolved_Atoms>  (898) 
nan

$$$$
CHEMBL4440433
     RDKit          3D

  0  0  0  0  0  0  0  0  0  0999 V3000
M  V30 BEGIN CTAB
M  V30 COUNTS 35 37 0 0 0
M  V30 BEGIN ATOM
M  V30 1 C -1.441290 -1.725849 2.235067 0
M  V30 2 C -0.131308 -2.106831 2.812899 0
M  V30 3 N 0.065475 -2.722370 3.993877 0
M  V30 4 N 1.377126 -2.894405 4.184049 0
M  V30 5 C 1.932870 -2.362649 3.082799 0
M  V30 6 C 3.283247 -2.314812 2.845875 0
M  V30 7 C 3.848778 -1.773566 1.731397 0
M  V30 8 N 2.954328 -1.289538 0.883152 0
M  V30 9 C 1.617978 -1.294053 1.033688 0
M  V30 10 N 0.623697 -0.770786 0.111151 0
M  V30 11 C -0.024577 -0.164067 -0.995338 0
M  V30 12 C -1.542116 -0.188027 -0.932546 0
M  V30 13 C -2.119672 1.047746 -0.345498 0
M  V30 14 C -1.776153 2.288124 -1.149864 0
M  V30 15 C -0.669692 1.918682 -2.121724 0
M  V30 16 C 0.428313 1.257936 -1.336952 0
M  V30 17 C 1.053222 -1.841693 2.161918 0
M  V30 18 H -1.806153 -2.460104 1.494060 0
M  V30 19 H -2.214209 -1.775865 3.061338 0
M  V30 20 H -1.476633 -0.696181 1.891648 0
M  V30 21 H 1.809365 -3.343055 5.012826 0
M  V30 22 H 4.032826 -2.700934 3.518170 0
M  V30 23 H 4.897882 -1.701910 1.480578 0
M  V30 24 H 1.395881 -0.459066 -0.501014 0
M  V30 25 H 0.179542 -0.769875 -1.940954 0
M  V30 26 H -1.937661 -0.276404 -1.983424 0
M  V30 27 H -1.881715 -1.080216 -0.422499 0
M  V30 28 H -1.877988 1.275093 0.688475 0
M  V30 29 H -3.225864 0.946850 -0.393803 0
M  V30 30 H -1.368775 3.093243 -0.506834 0
M  V30 31 H -2.653304 2.708926 -1.677999 0
M  V30 32 H -1.080917 1.305039 -2.924756 0
M  V30 33 H -0.329103 2.902727 -2.554775 0
M  V30 34 H 0.624154 1.842415 -0.426564 0
M  V30 35 H 1.326610 1.254020 -1.979134 0
M  V30 END ATOM
M  V30 BEGIN BOND
M  V30 1 1 1 2
M  V30 2 2 2 3
M  V30 3 1 3 4
M  V30 4 1 4 5
M  V30 5 2 5 6
M  V30 6 1 6 7
M  V30 7 2 7 8
M  V30 8 1 8 9
M  V30 9 1 9 10
M  V30 10 1 10 11
M  V30 11 1 11 12
M  V30 12 1 12 13
M  V30 13 1 13 14
M  V30 14 1 14 15
M  V30 15 1 15 16
M  V30 16 2 9 17
M  V30 17 1 17 2
M  V30 18 1 17 5
M  V30 19 1 16 11
M  V30 20 1 1 18
M  V30 21 1 1 19
M  V30 22 1 1 20
M  V30 23 1 4 21
M  V30 24 1 6 22
M  V30 25 1 7 23
M  V30 26 1 10 24
M  V30 27 1 11 25
M  V30 28 1 12 26
M  V30 29 1 12 27
M  V30 30 1 13 28
M  V30 31 1 13 29
M  V30 32 1 14 30
M  V30 33 1 14 31
M  V30 34 1 15 32
M  V30 35 1 15 33
M  V30 36 1 16 34
M  V30 37 1 16 35
M  V30 END BOND
M  V30 END CTAB
M  END
>  <Dataset>  (899) 
ChEMBL_Kinases

>  <Ligand_Instance>  (899) 
nan

>  <PDB_ID>  (899) 
nan

>  <Standardized_SMILES>  (899) 
Cc1n[nH]c2ccnc(NC3CCCCC3)c12

>  <Name>  (899) 
nan

>  <Pocket>  (899) 
nan

>  <ATP_Site>  (899) 
nan

>  <Peripheral>  (899) 
nan

>  <Num_H_Atoms_ProtBoundConf>  (899) 
nan

>  <Num_Resolved_Atoms>  (899) 
nan

>  <Num_Not_Resolved_Atoms>  (899) 
nan

$$$$
CHEMBL4440432
     RDKit          3D

  0  0  0  0  0  0  0  0  0  0999 V3000
M  V30 BEGIN CTAB
M  V30 COUNTS 55 59 0 0 0
M  V30 BEGIN ATOM
M  V30 1 C 4.933511 -2.399569 4.027993 0
M  V30 2 C 5.222606 -1.034350 3.493190 0
M  V30 3 C 5.764811 -0.074016 4.348666 0
M  V30 4 C 6.045909 1.192720 3.899052 0
M  V30 5 C 5.803560 1.563735 2.587094 0
M  V30 6 C 5.263825 0.607101 1.736296 0
M  V30 7 N 4.946568 0.808081 0.349276 0
M  V30 8 C 3.650734 1.266317 0.058079 0
M  V30 9 O 2.928099 1.444338 1.044565 0
M  V30 10 N 3.151749 1.522093 -1.229473 0
M  V30 11 C 1.872413 1.981920 -1.626808 0
M  V30 12 C 0.812532 2.285379 -0.808300 0
M  V30 13 C -0.417689 2.730375 -1.232549 0
M  V30 14 O -1.430254 3.011845 -0.325776 0
M  V30 15 C -2.344631 2.056242 0.083070 0
M  V30 16 C -3.382626 2.234823 0.975502 0
M  V30 17 C -4.268731 1.283917 1.363283 0
M  V30 18 C -4.166063 -0.006382 0.843565 0
M  V30 19 N -4.949441 -1.025886 1.125774 0
M  V30 20 C -4.869931 -2.128253 0.688330 0
M  V30 21 N -5.456067 -3.417879 0.720899 0
M  V30 22 C -5.018418 -4.551587 -0.014009 0
M  V30 23 O -4.012614 -4.457257 -0.787960 0
M  V30 24 C -5.744344 -5.841415 0.130536 0
M  V30 25 C -4.978683 -7.081413 -0.148696 0
M  V30 26 C -5.942161 -6.593221 -1.153079 0
M  V30 27 S -3.362455 -1.927224 -0.451681 0
M  V30 28 C -3.126971 -0.197212 -0.053901 0
M  V30 29 C -2.223209 0.787782 -0.444275 0
M  V30 30 C -0.637997 2.896130 -2.583447 0
M  V30 31 C 0.407345 2.599649 -3.432283 0
M  V30 32 C 1.625991 2.155860 -2.967989 0
M  V30 33 F 2.615181 1.882739 -3.881214 0
M  V30 34 C 4.974464 -0.675028 2.173762 0
M  V30 35 H 3.924820 -2.490007 4.470015 0
M  V30 36 H 4.946250 -3.091984 3.138116 0
M  V30 37 H 5.685692 -2.746434 4.758259 0
M  V30 38 H 5.964751 -0.336978 5.381003 0
M  V30 39 H 6.468621 1.966668 4.536646 0
M  V30 40 H 5.986259 2.530095 2.128736 0
M  V30 41 H 5.621356 0.633988 -0.455032 0
M  V30 42 H 3.872501 1.327648 -1.962856 0
M  V30 43 H 0.927465 2.174591 0.256785 0
M  V30 44 H -3.442180 3.262251 1.371555 0
M  V30 45 H -5.028198 1.611161 2.082882 0
M  V30 46 H -6.268471 -3.412359 1.373695 0
M  V30 47 H -6.605052 -5.847466 0.817919 0
M  V30 48 H -5.249140 -7.993487 0.403636 0
M  V30 49 H -3.891009 -6.992128 -0.322947 0
M  V30 50 H -5.506833 -6.257283 -2.104229 0
M  V30 51 H -6.922974 -7.133695 -1.285996 0
M  V30 52 H -1.478374 0.459534 -1.152514 0
M  V30 53 H -1.597276 3.243153 -2.914531 0
M  V30 54 H 0.290453 2.711176 -4.497880 0
M  V30 55 H 4.559406 -1.459734 1.576497 0
M  V30 END ATOM
M  V30 BEGIN BOND
M  V30 1 1 1 2
M  V30 2 2 2 3
M  V30 3 1 3 4
M  V30 4 2 4 5
M  V30 5 1 5 6
M  V30 6 1 6 7
M  V30 7 1 7 8
M  V30 8 2 8 9
M  V30 9 1 8 10
M  V30 10 1 10 11
M  V30 11 2 11 12
M  V30 12 1 12 13
M  V30 13 1 13 14
M  V30 14 1 14 15
M  V30 15 2 15 16
M  V30 16 1 16 17
M  V30 17 2 17 18
M  V30 18 1 18 19
M  V30 19 2 19 20
M  V30 20 1 20 21
M  V30 21 1 21 22
M  V30 22 2 22 23
M  V30 23 1 22 24
M  V30 24 1 24 25
M  V30 25 1 25 26
M  V30 26 1 20 27
M  V30 27 1 27 28
M  V30 28 2 28 29
M  V30 29 2 13 30
M  V30 30 1 30 31
M  V30 31 2 31 32
M  V30 32 1 32 33
M  V30 33 2 6 34
M  V30 34 1 34 2
M  V30 35 1 32 11
M  V30 36 1 29 15
M  V30 37 1 28 18
M  V30 38 1 26 24
M  V30 39 1 1 35
M  V30 40 1 1 36
M  V30 41 1 1 37
M  V30 42 1 3 38
M  V30 43 1 4 39
M  V30 44 1 5 40
M  V30 45 1 7 41
M  V30 46 1 10 42
M  V30 47 1 12 43
M  V30 48 1 16 44
M  V30 49 1 17 45
M  V30 50 1 21 46
M  V30 51 1 24 47
M  V30 52 1 25 48
M  V30 53 1 25 49
M  V30 54 1 26 50
M  V30 55 1 26 51
M  V30 56 1 29 52
M  V30 57 1 30 53
M  V30 58 1 31 54
M  V30 59 1 34 55
M  V30 END BOND
M  V30 END CTAB
M  END
>  <Dataset>  (900) 
ChEMBL_Kinases

>  <Ligand_Instance>  (900) 
nan

>  <PDB_ID>  (900) 
nan

>  <Standardized_SMILES>  (900) 
Cc1cccc(NC(=O)Nc2cc(Oc3ccc4nc(NC(=O)C5CC5)sc4c3)ccc2F)c1

>  <Name>  (900) 
nan

>  <Pocket>  (900) 
nan

>  <ATP_Site>  (900) 
nan

>  <Peripheral>  (900) 
nan

>  <Num_H_Atoms_ProtBoundConf>  (900) 
nan

>  <Num_Resolved_Atoms>  (900) 
nan

>  <Num_Not_Resolved_Atoms>  (900) 
nan

$$$$
CHEMBL4752122
     RDKit          3D

  0  0  0  0  0  0  0  0  0  0999 V3000
M  V30 BEGIN CTAB
M  V30 COUNTS 71 75 0 0 0
M  V30 BEGIN ATOM
M  V30 1 C 3.360610 -5.834673 2.566321 0
M  V30 2 C 2.913288 -4.568359 3.248554 0
M  V30 3 C 3.793582 -3.406281 2.958976 0
M  V30 4 C 4.901700 -3.025146 3.700133 0
M  V30 5 C 5.594835 -1.917436 3.272305 0
M  V30 6 C 5.299217 -1.149666 2.182769 0
M  V30 7 N 6.057501 -0.009586 1.792408 0
M  V30 8 C 5.607054 0.660952 0.595383 0
M  V30 9 C 4.660551 1.666675 0.633774 0
M  V30 10 C 4.246280 2.290434 -0.524827 0
M  V30 11 C 3.239769 3.319185 -0.263794 0
M  V30 12 N 3.035627 4.626946 -0.021305 0
M  V30 13 O 1.754491 4.846065 0.123775 0
M  V30 14 C 1.066146 3.737761 -0.009577 0
M  V30 15 C -0.391324 3.564339 0.082599 0
M  V30 16 C -1.203635 4.634803 0.337508 0
M  V30 17 C -2.565071 4.439284 0.419027 0
M  V30 18 C -3.151134 3.193591 0.252271 0
M  V30 19 N -4.539614 3.015481 0.330379 0
M  V30 20 S -5.708259 2.199593 -0.635922 0
M  V30 21 O -5.615540 2.782133 -2.031060 0
M  V30 22 O -7.094929 2.505092 -0.143073 0
M  V30 23 C -5.407785 0.495945 -0.728097 0
M  V30 24 C -5.861325 -0.441221 0.178982 0
M  V30 25 C -5.577597 -1.795426 0.020928 0
M  V30 26 C -4.836587 -2.280328 -1.035675 0
M  V30 27 C -4.542171 -3.708160 -1.195418 0
M  V30 28 C -3.705884 -3.909679 -2.464288 0
M  V30 29 C -5.748785 -4.591412 -1.320924 0
M  V30 30 C -3.626044 -4.162780 -0.057484 0
M  V30 31 C -4.374299 -1.358032 -1.953017 0
M  V30 32 C -4.662464 -0.035635 -1.781517 0
M  V30 33 C -2.275527 2.166384 -0.000431 0
M  V30 34 C -0.907024 2.295008 -0.094372 0
M  V30 35 N 1.982621 2.782949 -0.250845 0
M  V30 36 C 4.758633 1.935416 -1.755512 0
M  V30 37 C 5.700622 0.927844 -1.749140 0
M  V30 38 N 6.103595 0.320217 -0.619261 0
M  V30 39 C 4.174667 -1.589595 1.484612 0
M  V30 40 C 3.438344 -2.674889 1.845633 0
M  V30 41 H 3.737860 -5.618678 1.544670 0
M  V30 42 H 4.108363 -6.397096 3.157229 0
M  V30 43 H 2.437111 -6.468874 2.452923 0
M  V30 44 H 2.941223 -4.762848 4.359857 0
M  V30 45 H 1.869902 -4.340094 2.961324 0
M  V30 46 H 5.141290 -3.625696 4.562167 0
M  V30 47 H 6.452587 -1.659709 3.884289 0
M  V30 48 H 6.861198 0.235708 2.398411 0
M  V30 49 H 4.307262 1.887553 1.640215 0
M  V30 50 H -0.787396 5.644039 0.477369 0
M  V30 51 H -3.223319 5.288317 0.622531 0
M  V30 52 H -4.892685 3.515656 1.201947 0
M  V30 53 H -6.446858 -0.054173 1.012681 0
M  V30 54 H -5.961328 -2.484928 0.766607 0
M  V30 55 H -2.744539 -3.372825 -2.423713 0
M  V30 56 H -4.342128 -3.613217 -3.315107 0
M  V30 57 H -3.471315 -4.997369 -2.502397 0
M  V30 58 H -5.450880 -5.499823 -1.878120 0
M  V30 59 H -6.476338 -4.059699 -1.979906 0
M  V30 60 H -6.231757 -4.843486 -0.355672 0
M  V30 61 H -4.189488 -4.402344 0.859624 0
M  V30 62 H -2.960124 -4.980629 -0.402442 0
M  V30 63 H -2.945412 -3.281461 0.115313 0
M  V30 64 H -3.786202 -1.660166 -2.808617 0
M  V30 65 H -4.280259 0.674543 -2.529171 0
M  V30 66 H -2.625986 1.153625 -0.142628 0
M  V30 67 H -0.236069 1.465702 -0.295749 0
M  V30 68 H 4.375956 2.475754 -2.598501 0
M  V30 69 H 6.106049 0.647005 -2.725179 0
M  V30 70 H 3.882216 -1.016568 0.599051 0
M  V30 71 H 2.574209 -2.925447 1.219795 0
M  V30 END ATOM
M  V30 BEGIN BOND
M  V30 1 1 1 2
M  V30 2 1 2 3
M  V30 3 2 3 4
M  V30 4 1 4 5
M  V30 5 2 5 6
M  V30 6 1 6 7
M  V30 7 1 7 8
M  V30 8 2 8 9
M  V30 9 1 9 10
M  V30 10 1 10 11
M  V30 11 2 11 12
M  V30 12 1 12 13
M  V30 13 1 13 14
M  V30 14 1 14 15
M  V30 15 2 15 16
M  V30 16 1 16 17
M  V30 17 2 17 18
M  V30 18 1 18 19
M  V30 19 1 19 20
M  V30 20 2 20 21
M  V30 21 2 20 22
M  V30 22 1 20 23
M  V30 23 2 23 24
M  V30 24 1 24 25
M  V30 25 2 25 26
M  V30 26 1 26 27
M  V30 27 1 27 28
M  V30 28 1 27 29
M  V30 29 1 27 30
M  V30 30 1 26 31
M  V30 31 2 31 32
M  V30 32 1 18 33
M  V30 33 2 33 34
M  V30 34 2 14 35
M  V30 35 2 10 36
M  V30 36 1 36 37
M  V30 37 2 37 38
M  V30 38 1 6 39
M  V30 39 2 39 40
M  V30 40 1 40 3
M  V30 41 1 38 8
M  V30 42 1 35 11
M  V30 43 1 34 15
M  V30 44 1 32 23
M  V30 45 1 1 41
M  V30 46 1 1 42
M  V30 47 1 1 43
M  V30 48 1 2 44
M  V30 49 1 2 45
M  V30 50 1 4 46
M  V30 51 1 5 47
M  V30 52 1 7 48
M  V30 53 1 9 49
M  V30 54 1 16 50
M  V30 55 1 17 51
M  V30 56 1 19 52
M  V30 57 1 24 53
M  V30 58 1 25 54
M  V30 59 1 28 55
M  V30 60 1 28 56
M  V30 61 1 28 57
M  V30 62 1 29 58
M  V30 63 1 29 59
M  V30 64 1 29 60
M  V30 65 1 30 61
M  V30 66 1 30 62
M  V30 67 1 30 63
M  V30 68 1 31 64
M  V30 69 1 32 65
M  V30 70 1 33 66
M  V30 71 1 34 67
M  V30 72 1 36 68
M  V30 73 1 37 69
M  V30 74 1 39 70
M  V30 75 1 40 71
M  V30 END BOND
M  V30 END CTAB
M  END
>  <Dataset>  (901) 
ChEMBL_Kinases

>  <Ligand_Instance>  (901) 
nan

>  <PDB_ID>  (901) 
nan

>  <Standardized_SMILES>  (901) 
CCc1ccc(Nc2cc(-c3noc(-c4ccc(NS(=O)(=O)c5ccc(C(C)(C)C)cc5)cc4)n3)ccn2)cc1

>  <Name>  (901) 
nan

>  <Pocket>  (901) 
nan

>  <ATP_Site>  (901) 
nan

>  <Peripheral>  (901) 
nan

>  <Num_H_Atoms_ProtBoundConf>  (901) 
nan

>  <Num_Resolved_Atoms>  (901) 
nan

>  <Num_Not_Resolved_Atoms>  (901) 
nan

$$$$
CHEMBL4440342
     RDKit          3D

  0  0  0  0  0  0  0  0  0  0999 V3000
M  V30 BEGIN CTAB
M  V30 COUNTS 41 43 0 0 0
M  V30 BEGIN ATOM
M  V30 1 C -1.965399 -4.752311 1.925489 0
M  V30 2 C -0.964039 -3.674107 1.582859 0
M  V30 3 C -0.057948 -3.448583 2.747699 0
M  V30 4 N -0.185704 -4.181454 0.474625 0
M  V30 5 C -1.723195 -2.412615 1.193990 0
M  V30 6 N -0.932048 -1.301239 0.842742 0
M  V30 7 C -0.146763 -0.198328 0.494516 0
M  V30 8 C 0.796258 0.503678 1.202731 0
M  V30 9 C 1.456397 1.570297 0.660192 0
M  V30 10 C 2.449266 2.300834 1.423825 0
M  V30 11 C 3.033702 3.351266 0.754913 0
M  V30 12 C 3.998018 4.088080 1.447548 0
M  V30 13 N 4.365891 3.806196 2.726609 0
M  V30 14 C 3.783652 2.773383 3.368233 0
M  V30 15 C 2.825597 2.022620 2.713945 0
M  V30 16 N 1.142650 1.899390 -0.591369 0
M  V30 17 C 0.243767 1.290086 -1.374598 0
M  V30 18 C 0.078507 1.801684 -2.643913 0
M  V30 19 N -0.827888 1.178324 -3.416705 0
M  V30 20 C -1.527366 0.121041 -2.973138 0
M  V30 21 C -1.321881 -0.348248 -1.695972 0
M  V30 22 C -0.418990 0.211922 -0.816517 0
M  V30 23 H -1.497343 -5.743771 1.723785 0
M  V30 24 H -2.315532 -4.675735 2.976329 0
M  V30 25 H -2.804486 -4.646856 1.200599 0
M  V30 26 H -0.503843 -2.762138 3.500494 0
M  V30 27 H 0.956691 -3.145071 2.428705 0
M  V30 28 H 0.055571 -4.446648 3.263283 0
M  V30 29 H 0.590650 -4.784375 0.798716 0
M  V30 30 H -0.853455 -4.708080 -0.155448 0
M  V30 31 H -2.471487 -2.221310 2.021139 0
M  V30 32 H -2.392924 -2.732826 0.310727 0
M  V30 33 H -0.559917 -1.424492 1.841886 0
M  V30 34 H 0.990616 0.174735 2.204396 0
M  V30 35 H 2.788257 3.635065 -0.271097 0
M  V30 36 H 4.493532 4.933907 0.961825 0
M  V30 37 H 4.084347 2.560302 4.382545 0
M  V30 38 H 2.377156 1.214074 3.231659 0
M  V30 39 H 0.659215 2.655625 -2.969288 0
M  V30 40 H -2.255371 -0.383856 -3.586048 0
M  V30 41 H -1.891327 -1.196513 -1.356828 0
M  V30 END ATOM
M  V30 BEGIN BOND
M  V30 1 1 1 2
M  V30 2 1 2 3
M  V30 3 1 2 4
M  V30 4 1 2 5
M  V30 5 1 5 6
M  V30 6 1 6 7
M  V30 7 2 7 8
M  V30 8 1 8 9
M  V30 9 1 9 10
M  V30 10 2 10 11
M  V30 11 1 11 12
M  V30 12 2 12 13
M  V30 13 1 13 14
M  V30 14 2 14 15
M  V30 15 2 9 16
M  V30 16 1 16 17
M  V30 17 2 17 18
M  V30 18 1 18 19
M  V30 19 2 19 20
M  V30 20 1 20 21
M  V30 21 2 21 22
M  V30 22 1 22 7
M  V30 23 1 15 10
M  V30 24 1 22 17
M  V30 25 1 1 23
M  V30 26 1 1 24
M  V30 27 1 1 25
M  V30 28 1 3 26
M  V30 29 1 3 27
M  V30 30 1 3 28
M  V30 31 1 4 29
M  V30 32 1 4 30
M  V30 33 1 5 31
M  V30 34 1 5 32
M  V30 35 1 6 33
M  V30 36 1 8 34
M  V30 37 1 11 35
M  V30 38 1 12 36
M  V30 39 1 14 37
M  V30 40 1 15 38
M  V30 41 1 18 39
M  V30 42 1 20 40
M  V30 43 1 21 41
M  V30 END BOND
M  V30 END CTAB
M  END
>  <Dataset>  (902) 
ChEMBL_Kinases

>  <Ligand_Instance>  (902) 
nan

>  <PDB_ID>  (902) 
nan

>  <Standardized_SMILES>  (902) 
CC(C)(N)CNc1cc(-c2ccncc2)nc2cnccc12

>  <Name>  (902) 
nan

>  <Pocket>  (902) 
nan

>  <ATP_Site>  (902) 
nan

>  <Peripheral>  (902) 
nan

>  <Num_H_Atoms_ProtBoundConf>  (902) 
nan

>  <Num_Resolved_Atoms>  (902) 
nan

>  <Num_Not_Resolved_Atoms>  (902) 
nan

$$$$
CHEMBL4439972
     RDKit          3D

  0  0  0  0  0  0  0  0  0  0999 V3000
M  V30 BEGIN CTAB
M  V30 COUNTS 46 48 0 0 0
M  V30 BEGIN ATOM
M  V30 1 C 0.215226 -4.349261 0.263667 0
M  V30 2 C 0.448995 -3.612718 1.575206 0
M  V30 3 C -0.705366 -3.877388 2.516455 0
M  V30 4 N 1.612456 -4.182688 2.194792 0
M  V30 5 C 0.576542 -2.159605 1.265848 0
M  V30 6 C 1.709113 -1.838083 0.339166 0
M  V30 7 C 0.796891 -1.409019 2.586420 0
M  V30 8 N -0.680906 -1.692215 0.706527 0
M  V30 9 C -0.727440 -0.312700 0.360135 0
M  V30 10 N 0.297235 0.518925 0.527359 0
M  V30 11 C 0.278510 1.825307 0.209143 0
M  V30 12 C 1.468096 2.641870 0.439283 0
M  V30 13 C 1.473861 3.984200 0.120454 0
M  V30 14 C 2.611033 4.767885 0.339726 0
M  V30 15 N 3.721353 4.225013 0.866523 0
M  V30 16 C 3.718265 2.897545 1.182766 0
M  V30 17 C 2.613711 2.094519 0.979777 0
M  V30 18 N -0.816188 2.401845 -0.318894 0
M  V30 19 C -1.916381 1.635793 -0.528692 0
M  V30 20 C -3.054020 2.197880 -1.068572 0
M  V30 21 N -4.155015 1.419028 -1.275597 0
M  V30 22 C -4.137017 0.106229 -0.956099 0
M  V30 23 C -2.980369 -0.418228 -0.418413 0
M  V30 24 C -1.831184 0.304807 -0.180877 0
M  V30 25 H -0.505910 -5.164426 0.478310 0
M  V30 26 H -0.277390 -3.655712 -0.451706 0
M  V30 27 H 1.169241 -4.748869 -0.141834 0
M  V30 28 H -0.378006 -4.163504 3.530565 0
M  V30 29 H -1.374112 -3.001059 2.619772 0
M  V30 30 H -1.270529 -4.759195 2.128998 0
M  V30 31 H 2.041012 -4.979782 1.721651 0
M  V30 32 H 2.245730 -3.489803 2.622621 0
M  V30 33 H 1.396626 -1.278925 -0.575580 0
M  V30 34 H 2.516789 -1.315007 0.890089 0
M  V30 35 H 2.167016 -2.774593 -0.049258 0
M  V30 36 H 0.042329 -0.592213 2.703967 0
M  V30 37 H 0.767238 -2.109634 3.449178 0
M  V30 38 H 1.813707 -0.948087 2.627215 0
M  V30 39 H -1.464128 -2.364419 0.588535 0
M  V30 40 H 0.603881 4.478283 -0.308692 0
M  V30 41 H 2.633322 5.804420 0.099896 0
M  V30 42 H 4.638225 2.503048 1.606023 0
M  V30 43 H 2.678649 1.050659 1.252615 0
M  V30 44 H -3.018126 3.240236 -1.304399 0
M  V30 45 H -5.030411 -0.479650 -1.135093 0
M  V30 46 H -3.044261 -1.467176 -0.191078 0
M  V30 END ATOM
M  V30 BEGIN BOND
M  V30 1 1 1 2
M  V30 2 1 2 3
M  V30 3 1 2 4
M  V30 4 1 2 5
M  V30 5 1 5 6
M  V30 6 1 5 7
M  V30 7 1 5 8
M  V30 8 1 8 9
M  V30 9 2 9 10
M  V30 10 1 10 11
M  V30 11 1 11 12
M  V30 12 2 12 13
M  V30 13 1 13 14
M  V30 14 2 14 15
M  V30 15 1 15 16
M  V30 16 2 16 17
M  V30 17 2 11 18
M  V30 18 1 18 19
M  V30 19 2 19 20
M  V30 20 1 20 21
M  V30 21 2 21 22
M  V30 22 1 22 23
M  V30 23 2 23 24
M  V30 24 1 24 9
M  V30 25 1 17 12
M  V30 26 1 24 19
M  V30 27 1 1 25
M  V30 28 1 1 26
M  V30 29 1 1 27
M  V30 30 1 3 28
M  V30 31 1 3 29
M  V30 32 1 3 30
M  V30 33 1 4 31
M  V30 34 1 4 32
M  V30 35 1 6 33
M  V30 36 1 6 34
M  V30 37 1 6 35
M  V30 38 1 7 36
M  V30 39 1 7 37
M  V30 40 1 7 38
M  V30 41 1 8 39
M  V30 42 1 13 40
M  V30 43 1 14 41
M  V30 44 1 16 42
M  V30 45 1 17 43
M  V30 46 1 20 44
M  V30 47 1 22 45
M  V30 48 1 23 46
M  V30 END BOND
M  V30 END CTAB
M  END
>  <Dataset>  (903) 
ChEMBL_Kinases

>  <Ligand_Instance>  (903) 
nan

>  <PDB_ID>  (903) 
nan

>  <Standardized_SMILES>  (903) 
CC(C)(N)C(C)(C)Nc1nc(-c2ccncc2)nc2cnccc12

>  <Name>  (903) 
nan

>  <Pocket>  (903) 
nan

>  <ATP_Site>  (903) 
nan

>  <Peripheral>  (903) 
nan

>  <Num_H_Atoms_ProtBoundConf>  (903) 
nan

>  <Num_Resolved_Atoms>  (903) 
nan

>  <Num_Not_Resolved_Atoms>  (903) 
nan

$$$$
CHEMBL4440266
     RDKit          3D

  0  0  0  0  0  0  0  0  0  0999 V3000
M  V30 BEGIN CTAB
M  V30 COUNTS 36 39 0 0 0
M  V30 BEGIN ATOM
M  V30 1 C 0.102669 -4.412377 3.619622 0
M  V30 2 C 0.186531 -5.230237 2.383892 0
M  V30 3 N 0.186920 -6.592036 2.359453 0
M  V30 4 N 0.272346 -6.997377 1.104050 0
M  V30 5 C 0.326288 -5.905527 0.329920 0
M  V30 6 C 0.275051 -4.755022 1.095436 0
M  V30 7 C 0.309603 -3.382701 0.612169 0
M  V30 8 C 0.272880 -2.192967 1.179919 0
M  V30 9 C 0.326039 -1.064646 0.418336 0
M  V30 10 N 0.305229 0.239920 0.753239 0
M  V30 11 C 0.368598 1.216537 -0.162533 0
M  V30 12 C 0.339114 2.650172 0.303060 0 CFG=2
M  V30 13 C -0.984286 3.290226 -0.029255 0
M  V30 14 C -0.595711 4.758877 -0.155649 0
M  V30 15 C 0.913672 4.780008 -0.061398 0
M  V30 16 N 1.347647 3.430053 -0.387457 0
M  V30 17 N 0.458290 1.043029 -1.491426 0
M  V30 18 C 0.486956 -0.220952 -1.941525 0
M  V30 19 O 0.566129 -0.604103 -3.119350 0
M  V30 20 C 0.419555 -1.222706 -0.966723 0
M  V30 21 S 0.427642 -3.057825 -1.124963 0
M  V30 22 H -0.779086 -3.758979 3.668588 0
M  V30 23 H 1.012454 -3.779223 3.752557 0
M  V30 24 H -0.004869 -5.092566 4.519994 0
M  V30 25 H 0.293459 -7.989961 0.781311 0
M  V30 26 H 0.400880 -5.986508 -0.762521 0
M  V30 27 H 0.200259 -2.131859 2.255570 0
M  V30 28 H 0.606326 2.669189 1.364998 0
M  V30 29 H -1.735889 3.133969 0.781225 0
M  V30 30 H -1.369478 2.864843 -0.968257 0
M  V30 31 H -0.919727 5.207030 -1.111780 0
M  V30 32 H -1.072679 5.300582 0.684505 0
M  V30 33 H 1.342929 5.520686 -0.779924 0
M  V30 34 H 1.163452 5.060891 0.993969 0
M  V30 35 H 2.256908 3.296144 0.099765 0
M  V30 36 H 0.507568 1.788545 -2.203830 0
M  V30 END ATOM
M  V30 BEGIN BOND
M  V30 1 1 1 2
M  V30 2 2 2 3
M  V30 3 1 3 4
M  V30 4 1 4 5
M  V30 5 2 5 6
M  V30 6 1 6 7
M  V30 7 2 7 8
M  V30 8 1 8 9
M  V30 9 1 9 10
M  V30 10 2 10 11
M  V30 11 1 11 12
M  V30 12 1 12 13
M  V30 13 1 13 14
M  V30 14 1 14 15
M  V30 15 1 15 16
M  V30 16 1 11 17
M  V30 17 1 17 18
M  V30 18 2 18 19
M  V30 19 1 18 20
M  V30 20 1 20 21
M  V30 21 1 6 2
M  V30 22 1 21 7
M  V30 23 2 20 9
M  V30 24 1 16 12
M  V30 25 1 1 22
M  V30 26 1 1 23
M  V30 27 1 1 24
M  V30 28 1 4 25
M  V30 29 1 5 26
M  V30 30 1 8 27
M  V30 31 1 12 28 CFG=1
M  V30 32 1 13 29
M  V30 33 1 13 30
M  V30 34 1 14 31
M  V30 35 1 14 32
M  V30 36 1 15 33
M  V30 37 1 15 34
M  V30 38 1 16 35
M  V30 39 1 17 36
M  V30 END BOND
M  V30 END CTAB
M  END
>  <Dataset>  (904) 
ChEMBL_Kinases

>  <Ligand_Instance>  (904) 
nan

>  <PDB_ID>  (904) 
nan

>  <Standardized_SMILES>  (904) 
Cc1n[nH]cc1-c1cc2nc([C@@H]3CCCN3)[nH]c(=O)c2s1

>  <Name>  (904) 
nan

>  <Pocket>  (904) 
nan

>  <ATP_Site>  (904) 
nan

>  <Peripheral>  (904) 
nan

>  <Num_H_Atoms_ProtBoundConf>  (904) 
nan

>  <Num_Resolved_Atoms>  (904) 
nan

>  <Num_Not_Resolved_Atoms>  (904) 
nan

$$$$
CHEMBL4440222
     RDKit          3D

  0  0  0  0  0  0  0  0  0  0999 V3000
M  V30 BEGIN CTAB
M  V30 COUNTS 43 46 0 0 0
M  V30 BEGIN ATOM
M  V30 1 C 0.792713 -5.509325 2.081971 0
M  V30 2 C 0.263737 -5.064013 0.734008 0 CFG=1
M  V30 3 N -1.161348 -5.337768 0.752206 0
M  V30 4 C 0.527819 -3.597404 0.592144 0
M  V30 5 C 1.479677 -3.001952 1.394177 0
M  V30 6 C 1.729120 -1.651127 1.269852 0
M  V30 7 C 1.003704 -0.887163 0.317691 0
M  V30 8 C 1.159506 0.494153 -0.034366 0
M  V30 9 C 2.106941 0.435990 -1.073831 0
M  V30 10 O 2.785345 -0.620469 -1.687530 0
M  V30 11 C 2.517454 1.634253 -1.681676 0
M  V30 12 C 2.022814 2.860746 -1.292926 0
M  V30 13 Cl 2.483884 4.386623 -1.998691 0
M  V30 14 C 1.097708 2.871985 -0.272195 0
M  V30 15 N 0.583718 4.039142 0.145621 0
M  V30 16 C -0.320428 4.116070 1.134650 0
M  V30 17 O -0.794351 5.214616 1.517110 0
M  V30 18 C -0.711020 2.926966 1.718950 0
M  V30 19 C -1.640143 3.018290 2.732179 0
M  V30 20 C -2.032961 1.834640 3.316630 0
M  V30 21 C -1.559126 0.565676 2.955956 0
M  V30 22 C -0.640722 0.626653 1.935154 0
M  V30 23 C -0.200123 1.731796 1.308171 0
M  V30 24 C 0.695289 1.716472 0.321111 0
M  V30 25 C 0.048302 -1.538050 -0.472465 0
M  V30 26 C -0.211103 -2.910035 -0.352351 0
M  V30 27 H 1.858868 -5.775164 2.071548 0
M  V30 28 H 0.238500 -6.421664 2.445519 0
M  V30 29 H 0.565503 -4.721567 2.849383 0
M  V30 30 H 0.776900 -5.670338 -0.031196 0
M  V30 31 H -1.759731 -4.506858 0.820310 0
M  V30 32 H -1.443804 -5.995136 1.513030 0
M  V30 33 H 2.061765 -3.531686 2.134897 0
M  V30 34 H 2.430036 -1.057715 1.817059 0
M  V30 35 H 3.808021 -0.633221 -1.622921 0
M  V30 36 H 3.234236 1.741747 -2.487604 0
M  V30 37 H 0.888507 4.940814 -0.307033 0
M  V30 38 H -2.024322 3.976379 3.033621 0
M  V30 39 H -2.772155 1.971600 4.114595 0
M  V30 40 H -2.001742 -0.202598 3.542239 0
M  V30 41 H -0.413861 -0.380837 1.811543 0
M  V30 42 H -0.558712 -1.057810 -1.224679 0
M  V30 43 H -0.939451 -3.412092 -0.953071 0
M  V30 END ATOM
M  V30 BEGIN BOND
M  V30 1 1 1 2
M  V30 2 1 2 3
M  V30 3 1 2 4
M  V30 4 2 4 5
M  V30 5 1 5 6
M  V30 6 2 6 7
M  V30 7 1 7 8
M  V30 8 2 8 9
M  V30 9 1 9 10
M  V30 10 1 9 11
M  V30 11 2 11 12
M  V30 12 1 12 13
M  V30 13 1 12 14
M  V30 14 1 14 15
M  V30 15 1 15 16
M  V30 16 2 16 17
M  V30 17 1 16 18
M  V30 18 2 18 19
M  V30 19 1 19 20
M  V30 20 2 20 21
M  V30 21 1 21 22
M  V30 22 2 22 23
M  V30 23 1 23 24
M  V30 24 1 7 25
M  V30 25 2 25 26
M  V30 26 1 26 4
M  V30 27 1 24 8
M  V30 28 2 24 14
M  V30 29 1 23 18
M  V30 30 1 1 27
M  V30 31 1 1 28
M  V30 32 1 1 29
M  V30 33 1 2 30 CFG=3
M  V30 34 1 3 31
M  V30 35 1 3 32
M  V30 36 1 5 33
M  V30 37 1 6 34
M  V30 38 1 10 35
M  V30 39 1 11 36
M  V30 40 1 15 37
M  V30 41 1 19 38
M  V30 42 1 20 39
M  V30 43 1 21 40
M  V30 44 1 22 41
M  V30 45 1 25 42
M  V30 46 1 26 43
M  V30 END BOND
M  V30 END CTAB
M  END
>  <Dataset>  (905) 
ChEMBL_Kinases

>  <Ligand_Instance>  (905) 
nan

>  <PDB_ID>  (905) 
nan

>  <Standardized_SMILES>  (905) 
C[C@@H](N)c1ccc(-c2c(O)cc(Cl)c3[nH]c(=O)c4ccccc4c23)cc1

>  <Name>  (905) 
nan

>  <Pocket>  (905) 
nan

>  <ATP_Site>  (905) 
nan

>  <Peripheral>  (905) 
nan

>  <Num_H_Atoms_ProtBoundConf>  (905) 
nan

>  <Num_Resolved_Atoms>  (905) 
nan

>  <Num_Not_Resolved_Atoms>  (905) 
nan

$$$$
CHEMBL4440182
     RDKit          3D

  0  0  0  0  0  0  0  0  0  0999 V3000
M  V30 BEGIN CTAB
M  V30 COUNTS 40 42 0 0 0
M  V30 BEGIN ATOM
M  V30 1 C -0.790407 -4.673418 0.054357 0
M  V30 2 C -0.355198 -3.245821 0.180539 0
M  V30 3 C 1.133403 -3.260653 0.528054 0
M  V30 4 C -0.540385 -2.574570 -1.156539 0
M  V30 5 N -1.079107 -2.501886 1.204737 0
M  V30 6 C -0.748023 -1.137155 1.415642 0
M  V30 7 N 0.205333 -0.543308 0.695026 0
M  V30 8 C 0.559540 0.745695 0.853209 0
M  V30 9 C 1.609210 1.364870 0.046675 0
M  V30 10 C 2.295762 0.659125 -0.921624 0
M  V30 11 C 3.286627 1.174781 -1.709973 0
M  V30 12 N 3.619466 2.482290 -1.524419 0
M  V30 13 C 2.968762 3.212837 -0.582190 0
M  V30 14 N 3.356399 4.581667 -0.427196 0
M  V30 15 C 1.962734 2.687286 0.217426 0
M  V30 16 N -0.062278 1.500654 1.778590 0
M  V30 17 C -1.049474 0.990134 2.566404 0
M  V30 18 C -1.699199 1.747199 3.520649 0
M  V30 19 N -2.672884 1.206095 4.282702 0
M  V30 20 C -3.000087 -0.085975 4.096200 0
M  V30 21 C -2.356404 -0.851992 3.144454 0
M  V30 22 C -1.357974 -0.334939 2.347961 0
M  V30 23 H -1.542737 -4.797320 -0.777870 0
M  V30 24 H -1.180850 -5.075229 1.004025 0
M  V30 25 H 0.057565 -5.306041 -0.235379 0
M  V30 26 H 1.276089 -3.227851 1.622669 0
M  V30 27 H 1.661944 -2.419861 0.079125 0
M  V30 28 H 1.579762 -4.191990 0.128890 0
M  V30 29 H 0.389681 -2.054479 -1.433402 0
M  V30 30 H -0.807368 -3.325882 -1.951857 0
M  V30 31 H -1.343752 -1.824467 -1.070393 0
M  V30 32 H -1.787015 -3.054295 1.696361 0
M  V30 33 H 2.077949 -0.381149 -1.116132 0
M  V30 34 H 3.808745 0.598499 -2.462052 0
M  V30 35 H 2.757187 5.379490 -0.137642 0
M  V30 36 H 4.324519 4.936587 -0.596482 0
M  V30 37 H 1.462917 3.296434 0.960228 0
M  V30 38 H -1.350233 2.773428 3.579323 0
M  V30 39 H -3.797692 -0.451603 4.751397 0
M  V30 40 H -2.669051 -1.865630 3.054334 0
M  V30 END ATOM
M  V30 BEGIN BOND
M  V30 1 1 1 2
M  V30 2 1 2 3
M  V30 3 1 2 4
M  V30 4 1 2 5
M  V30 5 1 5 6
M  V30 6 2 6 7
M  V30 7 1 7 8
M  V30 8 1 8 9
M  V30 9 2 9 10
M  V30 10 1 10 11
M  V30 11 2 11 12
M  V30 12 1 12 13
M  V30 13 1 13 14
M  V30 14 2 13 15
M  V30 15 2 8 16
M  V30 16 1 16 17
M  V30 17 2 17 18
M  V30 18 1 18 19
M  V30 19 2 19 20
M  V30 20 1 20 21
M  V30 21 2 21 22
M  V30 22 1 22 6
M  V30 23 1 15 9
M  V30 24 1 22 17
M  V30 25 1 1 23
M  V30 26 1 1 24
M  V30 27 1 1 25
M  V30 28 1 3 26
M  V30 29 1 3 27
M  V30 30 1 3 28
M  V30 31 1 4 29
M  V30 32 1 4 30
M  V30 33 1 4 31
M  V30 34 1 5 32
M  V30 35 1 10 33
M  V30 36 1 11 34
M  V30 37 1 14 35
M  V30 38 1 14 36
M  V30 39 1 15 37
M  V30 40 1 18 38
M  V30 41 1 20 39
M  V30 42 1 21 40
M  V30 END BOND
M  V30 END CTAB
M  END
>  <Dataset>  (906) 
ChEMBL_Kinases

>  <Ligand_Instance>  (906) 
nan

>  <PDB_ID>  (906) 
nan

>  <Standardized_SMILES>  (906) 
CC(C)(C)Nc1nc(-c2ccnc(N)c2)nc2cnccc12

>  <Name>  (906) 
nan

>  <Pocket>  (906) 
nan

>  <ATP_Site>  (906) 
nan

>  <Peripheral>  (906) 
nan

>  <Num_H_Atoms_ProtBoundConf>  (906) 
nan

>  <Num_Resolved_Atoms>  (906) 
nan

>  <Num_Not_Resolved_Atoms>  (906) 
nan

$$$$
CHEMBL4440168
     RDKit          3D

  0  0  0  0  0  0  0  0  0  0999 V3000
M  V30 BEGIN CTAB
M  V30 COUNTS 56 59 0 0 0
M  V30 BEGIN ATOM
M  V30 1 C -0.357720 -6.511260 2.528143 0
M  V30 2 O 0.277922 -6.870211 1.342144 0
M  V30 3 C 0.976377 -6.054720 0.486084 0
M  V30 4 C 1.105658 -4.712639 0.767759 0
M  V30 5 C 1.804435 -3.886534 -0.085231 0
M  V30 6 C 2.060740 -2.455935 0.009397 0
M  V30 7 C 3.383090 -2.059890 -0.221500 0
M  V30 8 N 3.798422 -0.770838 -0.173273 0
M  V30 9 C 2.939988 0.229049 0.106930 0
M  V30 10 C 1.607554 -0.128732 0.343851 0
M  V30 11 C 0.670192 0.943370 0.647785 0
M  V30 12 C 0.782798 2.030048 -0.231652 0
M  V30 13 C 0.002935 3.167288 -0.143615 0
M  V30 14 C -0.944580 3.260627 0.856052 0
M  V30 15 N -1.804327 4.378568 1.046096 0
M  V30 16 C -2.812492 4.557356 2.074198 0
M  V30 17 C -4.167842 4.375662 1.386930 0
M  V30 18 N -4.149742 5.161934 0.187896 0
M  V30 19 C -3.102065 6.163636 0.152585 0
M  V30 20 C -1.724948 5.526491 0.137649 0
M  V30 21 C -1.061564 2.195092 1.725873 0
M  V30 22 C -0.283396 1.059949 1.638404 0
M  V30 23 C 1.178389 -1.436946 0.296513 0
M  V30 24 C -0.224689 -1.853185 0.535185 0
M  V30 25 C 2.353148 -4.498861 -1.220699 0
M  V30 26 C 2.221388 -5.849517 -1.501326 0
M  V30 27 F 2.767347 -6.402696 -2.610390 0
M  V30 28 C 1.517198 -6.652643 -0.631104 0
M  V30 29 C 1.312734 -8.072191 -0.816650 0
M  V30 30 N 1.877548 -8.646602 -1.967420 0
M  V30 31 O 0.677709 -8.768626 -0.019508 0
M  V30 32 H 0.329017 -6.379299 3.383002 0
M  V30 33 H -0.949045 -5.574782 2.450263 0
M  V30 34 H -1.090161 -7.293862 2.814304 0
M  V30 35 H 0.699543 -4.223079 1.626914 0
M  V30 36 H 4.163813 -2.792792 -0.458064 0
M  V30 37 H 3.260171 1.250048 0.146945 0
M  V30 38 H 1.503823 2.059859 -1.062336 0
M  V30 39 H 0.107360 3.992107 -0.832156 0
M  V30 40 H -2.820099 5.621970 2.440661 0
M  V30 41 H -2.704606 3.889419 2.932362 0
M  V30 42 H -5.011612 4.621322 2.067093 0
M  V30 43 H -4.238050 3.304872 1.059753 0
M  V30 44 H -5.063940 5.656403 0.093104 0
M  V30 45 H -3.218923 6.702103 -0.811616 0
M  V30 46 H -3.203709 6.940796 0.933899 0
M  V30 47 H -1.030047 6.245145 0.609852 0
M  V30 48 H -1.493988 5.249516 -0.893674 0
M  V30 49 H -1.757037 2.128348 2.553046 0
M  V30 50 H -0.318859 0.198923 2.279619 0
M  V30 51 H -0.323770 -2.079999 1.611813 0
M  V30 52 H -0.475642 -2.736790 -0.102123 0
M  V30 53 H -0.952701 -1.080739 0.232861 0
M  V30 54 H 2.931129 -3.940713 -1.972375 0
M  V30 55 H 2.281534 -9.069992 -2.820274 0
M  V30 56 H 1.317097 -8.911695 -2.807135 0
M  V30 END ATOM
M  V30 BEGIN BOND
M  V30 1 1 1 2
M  V30 2 1 2 3
M  V30 3 2 3 4
M  V30 4 1 4 5
M  V30 5 1 5 6
M  V30 6 2 6 7
M  V30 7 1 7 8
M  V30 8 2 8 9
M  V30 9 1 9 10
M  V30 10 1 10 11
M  V30 11 2 11 12
M  V30 12 1 12 13
M  V30 13 2 13 14
M  V30 14 1 14 15
M  V30 15 1 15 16
M  V30 16 1 16 17
M  V30 17 1 17 18
M  V30 18 1 18 19
M  V30 19 1 19 20
M  V30 20 1 14 21
M  V30 21 2 21 22
M  V30 22 2 10 23
M  V30 23 1 23 24
M  V30 24 2 5 25
M  V30 25 1 25 26
M  V30 26 1 26 27
M  V30 27 2 26 28
M  V30 28 1 28 29
M  V30 29 1 29 30
M  V30 30 2 29 31
M  V30 31 1 28 3
M  V30 32 1 23 6
M  V30 33 1 22 11
M  V30 34 1 20 15
M  V30 35 1 1 32
M  V30 36 1 1 33
M  V30 37 1 1 34
M  V30 38 1 4 35
M  V30 39 1 7 36
M  V30 40 1 9 37
M  V30 41 1 12 38
M  V30 42 1 13 39
M  V30 43 1 16 40
M  V30 44 1 16 41
M  V30 45 1 17 42
M  V30 46 1 17 43
M  V30 47 1 18 44
M  V30 48 1 19 45
M  V30 49 1 19 46
M  V30 50 1 20 47
M  V30 51 1 20 48
M  V30 52 1 21 49
M  V30 53 1 22 50
M  V30 54 1 24 51
M  V30 55 1 24 52
M  V30 56 1 24 53
M  V30 57 1 25 54
M  V30 58 1 30 55
M  V30 59 1 30 56
M  V30 END BOND
M  V30 END CTAB
M  END
>  <Dataset>  (907) 
ChEMBL_Kinases

>  <Ligand_Instance>  (907) 
nan

>  <PDB_ID>  (907) 
nan

>  <Standardized_SMILES>  (907) 
COc1cc(-c2cncc(-c3ccc(N4CCNCC4)cc3)c2C)cc(F)c1C(N)=O

>  <Name>  (907) 
nan

>  <Pocket>  (907) 
nan

>  <ATP_Site>  (907) 
nan

>  <Peripheral>  (907) 
nan

>  <Num_H_Atoms_ProtBoundConf>  (907) 
nan

>  <Num_Resolved_Atoms>  (907) 
nan

>  <Num_Not_Resolved_Atoms>  (907) 
nan

$$$$
CHEMBL4440139
     RDKit          3D

  0  0  0  0  0  0  0  0  0  0999 V3000
M  V30 BEGIN CTAB
M  V30 COUNTS 30 33 0 0 0
M  V30 BEGIN ATOM
M  V30 1 O -1.110168 -4.176221 -0.039310 0
M  V30 2 C -0.345582 -3.377567 0.597109 0
M  V30 3 N 0.139994 -3.363013 1.933968 0
M  V30 4 C 1.027654 -2.264556 2.032648 0
M  V30 5 C 1.731923 -1.974770 3.181509 0
M  V30 6 C 2.626235 -0.925869 3.194157 0
M  V30 7 C 2.795565 -0.185262 2.044024 0
M  V30 8 C 2.055736 -0.537603 0.941594 0
M  V30 9 C 1.146362 -1.555890 0.832274 0
M  V30 10 C 0.215442 -2.186203 -0.081910 0
M  V30 11 C 0.301369 -1.969669 -1.510467 0
M  V30 12 C -0.852278 -1.392839 -0.849664 0
M  V30 13 C -1.033003 -0.036367 -0.363131 0
M  V30 14 C -0.314262 1.088699 -0.607990 0
M  V30 15 C -0.543769 2.345761 -0.095552 0
M  V30 16 C -1.606277 2.520985 0.759957 0
M  V30 17 C -2.344249 1.393884 1.018535 0
M  V30 18 N -2.072411 0.212893 0.494476 0
M  V30 19 H -0.175599 -4.081674 2.616882 0
M  V30 20 H 1.661440 -2.499385 4.119382 0
M  V30 21 H 3.199386 -0.661544 4.069635 0
M  V30 22 H 3.493451 0.639246 2.038130 0
M  V30 23 H 2.243711 0.066935 0.071638 0
M  V30 24 H 1.147947 -1.355853 -1.899577 0
M  V30 25 H 0.104802 -2.828283 -2.209658 0
M  V30 26 H -1.842715 -1.946632 -0.950003 0
M  V30 27 H 0.523526 0.966725 -1.286960 0
M  V30 28 H 0.097661 3.170517 -0.361927 0
M  V30 29 H -1.856130 3.454657 1.200989 0
M  V30 30 H -3.212884 1.441757 1.692148 0
M  V30 END ATOM
M  V30 BEGIN BOND
M  V30 1 2 1 2
M  V30 2 1 2 3
M  V30 3 1 3 4
M  V30 4 2 4 5
M  V30 5 1 5 6
M  V30 6 2 6 7
M  V30 7 1 7 8
M  V30 8 2 8 9
M  V30 9 1 9 10
M  V30 10 1 10 11
M  V30 11 1 11 12
M  V30 12 1 12 13
M  V30 13 2 13 14
M  V30 14 1 14 15
M  V30 15 2 15 16
M  V30 16 1 16 17
M  V30 17 2 17 18
M  V30 18 1 10 2
M  V30 19 1 18 13
M  V30 20 1 9 4
M  V30 21 1 12 10
M  V30 22 1 3 19
M  V30 23 1 5 20
M  V30 24 1 6 21
M  V30 25 1 7 22
M  V30 26 1 8 23
M  V30 27 1 11 24
M  V30 28 1 11 25
M  V30 29 1 12 26
M  V30 30 1 14 27
M  V30 31 1 15 28
M  V30 32 1 16 29
M  V30 33 1 17 30
M  V30 END BOND
M  V30 END CTAB
M  END
>  <Dataset>  (908) 
ChEMBL_Kinases

>  <Ligand_Instance>  (908) 
nan

>  <PDB_ID>  (908) 
nan

>  <Standardized_SMILES>  (908) 
O=C1Nc2ccccc2C12CC2c1ccccn1

>  <Name>  (908) 
nan

>  <Pocket>  (908) 
nan

>  <ATP_Site>  (908) 
nan

>  <Peripheral>  (908) 
nan

>  <Num_H_Atoms_ProtBoundConf>  (908) 
nan

>  <Num_Resolved_Atoms>  (908) 
nan

>  <Num_Not_Resolved_Atoms>  (908) 
nan

$$$$
CHEMBL4752171
     RDKit          3D

  0  0  0  0  0  0  0  0  0  0999 V3000
M  V30 BEGIN CTAB
M  V30 COUNTS 48 51 0 0 0
M  V30 BEGIN ATOM
M  V30 1 C 0.441846 -1.929447 -4.055466 0
M  V30 2 S 2.023946 -2.710944 -4.239483 0
M  V30 3 O 1.827380 -4.113624 -4.725926 0
M  V30 4 O 2.844787 -2.005243 -5.286349 0
M  V30 5 N 2.919708 -2.757138 -2.788284 0
M  V30 6 C 3.359405 -1.611802 -2.052284 0
M  V30 7 C 4.676545 -1.587275 -1.583456 0
M  V30 8 C 5.172499 -0.499357 -0.858472 0
M  V30 9 C 4.344427 0.576144 -0.598613 0
M  V30 10 C 3.049375 0.541185 -1.065245 0
M  V30 11 C 2.151680 1.686553 -0.793078 0
M  V30 12 C 1.415832 1.521420 0.486904 0
M  V30 13 O 1.897077 0.389395 0.839539 0
M  V30 14 N 0.483330 2.452423 1.014686 0
M  V30 15 C -0.002711 1.922749 2.264117 0
M  V30 16 N 0.582490 2.177947 3.447374 0
M  V30 17 C 0.069994 1.641894 4.587811 0
M  V30 18 C -1.045678 0.857154 4.408954 0
M  V30 19 C -1.697140 0.549618 3.250848 0
M  V30 20 C -2.869574 -0.246131 3.006746 0
M  V30 21 C -3.447256 -0.250374 1.727522 0
M  V30 22 N -4.508946 -1.060078 1.727181 0
M  V30 23 C -4.703692 -1.620109 2.930901 0
M  V30 24 N -5.576901 -2.479870 3.472779 0
M  V30 25 C -5.500684 -2.873050 4.764197 0
M  V30 26 C -4.474257 -2.357330 5.541594 0
M  V30 27 C -3.594169 -1.486828 4.984909 0
M  V30 28 C -3.680749 -1.098289 3.687220 0
M  V30 29 N -1.079845 1.147096 2.215965 0
M  V30 30 C 2.567178 -0.536669 -1.780269 0
M  V30 31 H -0.225772 -2.311084 -4.880815 0
M  V30 32 H 0.531507 -0.838406 -4.255893 0
M  V30 33 H 0.031709 -2.172148 -3.070680 0
M  V30 34 H 3.206224 -3.651951 -2.340973 0
M  V30 35 H 5.366629 -2.402562 -1.758690 0
M  V30 36 H 6.181356 -0.461375 -0.489693 0
M  V30 37 H 4.702303 1.436866 -0.037113 0
M  V30 38 H 1.407050 1.727573 -1.596645 0
M  V30 39 H 2.723343 2.627857 -0.822185 0
M  V30 40 H 0.377693 3.271625 0.389602 0
M  V30 41 H 0.498336 1.814224 5.559280 0
M  V30 42 H -1.431847 0.460934 5.327803 0
M  V30 43 H -3.183044 0.267379 0.800774 0
M  V30 44 H -5.156677 -1.277706 0.920511 0
M  V30 45 H -6.237561 -3.563479 5.121547 0
M  V30 46 H -4.425834 -2.680219 6.569265 0
M  V30 47 H -2.829545 -1.141621 5.642678 0
M  V30 48 H 1.562258 -0.513140 -2.116369 0
M  V30 END ATOM
M  V30 BEGIN BOND
M  V30 1 1 1 2
M  V30 2 2 2 3
M  V30 3 2 2 4
M  V30 4 1 2 5
M  V30 5 1 5 6
M  V30 6 2 6 7
M  V30 7 1 7 8
M  V30 8 2 8 9
M  V30 9 1 9 10
M  V30 10 1 10 11
M  V30 11 1 11 12
M  V30 12 2 12 13
M  V30 13 1 12 14
M  V30 14 1 14 15
M  V30 15 2 15 16
M  V30 16 1 16 17
M  V30 17 2 17 18
M  V30 18 1 18 19
M  V30 19 1 19 20
M  V30 20 2 20 21
M  V30 21 1 21 22
M  V30 22 1 22 23
M  V30 23 2 23 24
M  V30 24 1 24 25
M  V30 25 2 25 26
M  V30 26 1 26 27
M  V30 27 2 27 28
M  V30 28 2 19 29
M  V30 29 2 10 30
M  V30 30 1 30 6
M  V30 31 1 29 15
M  V30 32 1 28 20
M  V30 33 1 28 23
M  V30 34 1 1 31
M  V30 35 1 1 32
M  V30 36 1 1 33
M  V30 37 1 5 34
M  V30 38 1 7 35
M  V30 39 1 8 36
M  V30 40 1 9 37
M  V30 41 1 11 38
M  V30 42 1 11 39
M  V30 43 1 14 40
M  V30 44 1 17 41
M  V30 45 1 18 42
M  V30 46 1 21 43
M  V30 47 1 22 44
M  V30 48 1 25 45
M  V30 49 1 26 46
M  V30 50 1 27 47
M  V30 51 1 30 48
M  V30 END BOND
M  V30 END CTAB
M  END
>  <Dataset>  (909) 
ChEMBL_Kinases

>  <Ligand_Instance>  (909) 
nan

>  <PDB_ID>  (909) 
nan

>  <Standardized_SMILES>  (909) 
CS(=O)(=O)Nc1cccc(CC(=O)Nc2nccc(-c3c[nH]c4ncccc34)n2)c1

>  <Name>  (909) 
nan

>  <Pocket>  (909) 
nan

>  <ATP_Site>  (909) 
nan

>  <Peripheral>  (909) 
nan

>  <Num_H_Atoms_ProtBoundConf>  (909) 
nan

>  <Num_Resolved_Atoms>  (909) 
nan

>  <Num_Not_Resolved_Atoms>  (909) 
nan

$$$$
CHEMBL4440109
     RDKit          3D

  0  0  0  0  0  0  0  0  0  0999 V3000
M  V30 BEGIN CTAB
M  V30 COUNTS 56 60 0 0 0
M  V30 BEGIN ATOM
M  V30 1 C 0.623140 -0.237875 3.920721 0
M  V30 2 C 1.480246 0.784242 3.241980 0
M  V30 3 C 2.504038 1.397929 3.927176 0
M  V30 4 N 3.196491 2.297680 3.223583 0
M  V30 5 C 2.930303 2.598254 1.942994 0
M  V30 6 N 3.595319 3.503748 1.075668 0
M  V30 7 C 4.464023 2.790429 0.202129 0
M  V30 8 C 4.720169 1.440665 0.092054 0
M  V30 9 C 5.652117 1.176000 -0.921834 0
M  V30 10 N 5.924534 2.393337 -1.387567 0
M  V30 11 N 5.252644 3.337242 -0.755870 0
M  V30 12 C 5.430203 4.712709 -1.125929 0
M  V30 13 N 1.912353 1.968199 1.312116 0
M  V30 14 C 1.141748 1.042919 1.906605 0
M  V30 15 C 0.027118 0.330671 1.284877 0
M  V30 16 C -0.023467 -0.152826 -0.008258 0
M  V30 17 N -1.184513 -0.785555 -0.218544 0
M  V30 18 C -1.883976 -0.712352 0.940740 0
M  V30 19 N -1.136083 -0.023441 1.858752 0
M  V30 20 C -3.192243 -1.356436 1.028376 0
M  V30 21 O -3.800520 -1.253468 2.139590 0
M  V30 22 N -3.704178 -2.054568 -0.117223 0
M  V30 23 C -4.613966 -3.172965 0.159715 0
M  V30 24 C -3.822829 -4.433635 0.181690 0
M  V30 25 C -3.689217 -5.090509 -1.037632 0
M  V30 26 C -2.969727 -6.263870 -1.129038 0
M  V30 27 C -2.363592 -6.824083 -0.035648 0
M  V30 28 F -1.660712 -7.980322 -0.142082 0
M  V30 29 C -2.480914 -6.184836 1.208600 0
M  V30 30 F -1.906725 -6.688772 2.316440 0
M  V30 31 C -3.211898 -4.995375 1.296691 0
M  V30 32 C -3.219804 -1.559888 -1.365447 0 CFG=1
M  V30 33 C -3.811980 -0.238600 -1.784922 0
M  V30 34 C -1.712292 -1.432392 -1.398219 0
M  V30 35 H 1.018638 -0.562338 4.877643 0
M  V30 36 H 0.528202 -1.078558 3.202740 0
M  V30 37 H -0.398312 0.179481 4.111001 0
M  V30 38 H 2.745037 1.183369 4.956278 0
M  V30 39 H 3.549754 4.561287 0.983561 0
M  V30 40 H 4.270050 0.664664 0.703003 0
M  V30 41 H 5.984635 0.191541 -1.168365 0
M  V30 42 H 6.498479 4.926210 -1.426534 0
M  V30 43 H 4.810147 4.999144 -1.997737 0
M  V30 44 H 5.210631 5.430437 -0.308183 0
M  V30 45 H 0.818070 0.000118 -0.705654 0
M  V30 46 H -5.338561 -3.240024 -0.676836 0
M  V30 47 H -5.164771 -3.016928 1.088011 0
M  V30 48 H -4.164174 -4.674765 -1.940424 0
M  V30 49 H -2.888918 -6.752205 -2.112216 0
M  V30 50 H -3.330504 -4.466249 2.233292 0
M  V30 51 H -3.489948 -2.346306 -2.130832 0
M  V30 52 H -4.843507 -0.366306 -2.204151 0
M  V30 53 H -3.822475 0.424387 -0.883382 0
M  V30 54 H -3.143074 0.233917 -2.522932 0
M  V30 55 H -1.401572 -0.951075 -2.347003 0
M  V30 56 H -1.290130 -2.477919 -1.440718 0
M  V30 END ATOM
M  V30 BEGIN BOND
M  V30 1 1 1 2
M  V30 2 2 2 3
M  V30 3 1 3 4
M  V30 4 2 4 5
M  V30 5 1 5 6
M  V30 6 1 6 7
M  V30 7 2 7 8
M  V30 8 1 8 9
M  V30 9 2 9 10
M  V30 10 1 10 11
M  V30 11 1 11 12
M  V30 12 1 5 13
M  V30 13 2 13 14
M  V30 14 1 14 15
M  V30 15 2 15 16
M  V30 16 1 16 17
M  V30 17 1 17 18
M  V30 18 2 18 19
M  V30 19 1 18 20
M  V30 20 2 20 21
M  V30 21 1 20 22
M  V30 22 1 22 23
M  V30 23 1 23 24
M  V30 24 2 24 25
M  V30 25 1 25 26
M  V30 26 2 26 27
M  V30 27 1 27 28
M  V30 28 1 27 29
M  V30 29 1 29 30
M  V30 30 2 29 31
M  V30 31 1 22 32
M  V30 32 1 32 33
M  V30 33 1 32 34
M  V30 34 1 14 2
M  V30 35 1 19 15
M  V30 36 1 31 24
M  V30 37 1 11 7
M  V30 38 1 34 17
M  V30 39 1 1 35
M  V30 40 1 1 36
M  V30 41 1 1 37
M  V30 42 1 3 38
M  V30 43 1 6 39
M  V30 44 1 8 40
M  V30 45 1 9 41
M  V30 46 1 12 42
M  V30 47 1 12 43
M  V30 48 1 12 44
M  V30 49 1 16 45
M  V30 50 1 23 46
M  V30 51 1 23 47
M  V30 52 1 25 48
M  V30 53 1 26 49
M  V30 54 1 31 50
M  V30 55 1 32 51 CFG=3
M  V30 56 1 33 52
M  V30 57 1 33 53
M  V30 58 1 33 54
M  V30 59 1 34 55
M  V30 60 1 34 56
M  V30 END BOND
M  V30 END CTAB
M  END
>  <Dataset>  (910) 
ChEMBL_Kinases

>  <Ligand_Instance>  (910) 
nan

>  <PDB_ID>  (910) 
nan

>  <Standardized_SMILES>  (910) 
Cc1cnc(Nc2ccnn2C)nc1-c1cn2c(n1)C(=O)N(Cc1ccc(F)c(F)c1)[C@@H](C)C2

>  <Name>  (910) 
nan

>  <Pocket>  (910) 
nan

>  <ATP_Site>  (910) 
nan

>  <Peripheral>  (910) 
nan

>  <Num_H_Atoms_ProtBoundConf>  (910) 
nan

>  <Num_Resolved_Atoms>  (910) 
nan

>  <Num_Not_Resolved_Atoms>  (910) 
nan

$$$$
CHEMBL444009
     RDKit          3D

  0  0  0  0  0  0  0  0  0  0999 V3000
M  V30 BEGIN CTAB
M  V30 COUNTS 59 63 0 0 0
M  V30 BEGIN ATOM
M  V30 1 F 0.316543 -5.287511 6.016257 0
M  V30 2 C 0.256869 -4.736296 4.771053 0
M  V30 3 C -1.000561 -4.721931 4.256808 0
M  V30 4 C -1.256767 -4.203621 3.006477 0
M  V30 5 C -0.234083 -3.685944 2.249463 0
M  V30 6 C -0.152934 -3.078818 0.919697 0
M  V30 7 N 0.073381 -1.729785 0.831899 0
M  V30 8 C 0.115862 -1.364847 -0.489987 0
M  V30 9 C 0.329859 0.026505 -0.886556 0
M  V30 10 C 1.781094 0.370246 -1.177201 0
M  V30 11 C 1.902851 1.868857 -0.874735 0
M  V30 12 N 0.738720 2.532402 -1.351532 0
M  V30 13 C 0.732733 3.932004 -1.304271 0
M  V30 14 C 0.677189 4.574818 0.056822 0
M  V30 15 N -0.492625 4.280607 0.825747 0
M  V30 16 C -0.515110 4.945920 2.138594 0
M  V30 17 C -1.263941 3.746011 2.670213 0
M  V30 18 C -0.545374 3.025138 1.531235 0
M  V30 19 C 0.045258 1.899625 -2.412734 0
M  V30 20 C -0.478560 0.518931 -2.035047 0
M  V30 21 C -0.082381 -2.475343 -1.259212 0
M  V30 22 C -0.249339 -3.534314 -0.392567 0
M  V30 23 C -0.499691 -4.948741 -0.636829 0
M  V30 24 C -1.774068 -5.347229 -0.225185 0
M  V30 25 C -2.191896 -6.662472 -0.368973 0
M  V30 26 N -1.366696 -7.575411 -0.911020 0
M  V30 27 C -0.141547 -7.210042 -1.310931 0
M  V30 28 C 0.318000 -5.912140 -1.188022 0
M  V30 29 C 1.067075 -3.701199 2.783397 0
M  V30 30 C 1.320756 -4.228506 4.051218 0
M  V30 31 H -1.882248 -5.096709 4.748817 0
M  V30 32 H -2.185386 -4.116094 2.464965 0
M  V30 33 H 0.196553 -1.082431 1.669179 0
M  V30 34 H 0.079659 0.665036 0.009959 0
M  V30 35 H 2.048971 0.249254 -2.237971 0
M  V30 36 H 2.498615 -0.178382 -0.531309 0
M  V30 37 H 2.795459 2.318100 -1.371661 0
M  V30 38 H 2.008290 2.065893 0.208938 0
M  V30 39 H -0.056633 4.317622 -1.951779 0
M  V30 40 H 1.701482 4.294993 -1.761960 0
M  V30 41 H 1.558695 4.243291 0.686528 0
M  V30 42 H 0.826049 5.686609 -0.015569 0
M  V30 43 H -1.054646 5.894548 2.175519 0
M  V30 44 H 0.503538 4.949873 2.608526 0
M  V30 45 H -2.372316 3.774328 2.526978 0
M  V30 46 H -0.956486 3.387569 3.666640 0
M  V30 47 H -1.261631 2.282633 1.105220 0
M  V30 48 H 0.419893 2.635723 1.894362 0
M  V30 49 H 0.772599 1.729343 -3.242606 0
M  V30 50 H -0.748870 2.546085 -2.784845 0
M  V30 51 H -0.452216 -0.174146 -2.904922 0
M  V30 52 H -1.540743 0.633065 -1.691190 0
M  V30 53 H -0.109288 -2.542402 -2.326613 0
M  V30 54 H -2.545995 -4.754969 0.214496 0
M  V30 55 H -3.166522 -7.043501 -0.072233 0
M  V30 56 H 0.587068 -7.881164 -1.755910 0
M  V30 57 H 1.279402 -5.515424 -1.477137 0
M  V30 58 H 2.006118 -3.343250 2.341797 0
M  V30 59 H 2.288841 -4.277347 4.529251 0
M  V30 END ATOM
M  V30 BEGIN BOND
M  V30 1 1 1 2
M  V30 2 2 2 3
M  V30 3 1 3 4
M  V30 4 2 4 5
M  V30 5 1 5 6
M  V30 6 1 6 7
M  V30 7 1 7 8
M  V30 8 1 8 9
M  V30 9 1 9 10
M  V30 10 1 10 11
M  V30 11 1 11 12
M  V30 12 1 12 13
M  V30 13 1 13 14
M  V30 14 1 14 15
M  V30 15 1 15 16
M  V30 16 1 16 17
M  V30 17 1 17 18
M  V30 18 1 12 19
M  V30 19 1 19 20
M  V30 20 2 8 21
M  V30 21 1 21 22
M  V30 22 1 22 23
M  V30 23 2 23 24
M  V30 24 1 24 25
M  V30 25 2 25 26
M  V30 26 1 26 27
M  V30 27 2 27 28
M  V30 28 1 5 29
M  V30 29 2 29 30
M  V30 30 1 30 2
M  V30 31 2 22 6
M  V30 32 1 28 23
M  V30 33 1 20 9
M  V30 34 1 18 15
M  V30 35 1 3 31
M  V30 36 1 4 32
M  V30 37 1 7 33
M  V30 38 1 9 34
M  V30 39 1 10 35
M  V30 40 1 10 36
M  V30 41 1 11 37
M  V30 42 1 11 38
M  V30 43 1 13 39
M  V30 44 1 13 40
M  V30 45 1 14 41
M  V30 46 1 14 42
M  V30 47 1 16 43
M  V30 48 1 16 44
M  V30 49 1 17 45
M  V30 50 1 17 46
M  V30 51 1 18 47
M  V30 52 1 18 48
M  V30 53 1 19 49
M  V30 54 1 19 50
M  V30 55 1 20 51
M  V30 56 1 20 52
M  V30 57 1 21 53
M  V30 58 1 24 54
M  V30 59 1 25 55
M  V30 60 1 27 56
M  V30 61 1 28 57
M  V30 62 1 29 58
M  V30 63 1 30 59
M  V30 END BOND
M  V30 END CTAB
M  END
>  <Dataset>  (911) 
ChEMBL_Kinases

>  <Ligand_Instance>  (911) 
nan

>  <PDB_ID>  (911) 
nan

>  <Standardized_SMILES>  (911) 
Fc1ccc(-c2[nH]c(C3CCN(CCN4CCC4)CC3)cc2-c2ccncc2)cc1

>  <Name>  (911) 
nan

>  <Pocket>  (911) 
nan

>  <ATP_Site>  (911) 
nan

>  <Peripheral>  (911) 
nan

>  <Num_H_Atoms_ProtBoundConf>  (911) 
nan

>  <Num_Resolved_Atoms>  (911) 
nan

>  <Num_Not_Resolved_Atoms>  (911) 
nan

$$$$
CHEMBL4440084
     RDKit          3D

  0  0  0  0  0  0  0  0  0  0999 V3000
M  V30 BEGIN CTAB
M  V30 COUNTS 62 66 0 0 0
M  V30 BEGIN ATOM
M  V30 1 C 8.250605 -1.599367 4.642668 0
M  V30 2 C 7.125303 -0.763613 4.115167 0
M  V30 3 C 7.421162 0.562159 3.881304 0
M  V30 4 C 6.380805 1.344654 3.391833 0
M  V30 5 C 5.112681 0.867556 3.139948 0
M  V30 6 C 4.093668 1.776472 2.626801 0
M  V30 7 C 2.778666 1.497874 2.313956 0
M  V30 8 C 2.226028 2.688130 1.868381 0
M  V30 9 C 0.849610 2.889333 1.423349 0
M  V30 10 C 0.469487 4.158363 1.012725 0
M  V30 11 C -0.838555 4.399831 0.577850 0
M  V30 12 C -1.750113 3.355170 0.562403 0
M  V30 13 C -1.362543 2.094743 0.973086 0
M  V30 14 N -2.176171 0.925538 1.016412 0
M  V30 15 C -2.236800 0.103005 -0.116370 0
M  V30 16 O -1.524938 0.520118 -1.092756 0
M  V30 17 C -3.001969 -1.118102 -0.261284 0
M  V30 18 C -2.975048 -1.813452 -1.446487 0
M  V30 19 C -3.679064 -2.978737 -1.641398 0
M  V30 20 N -3.653051 -3.697389 -2.864982 0
M  V30 21 C -2.909509 -3.283068 -4.039016 0
M  V30 22 C -3.952184 -2.951186 -5.080478 0
M  V30 23 O -5.222560 -3.367580 -4.750831 0
M  V30 24 C -5.320106 -4.640243 -4.240958 0
M  V30 25 C -4.361379 -4.935552 -3.111602 0
M  V30 26 C -4.422972 -3.418748 -0.571892 0
M  V30 27 C -4.470145 -2.742762 0.630224 0
M  V30 28 C -5.288521 -3.248594 1.774753 0
M  V30 29 F -6.518654 -3.727262 1.333152 0
M  V30 30 F -4.656645 -4.313161 2.381854 0
M  V30 31 F -5.463802 -2.269119 2.731884 0
M  V30 32 C -3.753075 -1.573307 0.800613 0
M  V30 33 C -0.079585 1.877618 1.395028 0
M  V30 34 N 3.167140 3.629092 1.913972 0
M  V30 35 N 4.290385 3.080618 2.370170 0
M  V30 36 C 4.840883 -0.462538 3.381729 0
M  V30 37 C 5.862992 -1.281270 3.874671 0
M  V30 38 H 7.913671 -2.641212 4.704006 0
M  V30 39 H 9.127656 -1.571119 3.965957 0
M  V30 40 H 8.569274 -1.196194 5.648315 0
M  V30 41 H 8.382864 1.037792 4.045136 0
M  V30 42 H 6.587844 2.406059 3.196118 0
M  V30 43 H 2.300083 0.541500 2.405242 0
M  V30 44 H 1.170198 5.003936 1.014404 0
M  V30 45 H -1.203650 5.349888 0.246967 0
M  V30 46 H -2.783579 3.417426 0.249387 0
M  V30 47 H -2.738723 0.640890 1.854922 0
M  V30 48 H -2.367428 -1.395864 -2.228327 0
M  V30 49 H -2.344562 -4.172586 -4.449457 0
M  V30 50 H -2.166901 -2.515230 -3.890724 0
M  V30 51 H -4.003932 -1.823138 -5.103774 0
M  V30 52 H -3.614429 -3.254928 -6.078026 0
M  V30 53 H -5.217920 -5.379756 -5.054861 0
M  V30 54 H -6.360316 -4.721296 -3.815354 0
M  V30 55 H -3.597615 -5.668187 -3.510646 0
M  V30 56 H -4.806888 -5.420614 -2.260250 0
M  V30 57 H -5.016146 -4.311868 -0.594328 0
M  V30 58 H -3.822096 -1.076669 1.765365 0
M  V30 59 H 0.307452 0.925846 1.733075 0
M  V30 60 H 3.109903 4.645033 1.653301 0
M  V30 61 H 3.853000 -0.880744 3.196154 0
M  V30 62 H 5.669029 -2.346429 4.075228 0
M  V30 END ATOM
M  V30 BEGIN BOND
M  V30 1 1 1 2
M  V30 2 2 2 3
M  V30 3 1 3 4
M  V30 4 2 4 5
M  V30 5 1 5 6
M  V30 6 1 6 7
M  V30 7 2 7 8
M  V30 8 1 8 9
M  V30 9 2 9 10
M  V30 10 1 10 11
M  V30 11 2 11 12
M  V30 12 1 12 13
M  V30 13 1 13 14
M  V30 14 1 14 15
M  V30 15 2 15 16
M  V30 16 1 15 17
M  V30 17 2 17 18
M  V30 18 1 18 19
M  V30 19 1 19 20
M  V30 20 1 20 21
M  V30 21 1 21 22
M  V30 22 1 22 23
M  V30 23 1 23 24
M  V30 24 1 24 25
M  V30 25 2 19 26
M  V30 26 1 26 27
M  V30 27 1 27 28
M  V30 28 1 28 29
M  V30 29 1 28 30
M  V30 30 1 28 31
M  V30 31 2 27 32
M  V30 32 2 13 33
M  V30 33 1 8 34
M  V30 34 1 34 35
M  V30 35 1 5 36
M  V30 36 2 36 37
M  V30 37 1 37 2
M  V30 38 2 35 6
M  V30 39 1 33 9
M  V30 40 1 32 17
M  V30 41 1 25 20
M  V30 42 1 1 38
M  V30 43 1 1 39
M  V30 44 1 1 40
M  V30 45 1 3 41
M  V30 46 1 4 42
M  V30 47 1 7 43
M  V30 48 1 10 44
M  V30 49 1 11 45
M  V30 50 1 12 46
M  V30 51 1 14 47
M  V30 52 1 18 48
M  V30 53 1 21 49
M  V30 54 1 21 50
M  V30 55 1 22 51
M  V30 56 1 22 52
M  V30 57 1 24 53
M  V30 58 1 24 54
M  V30 59 1 25 55
M  V30 60 1 25 56
M  V30 61 1 26 57
M  V30 62 1 32 58
M  V30 63 1 33 59
M  V30 64 1 34 60
M  V30 65 1 36 61
M  V30 66 1 37 62
M  V30 END BOND
M  V30 END CTAB
M  END
>  <Dataset>  (912) 
ChEMBL_Kinases

>  <Ligand_Instance>  (912) 
nan

>  <PDB_ID>  (912) 
nan

>  <Standardized_SMILES>  (912) 
Cc1ccc(-c2cc(-c3cccc(NC(=O)c4cc(N5CCOCC5)cc(C(F)(F)F)c4)c3)[nH]n2)cc1

>  <Name>  (912) 
nan

>  <Pocket>  (912) 
nan

>  <ATP_Site>  (912) 
nan

>  <Peripheral>  (912) 
nan

>  <Num_H_Atoms_ProtBoundConf>  (912) 
nan

>  <Num_Resolved_Atoms>  (912) 
nan

>  <Num_Not_Resolved_Atoms>  (912) 
nan

$$$$
CHEMBL4752190
     RDKit          3D

  0  0  0  0  0  0  0  0  0  0999 V3000
M  V30 BEGIN CTAB
M  V30 COUNTS 159 165 0 0 0
M  V30 BEGIN ATOM
M  V30 1 C 6.026465 -0.106903 -4.114307 0
M  V30 2 C 6.798241 -0.098844 -2.851828 0
M  V30 3 N 7.972871 -0.251878 -2.563084 0
M  V30 4 C 8.869641 -0.323674 -1.775806 0
M  V30 5 S 7.597441 -0.030539 -0.471607 0
M  V30 6 C 6.213192 0.090024 -1.585585 0
M  V30 7 C 4.893502 0.341836 -1.110983 0
M  V30 8 C 4.668227 0.299320 0.260112 0
M  V30 9 C 3.410717 0.628006 0.784204 0
M  V30 10 C 2.340520 1.004471 0.000308 0
M  V30 11 C 1.163136 1.351789 0.817091 0
M  V30 12 N 0.244406 0.293030 1.107220 0
M  V30 13 C -0.748446 -0.252858 0.278932 0
M  V30 14 O -0.609442 0.435219 -0.786248 0
M  V30 15 C -1.687932 -1.332405 0.582467 0 CFG=2
M  V30 16 C -1.902530 -2.045096 -0.796599 0
M  V30 17 C -3.004015 -1.220397 -1.403441 0 CFG=1
M  V30 18 O -4.130150 -1.993566 -1.698626 0
M  V30 19 C -3.325456 -0.223271 -0.290813 0
M  V30 20 N -3.034001 -0.986856 0.901223 0
M  V30 21 C -4.057831 -1.218403 1.883037 0
M  V30 22 O -4.814539 -0.638403 1.125731 0
M  V30 23 C -4.360689 -1.783938 3.158147 0 CFG=1
M  V30 24 N -3.235698 -2.202463 3.927274 0
M  V30 25 C -2.612722 -3.429618 4.275591 0
M  V30 26 O -3.019730 -4.563610 3.863933 0
M  V30 27 C -1.442243 -3.602306 5.156330 0
M  V30 28 O -0.864319 -2.504631 5.681094 0
M  V30 29 C -0.151298 -1.739309 4.828222 0
M  V30 30 C 0.360919 -0.510156 5.593367 0
M  V30 31 O 1.089960 0.237553 4.722419 0
M  V30 32 C 1.659066 1.389053 5.152580 0
M  V30 33 C 0.562362 2.406863 5.533551 0
M  V30 34 O 1.145938 3.547856 5.960595 0
M  V30 35 C 0.348423 4.596536 6.246235 0
M  V30 36 C -0.391029 5.003205 4.921104 0
M  V30 37 O 0.593226 5.256421 4.061489 0
M  V30 38 C 0.669353 5.734675 2.872564 0
M  V30 39 C 0.038984 5.106698 1.686864 0
M  V30 40 O -1.334703 4.995652 1.618647 0
M  V30 41 C -1.567638 4.220620 0.454646 0
M  V30 42 C -2.926443 4.305922 -0.111167 0
M  V30 43 O -3.070058 3.465477 -1.224176 0
M  V30 44 C -1.894341 3.415378 -1.977398 0
M  V30 45 C -2.153582 2.522665 -3.104882 0
M  V30 46 O -3.354733 2.425872 -2.699346 0
M  V30 47 N -1.944144 1.755579 -4.266750 0
M  V30 48 C -3.076591 1.028254 -4.794475 0
M  V30 49 C -2.761137 -0.401882 -5.164823 0
M  V30 50 N -1.328596 -0.603362 -4.985027 0
M  V30 51 C -0.860012 -1.884624 -5.465842 0 CFG=1
M  V30 52 C 0.599429 -2.039069 -5.114104 0
M  V30 53 C 1.060505 -3.355920 -5.763856 0
M  V30 54 C 0.541411 -4.437125 -4.844889 0 CFG=1
M  V30 55 N 1.342706 -4.466353 -3.608220 0
M  V30 56 C 2.711864 -4.497018 -3.251351 0
M  V30 57 N 3.518808 -4.518616 -4.318785 0
M  V30 58 C 4.862123 -4.395190 -4.088223 0
M  V30 59 N 5.330274 -4.251563 -2.842307 0
M  V30 60 N 4.470803 -4.237522 -1.826240 0
M  V30 61 C 4.636035 -4.113888 -0.494061 0
M  V30 62 C 3.436784 -4.174073 0.153679 0
M  V30 63 C 2.423116 -4.343232 -0.812022 0
M  V30 64 C 1.011734 -4.506598 -0.422518 0
M  V30 65 C 0.910310 -4.247539 1.104443 0
M  V30 66 C 0.637325 -5.984651 -0.523868 0
M  V30 67 C 3.163978 -4.360865 -1.959497 0
M  V30 68 C -0.887309 -4.249756 -4.481346 0
M  V30 69 C -1.613895 -3.069203 -4.989685 0
M  V30 70 C -0.725231 0.431426 -5.836722 0
M  V30 71 C -0.649147 1.680064 -4.941291 0
M  V30 72 C -5.358407 -1.092783 4.036329 0
M  V30 73 C -6.713505 -1.011095 3.411255 0
M  V30 74 C -4.953306 0.321903 4.390439 0
M  V30 75 C -5.479160 -1.833357 5.350280 0
M  V30 76 C 2.561090 1.045235 -1.386178 0
M  V30 77 C 3.819475 0.711097 -1.840866 0
M  V30 78 H 5.181256 -0.845669 -4.059906 0
M  V30 79 H 6.647569 -0.500063 -4.962055 0
M  V30 80 H 5.725576 0.905830 -4.427319 0
M  V30 81 H 9.917294 -0.479142 -1.784893 0
M  V30 82 H 5.462636 -0.000095 0.963119 0
M  V30 83 H 3.371436 0.551224 1.860978 0
M  V30 84 H 0.620541 2.129402 0.189081 0
M  V30 85 H 1.432416 1.925018 1.731451 0
M  V30 86 H 0.367313 -0.114660 2.093371 0
M  V30 87 H -1.224475 -2.034469 1.290917 0
M  V30 88 H -2.193876 -3.059639 -0.545208 0
M  V30 89 H -0.997910 -1.944755 -1.391082 0
M  V30 90 H -2.741829 -0.675144 -2.308104 0
M  V30 91 H -4.677111 -1.639846 -2.441770 0
M  V30 92 H -2.757810 0.691774 -0.406057 0
M  V30 93 H -4.423436 -0.015499 -0.443511 0
M  V30 94 H -4.876073 -2.805194 2.890171 0
M  V30 95 H -2.891465 -1.304308 4.278171 0
M  V30 96 H -1.703767 -4.362948 5.944512 0
M  V30 97 H -0.680746 -4.158516 4.530147 0
M  V30 98 H -0.691312 -1.497812 3.916035 0
M  V30 99 H 0.801288 -2.233083 4.473008 0
M  V30 100 H -0.471681 0.025813 6.083729 0
M  V30 101 H 1.023285 -0.846839 6.428180 0
M  V30 102 H 2.324515 1.288572 6.040096 0
M  V30 103 H 2.259077 1.797607 4.288960 0
M  V30 104 H -0.002366 1.934357 6.372908 0
M  V30 105 H -0.089035 2.450049 4.665751 0
M  V30 106 H 0.939206 5.439459 6.606142 0
M  V30 107 H -0.443022 4.298891 6.988530 0
M  V30 108 H -0.969380 5.906741 5.261964 0
M  V30 109 H -1.096457 4.200715 4.741809 0
M  V30 110 H 1.778415 5.842558 2.582148 0
M  V30 111 H 0.345069 6.848065 2.797514 0
M  V30 112 H 0.535491 4.130874 1.405148 0
M  V30 113 H 0.312384 5.766704 0.801397 0
M  V30 114 H -1.378086 3.185402 0.769450 0
M  V30 115 H -0.798158 4.619478 -0.265240 0
M  V30 116 H -3.245098 5.332826 -0.389124 0
M  V30 117 H -3.722453 3.943503 0.604076 0
M  V30 118 H -1.641706 4.420569 -2.339599 0
M  V30 119 H -1.048167 3.015548 -1.341139 0
M  V30 120 H -3.364695 1.588554 -5.735688 0
M  V30 121 H -3.942671 1.090016 -4.098882 0
M  V30 122 H -2.978776 -0.554992 -6.254119 0
M  V30 123 H -3.392931 -1.062765 -4.578094 0
M  V30 124 H -0.898585 -1.798640 -6.582154 0
M  V30 125 H 1.272744 -1.281072 -5.507288 0
M  V30 126 H 0.750792 -2.148565 -4.002051 0
M  V30 127 H 2.160745 -3.307537 -5.805833 0
M  V30 128 H 0.574311 -3.422769 -6.739180 0
M  V30 129 H 0.686167 -5.430553 -5.311629 0
M  V30 130 H 0.694687 -4.453362 -2.835759 0
M  V30 131 H 5.717237 -4.402273 -4.783698 0
M  V30 132 H 5.648539 -3.989513 -0.072501 0
M  V30 133 H 3.425199 -4.094462 1.231849 0
M  V30 134 H 0.293845 -3.818660 -0.836528 0
M  V30 135 H 1.246363 -3.247338 1.370539 0
M  V30 136 H 1.622330 -4.980470 1.565669 0
M  V30 137 H -0.098576 -4.513190 1.439351 0
M  V30 138 H 0.080553 -6.237572 -1.430834 0
M  V30 139 H 0.136153 -6.354121 0.368453 0
M  V30 140 H 1.601946 -6.543203 -0.600691 0
M  V30 141 H -1.450553 -5.165394 -4.849650 0
M  V30 142 H -0.998453 -4.356240 -3.352734 0
M  V30 143 H -2.270691 -3.405386 -5.858177 0
M  V30 144 H -2.382348 -2.799213 -4.207269 0
M  V30 145 H 0.208642 0.163111 -6.301987 0
M  V30 146 H -1.441006 0.707431 -6.648579 0
M  V30 147 H -0.554177 2.577386 -5.610365 0
M  V30 148 H 0.201684 1.644126 -4.245469 0
M  V30 149 H -6.623964 -1.107038 2.314259 0
M  V30 150 H -7.358915 -1.829142 3.829729 0
M  V30 151 H -7.169308 -0.018542 3.623701 0
M  V30 152 H -4.928317 1.008841 3.543511 0
M  V30 153 H -5.720146 0.701573 5.097922 0
M  V30 154 H -3.988414 0.335773 4.974918 0
M  V30 155 H -4.600141 -1.659257 6.021048 0
M  V30 156 H -6.337282 -1.340825 5.885322 0
M  V30 157 H -5.708079 -2.891474 5.205929 0
M  V30 158 H 1.683498 1.350701 -1.915006 0
M  V30 159 H 3.914793 0.776623 -2.928158 0
M  V30 END ATOM
M  V30 BEGIN BOND
M  V30 1 1 1 2
M  V30 2 1 2 3
M  V30 3 2 3 4
M  V30 4 1 4 5
M  V30 5 1 5 6
M  V30 6 1 6 7
M  V30 7 2 7 8
M  V30 8 1 8 9
M  V30 9 2 9 10
M  V30 10 1 10 11
M  V30 11 1 11 12
M  V30 12 1 12 13
M  V30 13 2 13 14
M  V30 14 1 13 15
M  V30 15 1 15 16
M  V30 16 1 16 17
M  V30 17 1 17 18
M  V30 18 1 17 19
M  V30 19 1 19 20
M  V30 20 1 20 21
M  V30 21 2 21 22
M  V30 22 1 21 23
M  V30 23 1 23 24
M  V30 24 1 24 25
M  V30 25 2 25 26
M  V30 26 1 25 27
M  V30 27 1 27 28
M  V30 28 1 28 29
M  V30 29 1 29 30
M  V30 30 1 30 31
M  V30 31 1 31 32
M  V30 32 1 32 33
M  V30 33 1 33 34
M  V30 34 1 34 35
M  V30 35 1 35 36
M  V30 36 1 36 37
M  V30 37 1 37 38
M  V30 38 1 38 39
M  V30 39 1 39 40
M  V30 40 1 40 41
M  V30 41 1 41 42
M  V30 42 1 42 43
M  V30 43 1 43 44
M  V30 44 1 44 45
M  V30 45 2 45 46
M  V30 46 1 45 47
M  V30 47 1 47 48
M  V30 48 1 48 49
M  V30 49 1 49 50
M  V30 50 1 50 51
M  V30 51 1 51 52
M  V30 52 1 52 53
M  V30 53 1 53 54
M  V30 54 1 54 55
M  V30 55 1 55 56
M  V30 56 2 56 57
M  V30 57 1 57 58
M  V30 58 2 58 59
M  V30 59 1 59 60
M  V30 60 1 60 61
M  V30 61 2 61 62
M  V30 62 1 62 63
M  V30 63 1 63 64
M  V30 64 1 64 65
M  V30 65 1 64 66
M  V30 66 2 63 67
M  V30 67 1 54 68
M  V30 68 1 68 69
M  V30 69 1 50 70
M  V30 70 1 70 71
M  V30 71 1 23 72
M  V30 72 1 72 73
M  V30 73 1 72 74
M  V30 74 1 72 75
M  V30 75 1 10 76
M  V30 76 2 76 77
M  V30 77 2 6 2
M  V30 78 1 77 7
M  V30 79 1 20 15
M  V30 80 1 71 47
M  V30 81 1 69 51
M  V30 82 1 67 56
M  V30 83 1 67 60
M  V30 84 1 1 78
M  V30 85 1 1 79
M  V30 86 1 1 80
M  V30 87 1 4 81
M  V30 88 1 8 82
M  V30 89 1 9 83
M  V30 90 1 11 84
M  V30 91 1 11 85
M  V30 92 1 12 86
M  V30 93 1 15 87 CFG=1
M  V30 94 1 16 88
M  V30 95 1 16 89
M  V30 96 1 17 90 CFG=3
M  V30 97 1 18 91
M  V30 98 1 19 92
M  V30 99 1 19 93
M  V30 100 1 23 94 CFG=3
M  V30 101 1 24 95
M  V30 102 1 27 96
M  V30 103 1 27 97
M  V30 104 1 29 98
M  V30 105 1 29 99
M  V30 106 1 30 100
M  V30 107 1 30 101
M  V30 108 1 32 102
M  V30 109 1 32 103
M  V30 110 1 33 104
M  V30 111 1 33 105
M  V30 112 1 35 106
M  V30 113 1 35 107
M  V30 114 1 36 108
M  V30 115 1 36 109
M  V30 116 1 38 110
M  V30 117 1 38 111
M  V30 118 1 39 112
M  V30 119 1 39 113
M  V30 120 1 41 114
M  V30 121 1 41 115
M  V30 122 1 42 116
M  V30 123 1 42 117
M  V30 124 1 44 118
M  V30 125 1 44 119
M  V30 126 1 48 120
M  V30 127 1 48 121
M  V30 128 1 49 122
M  V30 129 1 49 123
M  V30 130 1 51 124 CFG=3
M  V30 131 1 52 125
M  V30 132 1 52 126
M  V30 133 1 53 127
M  V30 134 1 53 128
M  V30 135 1 54 129 CFG=3
M  V30 136 1 55 130
M  V30 137 1 58 131
M  V30 138 1 61 132
M  V30 139 1 62 133
M  V30 140 1 64 134
M  V30 141 1 65 135
M  V30 142 1 65 136
M  V30 143 1 65 137
M  V30 144 1 66 138
M  V30 145 1 66 139
M  V30 146 1 66 140
M  V30 147 1 68 141
M  V30 148 1 68 142
M  V30 149 1 69 143
M  V30 150 1 69 144
M  V30 151 1 70 145
M  V30 152 1 70 146
M  V30 153 1 71 147
M  V30 154 1 71 148
M  V30 155 1 73 149
M  V30 156 1 73 150
M  V30 157 1 73 151
M  V30 158 1 74 152
M  V30 159 1 74 153
M  V30 160 1 74 154
M  V30 161 1 75 155
M  V30 162 1 75 156
M  V30 163 1 75 157
M  V30 164 1 76 158
M  V30 165 1 77 159
M  V30 END BOND
M  V30 END CTAB
M  END
>  <Dataset>  (913) 
ChEMBL_Kinases

>  <Ligand_Instance>  (913) 
nan

>  <PDB_ID>  (913) 
nan

>  <Standardized_SMILES>  (913) 
Cc1ncsc1-c1ccc(CNC(=O)[C@@H]2C[C@@H](O)CN2C(=O)[C@@H](NC(=O)COCCOCCOCCOCCOCCOCC(=O)N2CCN([C@H]3CC[C@@H](Nc4ncnn5ccc(C(C)C)c45)CC3)CC2)C(C)(C)C)cc1

>  <Name>  (913) 
nan

>  <Pocket>  (913) 
nan

>  <ATP_Site>  (913) 
nan

>  <Peripheral>  (913) 
nan

>  <Num_H_Atoms_ProtBoundConf>  (913) 
nan

>  <Num_Resolved_Atoms>  (913) 
nan

>  <Num_Not_Resolved_Atoms>  (913) 
nan

$$$$
CHEMBL4440048
     RDKit          3D

  0  0  0  0  0  0  0  0  0  0999 V3000
M  V30 BEGIN CTAB
M  V30 COUNTS 50 53 0 0 0
M  V30 BEGIN ATOM
M  V30 1 C 6.319671 -2.432326 3.973241 0
M  V30 2 C 6.079784 -3.422739 2.886242 0
M  V30 3 C 4.952668 -4.385920 3.188669 0
M  V30 4 S 5.908439 -2.709985 1.274488 0
M  V30 5 O 7.153760 -1.984756 0.857228 0
M  V30 6 O 5.730949 -3.854456 0.303267 0
M  V30 7 C 4.557352 -1.653153 1.103687 0
M  V30 8 C 4.681214 -0.304113 1.367342 0
M  V30 9 C 3.580770 0.514539 1.221045 0
M  V30 10 C 2.338194 0.073769 0.821704 0
M  V30 11 C 1.175577 0.938952 0.667199 0
M  V30 12 C 1.246699 2.291119 0.917565 0
M  V30 13 N 0.101451 3.013105 0.743017 0
M  V30 14 C -1.038708 2.417469 0.343876 0
M  V30 15 N -2.190883 3.230582 0.183174 0
M  V30 16 C -1.122814 1.070997 0.091102 0
M  V30 17 C -2.322942 0.372471 -0.341221 0
M  V30 18 C -3.596613 0.825148 -0.595436 0
M  V30 19 C -4.404418 -0.226352 -0.986023 0
M  V30 20 C -5.819422 -0.138830 -1.339545 0
M  V30 21 C -6.485811 1.067602 -1.306454 0
M  V30 22 C -7.820167 1.110230 -1.646611 0
M  V30 23 C -8.468395 -0.042411 -2.012810 0
M  V30 24 C -7.849960 -1.256953 -2.059781 0
M  V30 25 C -6.498343 -1.278249 -1.711473 0
M  V30 26 N -3.577215 -1.276093 -0.950414 0
M  V30 27 O -2.397995 -0.914634 -0.581311 0
M  V30 28 N 0.019180 0.386486 0.271226 0
M  V30 29 C 2.263255 -1.279746 0.570031 0
M  V30 30 C 3.340038 -2.163115 0.699061 0
M  V30 31 H 6.025564 -1.393041 3.727179 0
M  V30 32 H 5.713792 -2.727494 4.876324 0
M  V30 33 H 7.368842 -2.444680 4.333510 0
M  V30 34 H 7.000540 -4.074747 2.820173 0
M  V30 35 H 5.263840 -5.172654 3.919463 0
M  V30 36 H 4.062626 -3.817427 3.556475 0
M  V30 37 H 4.665087 -4.903720 2.258526 0
M  V30 38 H 5.630282 0.078752 1.680294 0
M  V30 39 H 3.738338 1.550229 1.439736 0
M  V30 40 H 2.145330 2.781248 1.235708 0
M  V30 41 H -2.167683 3.428118 -0.859737 0
M  V30 42 H -2.797237 3.472578 1.007907 0
M  V30 43 H -3.935202 1.839029 -0.509927 0
M  V30 44 H -5.983157 1.992402 -1.017181 0
M  V30 45 H -8.349912 2.054258 -1.622874 0
M  V30 46 H -9.518582 0.024478 -2.274819 0
M  V30 47 H -8.413835 -2.122181 -2.354795 0
M  V30 48 H -5.984918 -2.239302 -1.742370 0
M  V30 49 H 1.342707 -1.737707 0.251633 0
M  V30 50 H 3.239784 -3.218214 0.491957 0
M  V30 END ATOM
M  V30 BEGIN BOND
M  V30 1 1 1 2
M  V30 2 1 2 3
M  V30 3 1 2 4
M  V30 4 2 4 5
M  V30 5 2 4 6
M  V30 6 1 4 7
M  V30 7 2 7 8
M  V30 8 1 8 9
M  V30 9 2 9 10
M  V30 10 1 10 11
M  V30 11 2 11 12
M  V30 12 1 12 13
M  V30 13 2 13 14
M  V30 14 1 14 15
M  V30 15 1 14 16
M  V30 16 1 16 17
M  V30 17 2 17 18
M  V30 18 1 18 19
M  V30 19 1 19 20
M  V30 20 2 20 21
M  V30 21 1 21 22
M  V30 22 2 22 23
M  V30 23 1 23 24
M  V30 24 2 24 25
M  V30 25 2 19 26
M  V30 26 1 26 27
M  V30 27 2 16 28
M  V30 28 1 10 29
M  V30 29 2 29 30
M  V30 30 1 30 7
M  V30 31 1 28 11
M  V30 32 1 27 17
M  V30 33 1 25 20
M  V30 34 1 1 31
M  V30 35 1 1 32
M  V30 36 1 1 33
M  V30 37 1 2 34
M  V30 38 1 3 35
M  V30 39 1 3 36
M  V30 40 1 3 37
M  V30 41 1 8 38
M  V30 42 1 9 39
M  V30 43 1 12 40
M  V30 44 1 15 41
M  V30 45 1 15 42
M  V30 46 1 18 43
M  V30 47 1 21 44
M  V30 48 1 22 45
M  V30 49 1 23 46
M  V30 50 1 24 47
M  V30 51 1 25 48
M  V30 52 1 29 49
M  V30 53 1 30 50
M  V30 END BOND
M  V30 END CTAB
M  END
>  <Dataset>  (914) 
ChEMBL_Kinases

>  <Ligand_Instance>  (914) 
nan

>  <PDB_ID>  (914) 
nan

>  <Standardized_SMILES>  (914) 
CC(C)S(=O)(=O)c1ccc(-c2cnc(N)c(-c3cc(-c4ccccc4)no3)n2)cc1

>  <Name>  (914) 
nan

>  <Pocket>  (914) 
nan

>  <ATP_Site>  (914) 
nan

>  <Peripheral>  (914) 
nan

>  <Num_H_Atoms_ProtBoundConf>  (914) 
nan

>  <Num_Resolved_Atoms>  (914) 
nan

>  <Num_Not_Resolved_Atoms>  (914) 
nan

$$$$
CHEMBL4439996
     RDKit          3D

  0  0  0  0  0  0  0  0  0  0999 V3000
M  V30 BEGIN CTAB
M  V30 COUNTS 40 41 0 0 0
M  V30 BEGIN ATOM
M  V30 1 C 0.615689 -4.057292 -0.332750 0
M  V30 2 O -0.326483 -3.514298 0.564055 0
M  V30 3 C -0.203931 -2.181607 0.924981 0
M  V30 4 C 0.813517 -1.435330 0.409594 0
M  V30 5 C 0.962701 -0.110571 0.747747 0
M  V30 6 N 2.026299 0.628654 0.196695 0
M  V30 7 S 3.113130 -0.054540 -0.929415 0
M  V30 8 O 4.174223 0.980797 -1.276947 0
M  V30 9 O 3.819408 -1.218404 -0.283192 0
M  V30 10 C 2.396567 -0.576848 -2.376803 0
M  V30 11 C 2.276765 -1.778980 -3.060790 0
M  V30 12 C 1.611746 -1.848415 -4.240671 0
M  V30 13 C 1.053491 -0.623062 -4.722460 0
M  V30 14 S 1.517931 0.619651 -3.425206 0
M  V30 15 C 0.045736 0.391990 1.612322 0
M  V30 16 S 0.276811 2.109770 2.022137 0
M  V30 17 C 1.347361 2.326576 3.459717 0
M  V30 18 C -1.002581 -0.292055 2.172257 0
M  V30 19 C -2.004435 0.185755 3.093261 0
M  V30 20 C -2.295255 1.303929 3.695521 0
M  V30 21 C -3.383316 1.594891 4.617805 0
M  V30 22 O -4.225482 0.724973 4.957258 0
M  V30 23 O -3.498029 2.863908 5.138353 0
M  V30 24 C -1.097613 -1.614943 1.793740 0
M  V30 25 O -2.099855 -2.453601 2.266169 0
M  V30 26 H 1.646986 -3.904967 0.086470 0
M  V30 27 H 0.554150 -3.597019 -1.332267 0
M  V30 28 H 0.487035 -5.142757 -0.478789 0
M  V30 29 H 1.507053 -1.903293 -0.273479 0
M  V30 30 H 2.134507 1.639211 0.506737 0
M  V30 31 H 2.763204 -2.586482 -2.537914 0
M  V30 32 H 1.520879 -2.783597 -4.768618 0
M  V30 33 H 0.487239 -0.629291 -5.706218 0
M  V30 34 H 0.996398 3.211857 4.023711 0
M  V30 35 H 1.303936 1.460116 4.143902 0
M  V30 36 H 2.360008 2.539447 3.100670 0
M  V30 37 H -2.779408 -0.518911 3.438318 0
M  V30 38 H -1.599428 2.080384 3.435053 0
M  V30 39 H -4.396498 3.271725 5.425149 0
M  V30 40 H -2.696977 -2.955814 1.619724 0
M  V30 END ATOM
M  V30 BEGIN BOND
M  V30 1 1 1 2
M  V30 2 1 2 3
M  V30 3 2 3 4
M  V30 4 1 4 5
M  V30 5 1 5 6
M  V30 6 1 6 7
M  V30 7 2 7 8
M  V30 8 2 7 9
M  V30 9 1 7 10
M  V30 10 2 10 11
M  V30 11 1 11 12
M  V30 12 2 12 13
M  V30 13 1 13 14
M  V30 14 2 5 15
M  V30 15 1 15 16
M  V30 16 1 16 17
M  V30 17 1 15 18
M  V30 18 1 18 19
M  V30 19 2 19 20
M  V30 20 1 20 21
M  V30 21 2 21 22
M  V30 22 1 21 23
M  V30 23 2 18 24
M  V30 24 1 24 25
M  V30 25 1 24 3
M  V30 26 1 14 10
M  V30 27 1 1 26
M  V30 28 1 1 27
M  V30 29 1 1 28
M  V30 30 1 4 29
M  V30 31 1 6 30
M  V30 32 1 11 31
M  V30 33 1 12 32
M  V30 34 1 13 33
M  V30 35 1 17 34
M  V30 36 1 17 35
M  V30 37 1 17 36
M  V30 38 1 19 37
M  V30 39 1 20 38
M  V30 40 1 23 39
M  V30 41 1 25 40
M  V30 END BOND
M  V30 END CTAB
M  END
>  <Dataset>  (915) 
ChEMBL_Kinases

>  <Ligand_Instance>  (915) 
nan

>  <PDB_ID>  (915) 
nan

>  <Standardized_SMILES>  (915) 
COc1cc(NS(=O)(=O)c2cccs2)c(SC)c(/C=C/C(=O)O)c1O

>  <Name>  (915) 
nan

>  <Pocket>  (915) 
nan

>  <ATP_Site>  (915) 
nan

>  <Peripheral>  (915) 
nan

>  <Num_H_Atoms_ProtBoundConf>  (915) 
nan

>  <Num_Resolved_Atoms>  (915) 
nan

>  <Num_Not_Resolved_Atoms>  (915) 
nan

$$$$
CHEMBL4440271
     RDKit          3D

  0  0  0  0  0  0  0  0  0  0999 V3000
M  V30 BEGIN CTAB
M  V30 COUNTS 53 56 0 0 0
M  V30 BEGIN ATOM
M  V30 1 O 2.287035 -0.878380 -0.569322 0
M  V30 2 C 1.100390 -1.251468 -0.336898 0
M  V30 3 N 0.944898 -2.573619 -0.784995 0
M  V30 4 C 2.096101 -3.204111 -1.383779 0
M  V30 5 C 2.996139 -3.907487 -0.629259 0
M  V30 6 C 4.032324 -4.443495 -1.365657 0
M  V30 7 N 4.163758 -4.299306 -2.699974 0
M  V30 8 N 3.292494 -3.619147 -3.425504 0
M  V30 9 C 2.247293 -3.067381 -2.750314 0
M  V30 10 C 0.159083 -0.348200 0.298138 0
M  V30 11 C 0.607094 0.910942 0.632603 0
M  V30 12 C -0.190311 1.837388 1.231662 0
M  V30 13 N 0.305652 3.142648 1.564165 0
M  V30 14 C -0.401865 4.087038 2.401362 0
M  V30 15 C 0.591081 4.687158 3.368937 0
M  V30 16 C 1.831922 3.832007 3.547408 0
M  V30 17 C 2.582629 3.726117 2.230739 0
M  V30 18 C 1.585714 3.648666 1.076286 0
M  V30 19 C -1.502867 1.548213 1.533407 0
M  V30 20 C -2.003299 0.301766 1.220232 0
M  V30 21 C -1.151344 -0.596424 0.614852 0
M  V30 22 O -1.668433 -1.842164 0.307900 0
M  V30 23 C -2.984339 -2.247852 0.566001 0
M  V30 24 C -3.181793 -3.652013 0.101446 0
M  V30 25 C -3.602649 -3.975457 -1.169491 0
M  V30 26 C -3.760212 -5.297974 -1.520294 0
M  V30 27 C -3.493449 -6.275425 -0.592300 0
M  V30 28 C -3.071600 -5.973426 0.683343 0
M  V30 29 C -2.907141 -4.634740 1.054774 0
M  V30 30 H 0.002778 -2.997654 -0.648214 0
M  V30 31 H 2.868223 -4.005079 0.420959 0
M  V30 32 H 4.793396 -5.021347 -0.830253 0
M  V30 33 H 1.554195 -2.513838 -3.400585 0
M  V30 34 H 1.629127 1.176149 0.414337 0
M  V30 35 H -1.193666 3.615464 2.979218 0
M  V30 36 H -0.767553 4.884718 1.697569 0
M  V30 37 H 0.110014 4.813530 4.354494 0
M  V30 38 H 0.854001 5.710529 3.019798 0
M  V30 39 H 1.540694 2.833571 3.913914 0
M  V30 40 H 2.479414 4.344854 4.281051 0
M  V30 41 H 3.270346 4.581436 2.084805 0
M  V30 42 H 3.164126 2.785661 2.237940 0
M  V30 43 H 1.381958 4.705222 0.736712 0
M  V30 44 H 1.976542 3.137958 0.203735 0
M  V30 45 H -2.219045 2.208960 2.003459 0
M  V30 46 H -3.031850 0.018822 1.436093 0
M  V30 47 H -3.170169 -2.168743 1.653650 0
M  V30 48 H -3.638383 -1.545542 0.006492 0
M  V30 49 H -3.804659 -3.191539 -1.875568 0
M  V30 50 H -4.088696 -5.607562 -2.506478 0
M  V30 51 H -3.606935 -7.318534 -0.836849 0
M  V30 52 H -2.846449 -6.702174 1.458374 0
M  V30 53 H -2.575653 -4.392720 2.057481 0
M  V30 END ATOM
M  V30 BEGIN BOND
M  V30 1 2 1 2
M  V30 2 1 2 3
M  V30 3 1 3 4
M  V30 4 2 4 5
M  V30 5 1 5 6
M  V30 6 2 6 7
M  V30 7 1 7 8
M  V30 8 2 8 9
M  V30 9 1 2 10
M  V30 10 2 10 11
M  V30 11 1 11 12
M  V30 12 1 12 13
M  V30 13 1 13 14
M  V30 14 1 14 15
M  V30 15 1 15 16
M  V30 16 1 16 17
M  V30 17 1 17 18
M  V30 18 2 12 19
M  V30 19 1 19 20
M  V30 20 2 20 21
M  V30 21 1 21 22
M  V30 22 1 22 23
M  V30 23 1 23 24
M  V30 24 2 24 25
M  V30 25 1 25 26
M  V30 26 2 26 27
M  V30 27 1 27 28
M  V30 28 2 28 29
M  V30 29 1 9 4
M  V30 30 1 21 10
M  V30 31 1 29 24
M  V30 32 1 18 13
M  V30 33 1 3 30
M  V30 34 1 5 31
M  V30 35 1 6 32
M  V30 36 1 9 33
M  V30 37 1 11 34
M  V30 38 1 14 35
M  V30 39 1 14 36
M  V30 40 1 15 37
M  V30 41 1 15 38
M  V30 42 1 16 39
M  V30 43 1 16 40
M  V30 44 1 17 41
M  V30 45 1 17 42
M  V30 46 1 18 43
M  V30 47 1 18 44
M  V30 48 1 19 45
M  V30 49 1 20 46
M  V30 50 1 23 47
M  V30 51 1 23 48
M  V30 52 1 25 49
M  V30 53 1 26 50
M  V30 54 1 27 51
M  V30 55 1 28 52
M  V30 56 1 29 53
M  V30 END BOND
M  V30 END CTAB
M  END
>  <Dataset>  (916) 
ChEMBL_Kinases

>  <Ligand_Instance>  (916) 
nan

>  <PDB_ID>  (916) 
nan

>  <Standardized_SMILES>  (916) 
O=C(Nc1ccnnc1)c1cc(N2CCCCC2)ccc1OCc1ccccc1

>  <Name>  (916) 
nan

>  <Pocket>  (916) 
nan

>  <ATP_Site>  (916) 
nan

>  <Peripheral>  (916) 
nan

>  <Num_H_Atoms_ProtBoundConf>  (916) 
nan

>  <Num_Resolved_Atoms>  (916) 
nan

>  <Num_Not_Resolved_Atoms>  (916) 
nan

$$$$
CHEMBL4437998
     RDKit          3D

  0  0  0  0  0  0  0  0  0  0999 V3000
M  V30 BEGIN CTAB
M  V30 COUNTS 46 48 0 0 0
M  V30 BEGIN ATOM
M  V30 1 C 2.988109 -4.927226 1.170359 0
M  V30 2 O 1.949554 -4.005876 0.889458 0
M  V30 3 C 1.892754 -3.362599 -0.334406 0
M  V30 4 O 2.725317 -3.534642 -1.264076 0
M  V30 5 C 0.693336 -2.423662 -0.403737 0
M  V30 6 C 0.665380 -1.755655 -1.721994 0
M  V30 7 C -0.403637 -0.818155 -2.064152 0
M  V30 8 C -0.588424 0.463219 -1.353958 0
M  V30 9 N -0.829101 0.560062 0.021544 0
M  V30 10 C 0.049325 0.782149 1.054434 0
M  V30 11 C 1.435566 0.991505 1.025281 0
M  V30 12 C 2.214295 1.213495 2.140456 0
M  V30 13 O 3.574048 1.402242 1.931747 0
M  V30 14 C 4.441908 1.637889 3.047309 0
M  V30 15 C 1.575568 1.228529 3.362624 0
M  V30 16 C 0.212700 1.025381 3.416374 0
M  V30 17 C -0.537642 0.806339 2.282253 0
M  V30 18 C -1.873906 0.587466 2.026942 0
M  V30 19 C -2.878696 0.527378 2.970353 0
M  V30 20 C -4.156176 0.302032 2.507832 0
M  V30 21 N -4.332651 0.160100 1.205502 0
M  V30 22 C -3.338894 0.219200 0.269291 0
M  V30 23 C -3.647598 0.053259 -1.160631 0
M  V30 24 C -2.036070 0.440428 0.651957 0
M  V30 25 H 3.141132 -4.848568 2.284750 0
M  V30 26 H 2.711547 -5.977726 0.965993 0
M  V30 27 H 3.950835 -4.631817 0.734426 0
M  V30 28 H 0.858166 -1.714757 0.406969 0
M  V30 29 H -0.168417 -3.104725 -0.224995 0
M  V30 30 H 1.685287 -1.287194 -1.963880 0
M  V30 31 H 0.652866 -2.590614 -2.507804 0
M  V30 32 H -1.355270 -1.428698 -2.119078 0
M  V30 33 H -0.273106 -0.588946 -3.194439 0
M  V30 34 H -1.131669 1.227831 -1.979244 0
M  V30 35 H 0.472677 0.948624 -1.481241 0
M  V30 36 H 1.901395 0.971170 0.032453 0
M  V30 37 H 4.313081 0.847744 3.828844 0
M  V30 38 H 4.266618 2.634150 3.485912 0
M  V30 39 H 5.494579 1.543650 2.720464 0
M  V30 40 H 2.206783 1.404266 4.224302 0
M  V30 41 H -0.279586 1.038682 4.376850 0
M  V30 42 H -2.706309 0.646026 4.017424 0
M  V30 43 H -4.984516 0.243902 3.191367 0
M  V30 44 H -3.544051 -0.979684 -1.544252 0
M  V30 45 H -3.332274 0.858838 -1.825015 0
M  V30 46 H -4.786536 0.168519 -1.212668 0
M  V30 END ATOM
M  V30 BEGIN BOND
M  V30 1 1 1 2
M  V30 2 1 2 3
M  V30 3 2 3 4
M  V30 4 1 3 5
M  V30 5 1 5 6
M  V30 6 1 6 7
M  V30 7 1 7 8
M  V30 8 1 8 9
M  V30 9 1 9 10
M  V30 10 2 10 11
M  V30 11 1 11 12
M  V30 12 1 12 13
M  V30 13 1 13 14
M  V30 14 2 12 15
M  V30 15 1 15 16
M  V30 16 2 16 17
M  V30 17 1 17 18
M  V30 18 2 18 19
M  V30 19 1 19 20
M  V30 20 2 20 21
M  V30 21 1 21 22
M  V30 22 1 22 23
M  V30 23 2 22 24
M  V30 24 1 24 9
M  V30 25 1 17 10
M  V30 26 1 24 18
M  V30 27 1 1 25
M  V30 28 1 1 26
M  V30 29 1 1 27
M  V30 30 1 5 28
M  V30 31 1 5 29
M  V30 32 1 6 30
M  V30 33 1 6 31
M  V30 34 1 7 32
M  V30 35 1 7 33
M  V30 36 1 8 34
M  V30 37 1 8 35
M  V30 38 1 11 36
M  V30 39 1 14 37
M  V30 40 1 14 38
M  V30 41 1 14 39
M  V30 42 1 15 40
M  V30 43 1 16 41
M  V30 44 1 19 42
M  V30 45 1 20 43
M  V30 46 1 23 44
M  V30 47 1 23 45
M  V30 48 1 23 46
M  V30 END BOND
M  V30 END CTAB
M  END
>  <Dataset>  (917) 
ChEMBL_Kinases

>  <Ligand_Instance>  (917) 
nan

>  <PDB_ID>  (917) 
nan

>  <Standardized_SMILES>  (917) 
COC(=O)CCCCn1c2cc(OC)ccc2c2ccnc(C)c21

>  <Name>  (917) 
nan

>  <Pocket>  (917) 
nan

>  <ATP_Site>  (917) 
nan

>  <Peripheral>  (917) 
nan

>  <Num_H_Atoms_ProtBoundConf>  (917) 
nan

>  <Num_Resolved_Atoms>  (917) 
nan

>  <Num_Not_Resolved_Atoms>  (917) 
nan

$$$$
CHEMBL4437930
     RDKit          3D

  0  0  0  0  0  0  0  0  0  0999 V3000
M  V30 BEGIN CTAB
M  V30 COUNTS 36 39 0 0 0
M  V30 BEGIN ATOM
M  V30 1 F 2.166523 -6.904099 2.945748 0
M  V30 2 C 1.582146 -5.739229 2.582796 0
M  V30 3 C 0.479278 -5.164460 3.179788 0
M  V30 4 C -0.041615 -3.964429 2.728593 0
M  V30 5 F -1.127687 -3.509567 3.404254 0
M  V30 6 C 0.527351 -3.299535 1.661508 0
M  V30 7 C -0.082675 -2.040694 1.248785 0
M  V30 8 C 0.390847 -1.282632 0.198948 0
M  V30 9 C -0.155229 -0.088655 -0.223529 0
M  V30 10 N 0.372287 0.650866 -1.310213 0
M  V30 11 C 0.905295 1.965125 -1.425923 0
M  V30 12 C 1.351172 2.413117 -2.653212 0
M  V30 13 C 1.850180 3.700035 -2.663390 0
M  V30 14 N 1.914525 4.496269 -1.570801 0
M  V30 15 C 1.475704 4.059107 -0.356442 0
M  V30 16 C 0.969549 2.774466 -0.310169 0
M  V30 17 C -1.258245 0.401823 0.440239 0
M  V30 18 C -2.078433 1.510725 0.346143 0
M  V30 19 C -3.025885 1.383283 1.349616 0
M  V30 20 N -2.798406 0.239636 2.035943 0
M  V30 21 C -1.723978 -0.363048 1.488029 0
M  V30 22 N -1.173378 -1.525524 1.881318 0
M  V30 23 C 1.630409 -3.870656 1.061456 0
M  V30 24 C 2.159089 -5.069614 1.504384 0
M  V30 25 Cl 3.560994 -5.704728 0.670148 0
M  V30 26 H 0.065656 -5.718073 4.010995 0
M  V30 27 H 1.249866 -1.610468 -0.360740 0
M  V30 28 H 0.317515 0.027156 -2.144608 0
M  V30 29 H 1.314111 1.802948 -3.545588 0
M  V30 30 H 2.206908 4.073227 -3.619643 0
M  V30 31 H 1.537619 4.713591 0.501087 0
M  V30 32 H 0.636403 2.476847 0.671320 0
M  V30 33 H -1.879157 2.242401 -0.421532 0
M  V30 34 H -3.761154 2.181145 1.420212 0
M  V30 35 H -3.423114 -0.011974 2.829926 0
M  V30 36 H 2.079195 -3.371255 0.239536 0
M  V30 END ATOM
M  V30 BEGIN BOND
M  V30 1 1 1 2
M  V30 2 2 2 3
M  V30 3 1 3 4
M  V30 4 1 4 5
M  V30 5 2 4 6
M  V30 6 1 6 7
M  V30 7 2 7 8
M  V30 8 1 8 9
M  V30 9 1 9 10
M  V30 10 1 10 11
M  V30 11 2 11 12
M  V30 12 1 12 13
M  V30 13 2 13 14
M  V30 14 1 14 15
M  V30 15 2 15 16
M  V30 16 2 9 17
M  V30 17 1 17 18
M  V30 18 2 18 19
M  V30 19 1 19 20
M  V30 20 1 20 21
M  V30 21 2 21 22
M  V30 22 1 6 23
M  V30 23 2 23 24
M  V30 24 1 24 25
M  V30 25 1 24 2
M  V30 26 1 22 7
M  V30 27 1 16 11
M  V30 28 1 21 17
M  V30 29 1 3 26
M  V30 30 1 8 27
M  V30 31 1 10 28
M  V30 32 1 12 29
M  V30 33 1 13 30
M  V30 34 1 15 31
M  V30 35 1 16 32
M  V30 36 1 18 33
M  V30 37 1 19 34
M  V30 38 1 20 35
M  V30 39 1 23 36
M  V30 END BOND
M  V30 END CTAB
M  END
>  <Dataset>  (918) 
ChEMBL_Kinases

>  <Ligand_Instance>  (918) 
nan

>  <PDB_ID>  (918) 
nan

>  <Standardized_SMILES>  (918) 
Fc1cc(F)c(-c2cc(Nc3ccncc3)c3cc[nH]c3n2)cc1Cl

>  <Name>  (918) 
nan

>  <Pocket>  (918) 
nan

>  <ATP_Site>  (918) 
nan

>  <Peripheral>  (918) 
nan

>  <Num_H_Atoms_ProtBoundConf>  (918) 
nan

>  <Num_Resolved_Atoms>  (918) 
nan

>  <Num_Not_Resolved_Atoms>  (918) 
nan

$$$$
CHEMBL4437926
     RDKit          3D

  0  0  0  0  0  0  0  0  0  0999 V3000
M  V30 BEGIN CTAB
M  V30 COUNTS 41 44 0 0 0
M  V30 BEGIN ATOM
M  V30 1 C 0.640073 -4.404067 3.040415 0
M  V30 2 N 1.774624 -3.494360 2.992119 0
M  V30 3 N 2.855004 -3.629438 3.732431 0
M  V30 4 C 3.696239 -2.629215 3.440729 0
M  V30 5 C 3.070197 -1.861029 2.469788 0
M  V30 6 C 1.845808 -2.417611 2.188171 0
M  V30 7 C 0.804389 -2.006893 1.253403 0
M  V30 8 N 0.578557 -0.719953 0.945073 0
M  V30 9 C -0.364051 -0.309975 0.095314 0
M  V30 10 N -0.600396 1.048964 -0.227609 0
M  V30 11 C 0.175891 2.132780 0.344999 0
M  V30 12 C -0.230451 3.528429 -0.095079 0
M  V30 13 O -0.109111 3.668326 -1.474137 0
M  V30 14 C 1.652919 1.856093 0.168871 0
M  V30 15 C 1.836332 2.037293 1.652706 0
M  V30 16 C 0.341261 2.013108 1.837324 0
M  V30 17 C -1.117987 -1.313662 -0.466940 0
M  V30 18 C -2.134024 -1.074639 -1.364744 0
M  V30 19 C -2.926183 -2.026171 -1.964452 0
M  V30 20 N -2.687031 -3.331510 -1.643074 0
M  V30 21 C -1.708090 -3.654746 -0.769866 0
M  V30 22 C -0.942309 -2.660411 -0.196731 0
M  V30 23 N 0.047531 -2.992950 0.686832 0
M  V30 24 H 0.787358 -5.212994 3.764217 0
M  V30 25 H -0.324136 -3.857284 3.242788 0
M  V30 26 H 0.474964 -4.904133 2.042330 0
M  V30 27 H 4.679715 -2.370383 3.814768 0
M  V30 28 H 3.460311 -0.967808 1.997444 0
M  V30 29 H -1.316521 1.377815 -0.872815 0
M  V30 30 H 0.473274 4.257817 0.353710 0
M  V30 31 H -1.225117 3.805065 0.248243 0
M  V30 32 H -0.964337 3.881332 -1.931424 0
M  V30 33 H 1.888857 0.837673 -0.233606 0
M  V30 34 H 2.183883 2.672590 -0.372817 0
M  V30 35 H 2.323523 3.003530 1.944024 0
M  V30 36 H 2.317923 1.140552 2.108994 0
M  V30 37 H -0.089621 1.099246 2.293926 0
M  V30 38 H -0.009803 2.956034 2.348029 0
M  V30 39 H -2.381253 -0.072696 -1.666678 0
M  V30 40 H -3.714579 -1.798449 -2.664769 0
M  V30 41 H -1.510799 -4.702322 -0.506825 0
M  V30 END ATOM
M  V30 BEGIN BOND
M  V30 1 1 1 2
M  V30 2 1 2 3
M  V30 3 2 3 4
M  V30 4 1 4 5
M  V30 5 2 5 6
M  V30 6 1 6 7
M  V30 7 2 7 8
M  V30 8 1 8 9
M  V30 9 1 9 10
M  V30 10 1 10 11
M  V30 11 1 11 12
M  V30 12 1 12 13
M  V30 13 1 11 14
M  V30 14 1 14 15
M  V30 15 1 15 16
M  V30 16 2 9 17
M  V30 17 1 17 18
M  V30 18 2 18 19
M  V30 19 1 19 20
M  V30 20 2 20 21
M  V30 21 1 21 22
M  V30 22 2 22 23
M  V30 23 1 6 2
M  V30 24 1 23 7
M  V30 25 1 16 11
M  V30 26 1 22 17
M  V30 27 1 1 24
M  V30 28 1 1 25
M  V30 29 1 1 26
M  V30 30 1 4 27
M  V30 31 1 5 28
M  V30 32 1 10 29
M  V30 33 1 12 30
M  V30 34 1 12 31
M  V30 35 1 13 32
M  V30 36 1 14 33
M  V30 37 1 14 34
M  V30 38 1 15 35
M  V30 39 1 15 36
M  V30 40 1 16 37
M  V30 41 1 16 38
M  V30 42 1 18 39
M  V30 43 1 19 40
M  V30 44 1 21 41
M  V30 END BOND
M  V30 END CTAB
M  END
>  <Dataset>  (919) 
ChEMBL_Kinases

>  <Ligand_Instance>  (919) 
nan

>  <PDB_ID>  (919) 
nan

>  <Standardized_SMILES>  (919) 
Cn1nccc1-c1nc(NC2(CO)CCC2)c2ccncc2n1

>  <Name>  (919) 
nan

>  <Pocket>  (919) 
nan

>  <ATP_Site>  (919) 
nan

>  <Peripheral>  (919) 
nan

>  <Num_H_Atoms_ProtBoundConf>  (919) 
nan

>  <Num_Resolved_Atoms>  (919) 
nan

>  <Num_Not_Resolved_Atoms>  (919) 
nan

$$$$
CHEMBL4437922
     RDKit          3D

  0  0  0  0  0  0  0  0  0  0999 V3000
M  V30 BEGIN CTAB
M  V30 COUNTS 52 54 0 0 0
M  V30 BEGIN ATOM
M  V30 1 C 0.868673 -4.358340 1.513726 0
M  V30 2 C 1.907732 -3.923014 0.540381 0
M  V30 3 N 3.169735 -4.341111 0.388787 0
M  V30 4 N 3.744762 -3.695066 -0.590847 0
M  V30 5 C 2.877828 -2.805362 -1.142509 0
M  V30 6 C 3.112069 -1.858900 -2.285330 0
M  V30 7 C 1.700555 -2.945176 -0.424375 0
M  V30 8 C 0.510952 -2.153089 -0.714658 0
M  V30 9 N 0.342344 -0.979398 -0.090560 0
M  V30 10 C -0.708607 -0.197515 -0.295526 0
M  V30 11 N -0.852632 1.044042 0.382914 0
M  V30 12 C 0.152199 1.456125 1.308893 0
M  V30 13 C 1.462757 1.496372 0.502731 0
M  V30 14 C -0.049053 2.918252 1.729833 0
M  V30 15 C 0.405144 0.569458 2.465958 0
M  V30 16 C -0.724601 0.297713 3.393113 0
M  V30 17 C -1.323660 1.482067 4.073419 0
M  V30 18 C -1.831871 -0.515014 2.778755 0
M  V30 19 O -0.188158 -0.530621 4.408202 0
M  V30 20 C -1.617736 -0.691783 -1.206523 0
M  V30 21 C -2.751506 0.035868 -1.500239 0
M  V30 22 C -3.732860 -0.348951 -2.390396 0
M  V30 23 N -3.570681 -1.540882 -3.030179 0
M  V30 24 C -2.471880 -2.305092 -2.782503 0
M  V30 25 C -1.510889 -1.887188 -1.885078 0
M  V30 26 N -0.395028 -2.619733 -1.606259 0
M  V30 27 H 1.070512 -5.395922 1.823408 0
M  V30 28 H 0.892683 -3.675032 2.387044 0
M  V30 29 H -0.132555 -4.290985 1.024767 0
M  V30 30 H 4.717706 -3.791367 -0.953752 0
M  V30 31 H 2.495366 -2.123006 -3.156627 0
M  V30 32 H 4.210544 -1.903219 -2.518782 0
M  V30 33 H 2.924432 -0.830383 -1.938795 0
M  V30 34 H -1.648615 1.704105 0.265777 0
M  V30 35 H 2.028408 0.551696 0.600118 0
M  V30 36 H 2.135890 2.305455 0.888169 0
M  V30 37 H 1.273533 1.699958 -0.552492 0
M  V30 38 H 0.230556 3.550254 0.835205 0
M  V30 39 H 0.639242 3.195367 2.527767 0
M  V30 40 H -1.113489 3.164712 1.898458 0
M  V30 41 H 1.194435 1.089856 3.088862 0
M  V30 42 H 0.822011 -0.381521 2.139612 0
M  V30 43 H -0.621427 2.282270 4.350007 0
M  V30 44 H -2.247479 1.850724 3.548667 0
M  V30 45 H -1.734681 1.122625 5.064079 0
M  V30 46 H -2.527529 -0.815727 3.609321 0
M  V30 47 H -1.467931 -1.461513 2.335806 0
M  V30 48 H -2.407643 0.116727 2.104476 0
M  V30 49 H -0.050608 -1.419912 3.972437 0
M  V30 50 H -2.959639 0.989751 -1.040004 0
M  V30 51 H -4.609191 0.222242 -2.611931 0
M  V30 52 H -2.275779 -3.257355 -3.249637 0
M  V30 END ATOM
M  V30 BEGIN BOND
M  V30 1 1 1 2
M  V30 2 2 2 3
M  V30 3 1 3 4
M  V30 4 1 4 5
M  V30 5 1 5 6
M  V30 6 2 5 7
M  V30 7 1 7 8
M  V30 8 2 8 9
M  V30 9 1 9 10
M  V30 10 1 10 11
M  V30 11 1 11 12
M  V30 12 1 12 13
M  V30 13 1 12 14
M  V30 14 1 12 15
M  V30 15 1 15 16
M  V30 16 1 16 17
M  V30 17 1 16 18
M  V30 18 1 16 19
M  V30 19 2 10 20
M  V30 20 1 20 21
M  V30 21 2 21 22
M  V30 22 1 22 23
M  V30 23 2 23 24
M  V30 24 1 24 25
M  V30 25 2 25 26
M  V30 26 1 7 2
M  V30 27 1 26 8
M  V30 28 1 25 20
M  V30 29 1 1 27
M  V30 30 1 1 28
M  V30 31 1 1 29
M  V30 32 1 4 30
M  V30 33 1 6 31
M  V30 34 1 6 32
M  V30 35 1 6 33
M  V30 36 1 11 34
M  V30 37 1 13 35
M  V30 38 1 13 36
M  V30 39 1 13 37
M  V30 40 1 14 38
M  V30 41 1 14 39
M  V30 42 1 14 40
M  V30 43 1 15 41
M  V30 44 1 15 42
M  V30 45 1 17 43
M  V30 46 1 17 44
M  V30 47 1 17 45
M  V30 48 1 18 46
M  V30 49 1 18 47
M  V30 50 1 18 48
M  V30 51 1 19 49
M  V30 52 1 21 50
M  V30 53 1 22 51
M  V30 54 1 24 52
M  V30 END BOND
M  V30 END CTAB
M  END
>  <Dataset>  (920) 
ChEMBL_Kinases

>  <Ligand_Instance>  (920) 
nan

>  <PDB_ID>  (920) 
nan

>  <Standardized_SMILES>  (920) 
Cc1n[nH]c(C)c1-c1nc(NC(C)(C)CC(C)(C)O)c2ccncc2n1

>  <Name>  (920) 
nan

>  <Pocket>  (920) 
nan

>  <ATP_Site>  (920) 
nan

>  <Peripheral>  (920) 
nan

>  <Num_H_Atoms_ProtBoundConf>  (920) 
nan

>  <Num_Resolved_Atoms>  (920) 
nan

>  <Num_Not_Resolved_Atoms>  (920) 
nan

$$$$
CHEMBL4437913
     RDKit          3D

  0  0  0  0  0  0  0  0  0  0999 V3000
M  V30 BEGIN CTAB
M  V30 COUNTS 66 72 0 0 0
M  V30 BEGIN ATOM
M  V30 1 C 4.602798 -2.305619 4.116896 0
M  V30 2 O 4.094194 -1.622393 3.003708 0
M  V30 3 C 4.685281 -0.426575 2.619609 0
M  V30 4 C 5.753309 0.045823 3.349185 0
M  V30 5 C 6.331271 1.217523 2.971045 0
M  V30 6 C 5.846261 1.909582 1.875039 0
M  V30 7 C 4.763846 1.495683 1.082033 0
M  V30 8 C 4.245326 0.304560 1.538492 0
M  V30 9 C 4.577223 2.498359 0.050621 0 CFG=1
M  V30 10 C 4.295503 2.256028 -1.362452 0
M  V30 11 C 3.330184 3.047649 -0.460020 0 CFG=1
M  V30 12 C 1.987139 2.501474 -0.336091 0
M  V30 13 C 1.521749 1.226810 -0.582546 0
M  V30 14 C 0.221835 0.798402 -0.425721 0
M  V30 15 C -0.734306 1.687608 0.014337 0
M  V30 16 C -2.085668 1.631018 0.282106 0
M  V30 17 C -2.903959 0.429166 0.129484 0
M  V30 18 C -2.549878 -0.836041 0.557678 0
M  V30 19 C -3.416986 -1.877615 0.348825 0
M  V30 20 C -4.634354 -1.762625 -0.264333 0
M  V30 21 C -5.566457 -2.908155 -0.483725 0
M  V30 22 F -6.843476 -2.337402 -0.587659 0
M  V30 23 C -5.270390 -3.535608 -1.797693 0
M  V30 24 C -4.109903 -4.505330 -1.709239 0
M  V30 25 N -4.552896 -5.550377 -0.803233 0
M  V30 26 C -3.507323 -6.554697 -0.776483 0
M  V30 27 C -4.782963 -5.100322 0.526763 0
M  V30 28 C -5.546689 -3.829464 0.683127 0
M  V30 29 C -4.976524 -0.474886 -0.691322 0
M  V30 30 C -4.116586 0.593779 -0.491442 0
M  V30 31 N -2.452338 2.875257 0.694320 0
M  V30 32 N -1.432635 3.700738 0.703306 0
M  V30 33 C -0.369095 2.990081 0.288993 0
M  V30 34 C 0.954590 3.345203 0.107572 0
M  V30 35 C 5.661570 3.504998 0.291594 0
M  V30 36 O 5.845568 4.531670 -0.433749 0
M  V30 37 N 6.407350 3.131907 1.411229 0
M  V30 38 H 3.990662 -3.226536 4.304243 0
M  V30 39 H 5.664949 -2.617678 3.994670 0
M  V30 40 H 4.523264 -1.682106 5.052644 0
M  V30 41 H 6.105347 -0.513045 4.192680 0
M  V30 42 H 7.164424 1.541638 3.577644 0
M  V30 43 H 3.423450 -0.132204 1.032305 0
M  V30 44 H 4.823831 2.829003 -2.151182 0
M  V30 45 H 4.037910 1.238712 -1.665898 0
M  V30 46 H 3.336882 4.161447 -0.643860 0
M  V30 47 H 2.281690 0.528257 -0.936479 0
M  V30 48 H -0.045913 -0.225222 -0.645602 0
M  V30 49 H -1.592755 -0.942889 1.043066 0
M  V30 50 H -3.090016 -2.833351 0.701166 0
M  V30 51 H -5.089997 -2.755093 -2.550757 0
M  V30 52 H -6.157379 -4.179152 -2.069482 0
M  V30 53 H -3.165908 -4.022739 -1.381527 0
M  V30 54 H -3.971248 -4.988989 -2.709123 0
M  V30 55 H -2.572010 -6.202763 -1.264011 0
M  V30 56 H -3.838529 -7.433260 -1.374108 0
M  V30 57 H -3.314191 -6.939903 0.248628 0
M  V30 58 H -3.798765 -5.115283 1.065385 0
M  V30 59 H -5.358634 -5.925149 1.037936 0
M  V30 60 H -6.589125 -4.036260 1.029484 0
M  V30 61 H -5.084501 -3.288406 1.543281 0
M  V30 62 H -5.921137 -0.286369 -1.187194 0
M  V30 63 H -4.441745 1.577119 -0.848433 0
M  V30 64 H -1.453632 4.716064 0.981439 0
M  V30 65 H 1.213389 4.383353 0.333207 0
M  V30 66 H 7.203898 3.700297 1.766860 0
M  V30 END ATOM
M  V30 BEGIN BOND
M  V30 1 1 1 2
M  V30 2 1 2 3
M  V30 3 2 3 4
M  V30 4 1 4 5
M  V30 5 2 5 6
M  V30 6 1 6 7
M  V30 7 2 7 8
M  V30 8 1 7 9
M  V30 9 1 9 10 CFG=3
M  V30 10 1 10 11
M  V30 11 1 11 12
M  V30 12 2 12 13
M  V30 13 1 13 14
M  V30 14 2 14 15
M  V30 15 1 15 16
M  V30 16 1 16 17
M  V30 17 2 17 18
M  V30 18 1 18 19
M  V30 19 2 19 20
M  V30 20 1 20 21
M  V30 21 1 21 22
M  V30 22 1 21 23
M  V30 23 1 23 24
M  V30 24 1 24 25
M  V30 25 1 25 26
M  V30 26 1 25 27
M  V30 27 1 27 28
M  V30 28 1 20 29
M  V30 29 2 29 30
M  V30 30 2 16 31
M  V30 31 1 31 32
M  V30 32 1 32 33
M  V30 33 2 33 34
M  V30 34 1 9 35
M  V30 35 2 35 36
M  V30 36 1 35 37
M  V30 37 1 8 3
M  V30 38 1 11 9
M  V30 39 1 34 12
M  V30 40 1 37 6
M  V30 41 1 33 15
M  V30 42 1 30 17
M  V30 43 1 28 21
M  V30 44 1 1 38
M  V30 45 1 1 39
M  V30 46 1 1 40
M  V30 47 1 4 41
M  V30 48 1 5 42
M  V30 49 1 8 43
M  V30 50 1 10 44
M  V30 51 1 10 45
M  V30 52 1 11 46 CFG=3
M  V30 53 1 13 47
M  V30 54 1 14 48
M  V30 55 1 18 49
M  V30 56 1 19 50
M  V30 57 1 23 51
M  V30 58 1 23 52
M  V30 59 1 24 53
M  V30 60 1 24 54
M  V30 61 1 26 55
M  V30 62 1 26 56
M  V30 63 1 26 57
M  V30 64 1 27 58
M  V30 65 1 27 59
M  V30 66 1 28 60
M  V30 67 1 28 61
M  V30 68 1 29 62
M  V30 69 1 30 63
M  V30 70 1 32 64
M  V30 71 1 34 65
M  V30 72 1 37 66
M  V30 END BOND
M  V30 END CTAB
M  END
>  <Dataset>  (921) 
ChEMBL_Kinases

>  <Ligand_Instance>  (921) 
nan

>  <PDB_ID>  (921) 
nan

>  <Standardized_SMILES>  (921) 
COc1ccc2c(c1)[C@]1(C[C@H]1c1ccc3c(-c4ccc(C5(F)CCN(C)CC5)cc4)n[nH]c3c1)C(=O)N2

>  <Name>  (921) 
nan

>  <Pocket>  (921) 
nan

>  <ATP_Site>  (921) 
nan

>  <Peripheral>  (921) 
nan

>  <Num_H_Atoms_ProtBoundConf>  (921) 
nan

>  <Num_Resolved_Atoms>  (921) 
nan

>  <Num_Not_Resolved_Atoms>  (921) 
nan

$$$$
CHEMBL4437872
     RDKit          3D

  0  0  0  0  0  0  0  0  0  0999 V3000
M  V30 BEGIN CTAB
M  V30 COUNTS 57 62 0 0 0
M  V30 BEGIN ATOM
M  V30 1 C 3.704833 -3.648892 2.582417 0
M  V30 2 N 4.861489 -4.114941 1.862004 0
M  V30 3 C 6.011142 -3.250608 1.964089 0
M  V30 4 C 6.051336 -2.164704 0.941059 0
M  V30 5 N 4.840095 -2.077270 0.193341 0
M  V30 6 C 3.925146 -1.000501 0.075435 0
M  V30 7 C 4.188966 0.264729 0.549357 0
M  V30 8 C 3.267259 1.284663 0.427150 0
M  V30 9 C 2.049890 1.046738 -0.180767 0
M  V30 10 C 0.947048 1.970907 -0.428115 0
M  V30 11 N 0.951881 3.211452 -0.969386 0
M  V30 12 N -0.262937 3.725440 -1.004621 0
M  V30 13 C -1.081385 2.799337 -0.474112 0
M  V30 14 C -2.429436 2.875447 -0.291397 0
M  V30 15 C -3.121347 1.802294 0.291139 0
M  V30 16 C -4.531821 1.692656 0.594833 0
M  V30 17 C -5.561956 0.912010 0.501574 0
M  V30 18 C -6.897909 1.299642 1.014516 0
M  V30 19 O -7.233520 2.368362 1.589326 0
M  V30 20 N -7.741148 0.209238 0.726109 0
M  V30 21 C -7.068870 -0.849174 0.071395 0
M  V30 22 C -7.541525 -2.062409 -0.370774 0
M  V30 23 C -6.631585 -2.893074 -0.986785 0
M  V30 24 C -5.318423 -2.507396 -1.142087 0
M  V30 25 C -4.926736 -1.275104 -0.670396 0
M  V30 26 C -5.779012 -0.413142 -0.053153 0
M  V30 27 C -2.326758 0.715239 0.641953 0
M  V30 28 C -0.963526 0.582816 0.481388 0
M  V30 29 C -0.370111 1.683175 -0.098071 0
M  V30 30 C 1.811260 -0.252097 -0.653363 0
M  V30 31 N 2.743417 -1.244133 -0.518897 0
M  V30 32 C 4.707781 -3.336029 -0.457945 0
M  V30 33 C 4.524648 -4.486827 0.504713 0
M  V30 34 H 3.443219 -4.422130 3.344915 0
M  V30 35 H 2.847935 -3.624662 1.859436 0
M  V30 36 H 3.853123 -2.636822 3.025775 0
M  V30 37 H 6.915977 -3.893420 1.962465 0
M  V30 38 H 5.968499 -2.804746 2.977618 0
M  V30 39 H 6.938166 -2.297004 0.284666 0
M  V30 40 H 6.180636 -1.191942 1.462724 0
M  V30 41 H 5.117343 0.488238 1.025078 0
M  V30 42 H 3.384083 2.296961 0.764950 0
M  V30 43 H -0.525139 4.680202 -1.381243 0
M  V30 44 H -3.088600 3.696875 -0.547549 0
M  V30 45 H -4.661553 2.671145 1.081449 0
M  V30 46 H -8.750368 0.219133 0.984954 0
M  V30 47 H -8.575469 -2.358994 -0.245604 0
M  V30 48 H -6.930010 -3.877277 -1.366011 0
M  V30 49 H -4.615621 -3.171937 -1.627758 0
M  V30 50 H -3.910264 -1.020426 -0.823041 0
M  V30 51 H -2.796337 -0.168186 1.109672 0
M  V30 52 H -0.429238 -0.292300 0.783244 0
M  V30 53 H 0.905868 -0.615263 -1.163571 0
M  V30 54 H 5.569839 -3.577748 -1.129299 0
M  V30 55 H 3.821465 -3.301335 -1.119262 0
M  V30 56 H 5.138027 -5.358887 0.202284 0
M  V30 57 H 3.462246 -4.821073 0.513268 0
M  V30 END ATOM
M  V30 BEGIN BOND
M  V30 1 1 1 2
M  V30 2 1 2 3
M  V30 3 1 3 4
M  V30 4 1 4 5
M  V30 5 1 5 6
M  V30 6 2 6 7
M  V30 7 1 7 8
M  V30 8 2 8 9
M  V30 9 1 9 10
M  V30 10 2 10 11
M  V30 11 1 11 12
M  V30 12 1 12 13
M  V30 13 2 13 14
M  V30 14 1 14 15
M  V30 15 1 15 16
M  V30 16 2 16 17 CFG=2
M  V30 17 1 17 18
M  V30 18 2 18 19
M  V30 19 1 18 20
M  V30 20 1 20 21
M  V30 21 2 21 22
M  V30 22 1 22 23
M  V30 23 2 23 24
M  V30 24 1 24 25
M  V30 25 2 25 26
M  V30 26 2 15 27
M  V30 27 1 27 28
M  V30 28 2 28 29
M  V30 29 1 9 30
M  V30 30 2 30 31
M  V30 31 1 5 32
M  V30 32 1 32 33
M  V30 33 1 33 2
M  V30 34 1 31 6
M  V30 35 1 29 10
M  V30 36 1 29 13
M  V30 37 1 26 17
M  V30 38 1 26 21
M  V30 39 1 1 34
M  V30 40 1 1 35
M  V30 41 1 1 36
M  V30 42 1 3 37
M  V30 43 1 3 38
M  V30 44 1 4 39
M  V30 45 1 4 40
M  V30 46 1 7 41
M  V30 47 1 8 42
M  V30 48 1 12 43
M  V30 49 1 14 44
M  V30 50 1 16 45
M  V30 51 1 20 46
M  V30 52 1 22 47
M  V30 53 1 23 48
M  V30 54 1 24 49
M  V30 55 1 25 50
M  V30 56 1 27 51
M  V30 57 1 28 52
M  V30 58 1 30 53
M  V30 59 1 32 54
M  V30 60 1 32 55
M  V30 61 1 33 56
M  V30 62 1 33 57
M  V30 END BOND
M  V30 END CTAB
M  END
>  <Dataset>  (922) 
ChEMBL_Kinases

>  <Ligand_Instance>  (922) 
nan

>  <PDB_ID>  (922) 
nan

>  <Standardized_SMILES>  (922) 
CN1CCN(c2ccc(-c3n[nH]c4cc(C=C5C(=O)Nc6ccccc65)ccc34)cn2)CC1

>  <Name>  (922) 
nan

>  <Pocket>  (922) 
nan

>  <ATP_Site>  (922) 
nan

>  <Peripheral>  (922) 
nan

>  <Num_H_Atoms_ProtBoundConf>  (922) 
nan

>  <Num_Resolved_Atoms>  (922) 
nan

>  <Num_Not_Resolved_Atoms>  (922) 
nan

$$$$
CHEMBL4437764
     RDKit          3D

  0  0  0  0  0  0  0  0  0  0999 V3000
M  V30 BEGIN CTAB
M  V30 COUNTS 60 64 0 0 0
M  V30 BEGIN ATOM
M  V30 1 C 1.527787 -2.296611 3.743882 0
M  V30 2 C 2.081663 -0.958246 3.385943 0
M  V30 3 C 3.091930 -0.455162 4.147757 0
M  V30 4 C 3.602146 0.781454 3.814235 0
M  V30 5 C 4.704616 1.362442 4.621455 0
M  V30 6 C 3.101836 1.481398 2.743315 0
M  V30 7 C 2.074786 1.003775 1.944637 0
M  V30 8 N 1.600373 1.770580 0.851456 0
M  V30 9 C 0.580458 1.424141 -0.070068 0
M  V30 10 C 0.247173 2.289713 -1.088018 0
M  V30 11 C -0.723574 2.032701 -2.023807 0
M  V30 12 C -1.426650 0.849974 -1.973824 0
M  V30 13 C -1.098298 -0.011772 -0.964199 0
M  V30 14 C -1.721784 -1.319042 -0.735699 0
M  V30 15 C -2.715956 -1.330409 0.248989 0
M  V30 16 C -3.321955 -0.346596 1.143366 0
M  V30 17 C -2.686209 0.357463 2.144982 0
M  V30 18 C -3.384482 1.268556 2.925279 0
M  V30 19 C -4.732616 1.431889 2.650652 0
M  V30 20 F -5.406753 2.323997 3.418135 0
M  V30 21 C -5.414967 0.755777 1.664056 0
M  V30 22 C -4.685729 -0.148390 0.902173 0
M  V30 23 N -3.159752 -2.619739 0.306178 0
M  V30 24 N -2.484077 -3.333192 -0.578149 0
M  V30 25 N -1.613269 -2.571381 -1.216599 0
M  V30 26 C -0.630065 -2.806433 -2.262510 0
M  V30 27 C -0.897218 -4.143937 -2.952741 0
M  V30 28 C -0.117977 -4.163451 -4.227127 0
M  V30 29 N 1.165395 -3.508085 -4.046416 0
M  V30 30 C 1.624175 -3.647801 -2.672064 0
M  V30 31 C 0.768033 -2.858435 -1.717829 0
M  V30 32 N -0.137188 0.314448 -0.090196 0
M  V30 33 C 1.614302 -0.228730 2.330626 0
M  V30 34 H 1.338854 -2.399485 4.812364 0
M  V30 35 H 2.275395 -3.041915 3.348829 0
M  V30 36 H 0.567451 -2.404618 3.208279 0
M  V30 37 H 3.475625 -1.014995 4.986020 0
M  V30 38 H 5.471823 1.777977 3.938210 0
M  V30 39 H 5.128702 0.593695 5.271540 0
M  V30 40 H 4.244875 2.176435 5.251754 0
M  V30 41 H 3.544607 2.446023 2.534039 0
M  V30 42 H 2.061737 2.702075 0.713489 0
M  V30 43 H 0.748337 3.254331 -1.211892 0
M  V30 44 H -0.959661 2.737856 -2.812171 0
M  V30 45 H -2.206187 0.557544 -2.662831 0
M  V30 46 H -1.631819 0.151319 2.272906 0
M  V30 47 H -2.883155 1.814326 3.704672 0
M  V30 48 H -6.467975 0.938479 1.510345 0
M  V30 49 H -5.277122 -0.651362 0.139911 0
M  V30 50 H -0.662695 -2.043560 -3.064105 0
M  V30 51 H -0.588002 -4.908559 -2.212614 0
M  V30 52 H -1.994984 -4.217666 -3.106297 0
M  V30 53 H -0.685452 -3.548740 -4.969349 0
M  V30 54 H 0.012095 -5.194062 -4.610454 0
M  V30 55 H 1.891388 -3.890022 -4.687376 0
M  V30 56 H 2.644755 -3.195995 -2.643329 0
M  V30 57 H 1.739750 -4.701709 -2.358458 0
M  V30 58 H 1.198473 -1.866512 -1.478427 0
M  V30 59 H 0.727735 -3.425440 -0.754197 0
M  V30 60 H 0.815968 -0.691281 1.776145 0
M  V30 END ATOM
M  V30 BEGIN BOND
M  V30 1 1 1 2
M  V30 2 2 2 3
M  V30 3 1 3 4
M  V30 4 1 4 5
M  V30 5 2 4 6
M  V30 6 1 6 7
M  V30 7 1 7 8
M  V30 8 1 8 9
M  V30 9 2 9 10
M  V30 10 1 10 11
M  V30 11 2 11 12
M  V30 12 1 12 13
M  V30 13 1 13 14
M  V30 14 2 14 15
M  V30 15 1 15 16
M  V30 16 2 16 17
M  V30 17 1 17 18
M  V30 18 2 18 19
M  V30 19 1 19 20
M  V30 20 1 19 21
M  V30 21 2 21 22
M  V30 22 1 15 23
M  V30 23 2 23 24
M  V30 24 1 24 25
M  V30 25 1 25 26
M  V30 26 1 26 27
M  V30 27 1 27 28
M  V30 28 1 28 29
M  V30 29 1 29 30
M  V30 30 1 30 31
M  V30 31 2 13 32
M  V30 32 2 7 33
M  V30 33 1 33 2
M  V30 34 1 32 9
M  V30 35 1 25 14
M  V30 36 1 31 26
M  V30 37 1 22 16
M  V30 38 1 1 34
M  V30 39 1 1 35
M  V30 40 1 1 36
M  V30 41 1 3 37
M  V30 42 1 5 38
M  V30 43 1 5 39
M  V30 44 1 5 40
M  V30 45 1 6 41
M  V30 46 1 8 42
M  V30 47 1 10 43
M  V30 48 1 11 44
M  V30 49 1 12 45
M  V30 50 1 17 46
M  V30 51 1 18 47
M  V30 52 1 21 48
M  V30 53 1 22 49
M  V30 54 1 26 50
M  V30 55 1 27 51
M  V30 56 1 27 52
M  V30 57 1 28 53
M  V30 58 1 28 54
M  V30 59 1 29 55
M  V30 60 1 30 56
M  V30 61 1 30 57
M  V30 62 1 31 58
M  V30 63 1 31 59
M  V30 64 1 33 60
M  V30 END BOND
M  V30 END CTAB
M  END
>  <Dataset>  (923) 
ChEMBL_Kinases

>  <Ligand_Instance>  (923) 
nan

>  <PDB_ID>  (923) 
nan

>  <Standardized_SMILES>  (923) 
Cc1cc(C)cc(Nc2cccc(-c3c(-c4ccc(F)cc4)nnn3C3CCNCC3)n2)c1

>  <Name>  (923) 
nan

>  <Pocket>  (923) 
nan

>  <ATP_Site>  (923) 
nan

>  <Peripheral>  (923) 
nan

>  <Num_H_Atoms_ProtBoundConf>  (923) 
nan

>  <Num_Resolved_Atoms>  (923) 
nan

>  <Num_Not_Resolved_Atoms>  (923) 
nan

$$$$
CHEMBL4437570
     RDKit          3D

  0  0  0  0  0  0  0  0  0  0999 V3000
M  V30 BEGIN CTAB
M  V30 COUNTS 38 40 0 0 0
M  V30 BEGIN ATOM
M  V30 1 C -1.434382 -2.706571 3.611233 0
M  V30 2 C -1.694272 -3.371139 2.292147 0
M  V30 3 C -0.480062 -3.331359 1.380105 0
M  V30 4 C 0.722940 -4.029198 1.979116 0
M  V30 5 N -0.156413 -2.082602 0.811900 0
M  V30 6 C 0.168171 -0.830255 0.242210 0
M  V30 7 N 0.492724 0.321814 0.850976 0
M  V30 8 C 0.773631 1.430094 0.164118 0
M  V30 9 C 1.109342 2.626617 0.923866 0
M  V30 10 C 1.403017 3.749241 0.181662 0
M  V30 11 C 1.722448 4.891943 0.889209 0
M  V30 12 N 1.751061 4.927200 2.254105 0
M  V30 13 C 1.449019 3.778707 2.885051 0
M  V30 14 C 1.114636 2.574334 2.301488 0
M  V30 15 N 0.718948 1.348454 -1.165912 0
M  V30 16 C 0.413033 0.276376 -1.890153 0
M  V30 17 C 0.420062 0.427266 -3.241428 0
M  V30 18 N 0.100795 -0.694776 -3.955865 0
M  V30 19 C -0.193578 -1.847780 -3.329013 0
M  V30 20 C -0.186517 -1.948403 -1.956187 0
M  V30 21 C 0.125917 -0.859431 -1.154119 0
M  V30 22 H -1.803993 -3.310197 4.472847 0
M  V30 23 H -0.368134 -2.446856 3.770828 0
M  V30 24 H -1.990759 -1.733006 3.688773 0
M  V30 25 H -2.560081 -2.907312 1.800687 0
M  V30 26 H -1.948412 -4.435833 2.465847 0
M  V30 27 H -0.786959 -4.027353 0.520811 0
M  V30 28 H 1.419779 -3.301959 2.485056 0
M  V30 29 H 1.323709 -4.451588 1.149258 0
M  V30 30 H 0.403032 -4.840683 2.631749 0
M  V30 31 H -0.050016 -1.820248 1.838111 0
M  V30 32 H 1.379933 3.718321 -0.898943 0
M  V30 33 H 1.954338 5.779686 0.279147 0
M  V30 34 H 1.492366 3.882962 3.978214 0
M  V30 35 H 0.884666 1.694489 2.882758 0
M  V30 36 H 0.661073 1.368386 -3.713773 0
M  V30 37 H -0.453724 -2.765598 -3.873965 0
M  V30 38 H -0.422618 -2.874879 -1.469732 0
M  V30 END ATOM
M  V30 BEGIN BOND
M  V30 1 1 1 2
M  V30 2 1 2 3
M  V30 3 1 3 4
M  V30 4 1 3 5
M  V30 5 1 5 6
M  V30 6 2 6 7
M  V30 7 1 7 8
M  V30 8 1 8 9
M  V30 9 2 9 10
M  V30 10 1 10 11
M  V30 11 2 11 12
M  V30 12 1 12 13
M  V30 13 2 13 14
M  V30 14 2 8 15
M  V30 15 1 15 16
M  V30 16 2 16 17
M  V30 17 1 17 18
M  V30 18 2 18 19
M  V30 19 1 19 20
M  V30 20 2 20 21
M  V30 21 1 21 6
M  V30 22 1 14 9
M  V30 23 1 21 16
M  V30 24 1 1 22
M  V30 25 1 1 23
M  V30 26 1 1 24
M  V30 27 1 2 25
M  V30 28 1 2 26
M  V30 29 1 3 27
M  V30 30 1 4 28
M  V30 31 1 4 29
M  V30 32 1 4 30
M  V30 33 1 5 31
M  V30 34 1 10 32
M  V30 35 1 11 33
M  V30 36 1 13 34
M  V30 37 1 14 35
M  V30 38 1 17 36
M  V30 39 1 19 37
M  V30 40 1 20 38
M  V30 END BOND
M  V30 END CTAB
M  END
>  <Dataset>  (924) 
ChEMBL_Kinases

>  <Ligand_Instance>  (924) 
nan

>  <PDB_ID>  (924) 
nan

>  <Standardized_SMILES>  (924) 
CCC(C)Nc1nc(-c2ccncc2)nc2cnccc12

>  <Name>  (924) 
nan

>  <Pocket>  (924) 
nan

>  <ATP_Site>  (924) 
nan

>  <Peripheral>  (924) 
nan

>  <Num_H_Atoms_ProtBoundConf>  (924) 
nan

>  <Num_Resolved_Atoms>  (924) 
nan

>  <Num_Not_Resolved_Atoms>  (924) 
nan

$$$$
CHEMBL4437566
     RDKit          3D

  0  0  0  0  0  0  0  0  0  0999 V3000
M  V30 BEGIN CTAB
M  V30 COUNTS 41 44 0 0 0
M  V30 BEGIN ATOM
M  V30 1 O 2.640948 -0.952685 1.174835 0
M  V30 2 C 1.569360 -1.018122 0.489379 0
M  V30 3 N 1.673471 -1.749952 -0.713803 0
M  V30 4 C 3.002198 -2.343933 -1.025091 0
M  V30 5 N 3.374090 -3.380468 -0.720942 0
M  V30 6 C 4.533644 -3.985771 -0.952876 0
M  V30 7 C 4.971492 -5.238284 -0.580214 0
M  V30 8 C 6.228351 -5.674577 -0.930074 0
M  V30 9 C 7.134379 -4.922270 -1.661631 0
M  V30 10 Cl 8.744248 -5.396839 -2.147642 0
M  V30 11 C 6.715383 -3.668231 -2.043312 0
M  V30 12 C 5.434170 -3.257041 -1.671587 0
M  V30 13 S 4.539177 -1.695356 -1.984414 0
M  V30 14 C 0.325219 -0.382141 0.918709 0
M  V30 15 C -0.865457 -0.414786 0.224778 0
M  V30 16 C -1.988947 0.216303 0.712848 0
M  V30 17 C -2.001735 0.907669 1.899888 0
M  V30 18 N -3.160555 1.534508 2.362217 0
M  V30 19 C -4.456140 1.564876 1.720400 0
M  V30 20 C -4.891318 3.000637 1.524670 0
M  V30 21 O -3.911752 3.902538 1.935336 0
M  V30 22 C -3.699784 3.730412 3.306180 0
M  V30 23 C -3.320516 2.290538 3.583415 0
M  V30 24 C -0.817998 0.937282 2.584795 0
M  V30 25 C 0.326824 0.311271 2.116887 0
M  V30 26 H 0.873177 -1.867074 -1.343593 0
M  V30 27 H 4.409780 -5.968470 -0.008156 0
M  V30 28 H 6.614804 -6.668191 -0.651368 0
M  V30 29 H 7.254386 -2.924214 -2.611836 0
M  V30 30 H -0.836696 -0.962626 -0.706729 0
M  V30 31 H -2.840368 0.102198 0.060290 0
M  V30 32 H -5.223695 1.102106 2.403522 0
M  V30 33 H -4.481011 1.027687 0.747879 0
M  V30 34 H -5.869175 3.224276 2.044070 0
M  V30 35 H -5.047714 3.162334 0.419149 0
M  V30 36 H -2.873538 4.397315 3.612386 0
M  V30 37 H -4.599815 4.060750 3.863840 0
M  V30 38 H -2.393315 2.277125 4.176955 0
M  V30 39 H -4.107118 1.836668 4.222168 0
M  V30 40 H -0.692578 1.439631 3.518914 0
M  V30 41 H 1.266962 0.348857 2.684841 0
M  V30 END ATOM
M  V30 BEGIN BOND
M  V30 1 2 1 2
M  V30 2 1 2 3
M  V30 3 1 3 4
M  V30 4 2 4 5
M  V30 5 1 5 6
M  V30 6 2 6 7
M  V30 7 1 7 8
M  V30 8 2 8 9
M  V30 9 1 9 10
M  V30 10 1 9 11
M  V30 11 2 11 12
M  V30 12 1 12 13
M  V30 13 1 2 14
M  V30 14 2 14 15
M  V30 15 1 15 16
M  V30 16 2 16 17
M  V30 17 1 17 18
M  V30 18 1 18 19
M  V30 19 1 19 20
M  V30 20 1 20 21
M  V30 21 1 21 22
M  V30 22 1 22 23
M  V30 23 1 17 24
M  V30 24 2 24 25
M  V30 25 1 13 4
M  V30 26 1 25 14
M  V30 27 1 12 6
M  V30 28 1 23 18
M  V30 29 1 3 26
M  V30 30 1 7 27
M  V30 31 1 8 28
M  V30 32 1 11 29
M  V30 33 1 15 30
M  V30 34 1 16 31
M  V30 35 1 19 32
M  V30 36 1 19 33
M  V30 37 1 20 34
M  V30 38 1 20 35
M  V30 39 1 22 36
M  V30 40 1 22 37
M  V30 41 1 23 38
M  V30 42 1 23 39
M  V30 43 1 24 40
M  V30 44 1 25 41
M  V30 END BOND
M  V30 END CTAB
M  END
>  <Dataset>  (925) 
ChEMBL_Kinases

>  <Ligand_Instance>  (925) 
nan

>  <PDB_ID>  (925) 
nan

>  <Standardized_SMILES>  (925) 
O=C(Nc1nc2ccc(Cl)cc2s1)c1ccc(N2CCOCC2)cc1

>  <Name>  (925) 
nan

>  <Pocket>  (925) 
nan

>  <ATP_Site>  (925) 
nan

>  <Peripheral>  (925) 
nan

>  <Num_H_Atoms_ProtBoundConf>  (925) 
nan

>  <Num_Resolved_Atoms>  (925) 
nan

>  <Num_Not_Resolved_Atoms>  (925) 
nan

$$$$
CHEMBL4437496
     RDKit          3D

  0  0  0  0  0  0  0  0  0  0999 V3000
M  V30 BEGIN CTAB
M  V30 COUNTS 36 38 0 0 0
M  V30 BEGIN ATOM
M  V30 1 C -1.833664 -2.816048 1.571072 0
M  V30 2 C -0.818436 -3.682223 2.250257 0
M  V30 3 C 0.590263 -3.463618 1.825195 0
M  V30 4 N 1.126011 -2.154005 2.030544 0
M  V30 5 C 1.049092 -0.911021 1.367468 0
M  V30 6 C 0.381608 -0.682745 0.188392 0
M  V30 7 C 0.301558 0.492878 -0.504360 0
M  V30 8 C -0.423164 0.676253 -1.752741 0
M  V30 9 C -1.132057 -0.288347 -2.424244 0
M  V30 10 C -1.798197 -0.053517 -3.603643 0
M  V30 11 N -1.745295 1.186946 -4.115011 0
M  V30 12 C -1.075381 2.195077 -3.526836 0
M  V30 13 C -0.416289 1.929157 -2.343777 0
M  V30 14 N 0.971030 1.540446 0.064251 0
M  V30 15 C 1.646372 1.393299 1.216138 0
M  V30 16 C 2.296162 2.496448 1.727114 0
M  V30 17 N 3.006824 2.463447 2.881766 0
M  V30 18 C 3.080809 1.286337 3.566186 0
M  V30 19 C 2.424900 0.200894 3.036870 0
M  V30 20 C 1.695716 0.191074 1.872998 0
M  V30 21 H -1.759460 -1.747243 1.766343 0
M  V30 22 H -2.841487 -3.168745 1.940696 0
M  V30 23 H -1.764911 -3.027438 0.471911 0
M  V30 24 H -0.957558 -3.620409 3.355717 0
M  V30 25 H -1.130057 -4.746360 2.018031 0
M  V30 26 H 0.605241 -3.662341 0.707863 0
M  V30 27 H 1.206442 -4.294039 2.243749 0
M  V30 28 H 1.689697 -2.230689 2.899606 0
M  V30 29 H -0.140457 -1.479667 -0.288821 0
M  V30 30 H -1.168652 -1.264048 -2.013952 0
M  V30 31 H -2.337475 -0.859188 -4.079942 0
M  V30 32 H -1.052456 3.197253 -3.971693 0
M  V30 33 H 0.116192 2.753106 -1.887139 0
M  V30 34 H 2.246608 3.438433 1.194894 0
M  V30 35 H 3.645795 1.264521 4.482077 0
M  V30 36 H 2.528340 -0.680751 3.628004 0
M  V30 END ATOM
M  V30 BEGIN BOND
M  V30 1 1 1 2
M  V30 2 1 2 3
M  V30 3 1 3 4
M  V30 4 1 4 5
M  V30 5 2 5 6
M  V30 6 1 6 7
M  V30 7 1 7 8
M  V30 8 2 8 9
M  V30 9 1 9 10
M  V30 10 2 10 11
M  V30 11 1 11 12
M  V30 12 2 12 13
M  V30 13 2 7 14
M  V30 14 1 14 15
M  V30 15 2 15 16
M  V30 16 1 16 17
M  V30 17 2 17 18
M  V30 18 1 18 19
M  V30 19 2 19 20
M  V30 20 1 20 5
M  V30 21 1 13 8
M  V30 22 1 20 15
M  V30 23 1 1 21
M  V30 24 1 1 22
M  V30 25 1 1 23
M  V30 26 1 2 24
M  V30 27 1 2 25
M  V30 28 1 3 26
M  V30 29 1 3 27
M  V30 30 1 4 28
M  V30 31 1 6 29
M  V30 32 1 9 30
M  V30 33 1 10 31
M  V30 34 1 12 32
M  V30 35 1 13 33
M  V30 36 1 16 34
M  V30 37 1 18 35
M  V30 38 1 19 36
M  V30 END BOND
M  V30 END CTAB
M  END
>  <Dataset>  (926) 
ChEMBL_Kinases

>  <Ligand_Instance>  (926) 
nan

>  <PDB_ID>  (926) 
nan

>  <Standardized_SMILES>  (926) 
CCCNc1cc(-c2ccncc2)nc2cnccc12

>  <Name>  (926) 
nan

>  <Pocket>  (926) 
nan

>  <ATP_Site>  (926) 
nan

>  <Peripheral>  (926) 
nan

>  <Num_H_Atoms_ProtBoundConf>  (926) 
nan

>  <Num_Resolved_Atoms>  (926) 
nan

>  <Num_Not_Resolved_Atoms>  (926) 
nan

$$$$
CHEMBL4437415
     RDKit          3D

  0  0  0  0  0  0  0  0  0  0999 V3000
M  V30 BEGIN CTAB
M  V30 COUNTS 48 50 0 0 0
M  V30 BEGIN ATOM
M  V30 1 C 0.602592 -6.896126 -0.274885 0
M  V30 2 N -0.403477 -5.919484 -0.604197 0
M  V30 3 C -1.736704 -6.321795 -0.995023 0
M  V30 4 C -0.059542 -4.539668 -0.537628 0
M  V30 5 C -0.212344 -3.765714 0.620124 0
M  V30 6 C 0.156312 -2.426471 0.571888 0
M  V30 7 C 0.665449 -1.822854 -0.561383 0
M  V30 8 C 1.022987 -0.407794 -0.509201 0
M  V30 9 C 1.536990 0.269901 -1.592715 0
M  V30 10 C 1.856473 1.607518 -1.482048 0
M  V30 11 N 2.363858 2.323138 -2.511670 0
M  V30 12 C 2.646686 3.624481 -2.313398 0
M  V30 13 C 2.442702 4.278248 -1.093852 0
M  V30 14 N 1.932570 3.521951 -0.090157 0
M  V30 15 C 1.642494 2.221034 -0.264615 0
M  V30 16 C 1.119576 1.530167 0.836441 0
M  V30 17 N 0.906355 2.179508 2.083950 0
M  V30 18 C 0.371939 1.520823 3.248262 0
M  V30 19 C -0.993282 0.959747 3.042201 0
M  V30 20 C -2.040519 1.967570 2.672995 0
M  V30 21 C -2.269394 3.045789 3.655554 0
M  V30 22 N -2.693637 2.505559 4.938213 0
M  V30 23 N 0.826521 0.220470 0.664141 0
M  V30 24 C 0.791074 -2.638280 -1.666546 0
M  V30 25 N 0.437974 -3.937225 -1.634220 0
M  V30 26 H 0.217569 -7.928362 -0.417851 0
M  V30 27 H 1.513272 -6.751132 -0.883961 0
M  V30 28 H 0.912650 -6.801502 0.794179 0
M  V30 29 H -2.421728 -6.390233 -0.104443 0
M  V30 30 H -2.199156 -5.544302 -1.646953 0
M  V30 31 H -1.750677 -7.331449 -1.451133 0
M  V30 32 H -0.611000 -4.246640 1.500351 0
M  V30 33 H -0.002138 -1.924018 1.515993 0
M  V30 34 H 1.695544 -0.232059 -2.535352 0
M  V30 35 H 3.043432 4.114204 -3.178260 0
M  V30 36 H 2.690115 5.325718 -0.998204 0
M  V30 37 H 1.154701 3.191869 2.149010 0
M  V30 38 H 0.525137 2.123518 4.139093 0
M  V30 39 H 1.041433 0.623450 3.413265 0
M  V30 40 H -0.918817 0.156830 2.279755 0
M  V30 41 H -1.357197 0.429855 3.947877 0
M  V30 42 H -3.013352 1.483974 2.448280 0
M  V30 43 H -1.719711 2.402533 1.700864 0
M  V30 44 H -1.455776 3.779741 3.756671 0
M  V30 45 H -3.145073 3.634626 3.305872 0
M  V30 46 H -3.541655 1.924401 4.735134 0
M  V30 47 H -2.013272 1.890609 5.393154 0
M  V30 48 H 1.186069 -2.199337 -2.570845 0
M  V30 END ATOM
M  V30 BEGIN BOND
M  V30 1 1 1 2
M  V30 2 1 2 3
M  V30 3 1 2 4
M  V30 4 2 4 5
M  V30 5 1 5 6
M  V30 6 2 6 7
M  V30 7 1 7 8
M  V30 8 2 8 9
M  V30 9 1 9 10
M  V30 10 2 10 11
M  V30 11 1 11 12
M  V30 12 2 12 13
M  V30 13 1 13 14
M  V30 14 2 14 15
M  V30 15 1 15 16
M  V30 16 1 16 17
M  V30 17 1 17 18
M  V30 18 1 18 19
M  V30 19 1 19 20
M  V30 20 1 20 21
M  V30 21 1 21 22
M  V30 22 2 16 23
M  V30 23 1 7 24
M  V30 24 2 24 25
M  V30 25 1 25 4
M  V30 26 1 23 8
M  V30 27 1 15 10
M  V30 28 1 1 26
M  V30 29 1 1 27
M  V30 30 1 1 28
M  V30 31 1 3 29
M  V30 32 1 3 30
M  V30 33 1 3 31
M  V30 34 1 5 32
M  V30 35 1 6 33
M  V30 36 1 9 34
M  V30 37 1 12 35
M  V30 38 1 13 36
M  V30 39 1 17 37
M  V30 40 1 18 38
M  V30 41 1 18 39
M  V30 42 1 19 40
M  V30 43 1 19 41
M  V30 44 1 20 42
M  V30 45 1 20 43
M  V30 46 1 21 44
M  V30 47 1 21 45
M  V30 48 1 22 46
M  V30 49 1 22 47
M  V30 50 1 24 48
M  V30 END BOND
M  V30 END CTAB
M  END
>  <Dataset>  (927) 
ChEMBL_Kinases

>  <Ligand_Instance>  (927) 
nan

>  <PDB_ID>  (927) 
nan

>  <Standardized_SMILES>  (927) 
CN(C)c1ccc(-c2cc3nccnc3c(NCCCCN)n2)cn1

>  <Name>  (927) 
nan

>  <Pocket>  (927) 
nan

>  <ATP_Site>  (927) 
nan

>  <Peripheral>  (927) 
nan

>  <Num_H_Atoms_ProtBoundConf>  (927) 
nan

>  <Num_Resolved_Atoms>  (927) 
nan

>  <Num_Not_Resolved_Atoms>  (927) 
nan

$$$$
CHEMBL4439095
     RDKit          3D

  0  0  0  0  0  0  0  0  0  0999 V3000
M  V30 BEGIN CTAB
M  V30 COUNTS 86 91 0 0 0
M  V30 BEGIN ATOM
M  V30 1 C -0.301801 -2.649731 4.750540 0
M  V30 2 C 0.266339 -3.488684 3.628652 0
M  V30 3 C -0.823073 -3.993419 2.744567 0
M  V30 4 O 1.239639 -2.742936 2.882144 0
M  V30 5 C 2.568168 -3.211191 2.980033 0
M  V30 6 N 2.863032 -4.264016 3.725296 0
M  V30 7 C 4.120352 -4.713453 3.824591 0
M  V30 8 C 5.090663 -4.031286 3.116981 0
M  V30 9 C 4.727688 -2.953568 2.365917 0
M  V30 10 C 3.420455 -2.453552 2.237891 0
M  V30 11 C 3.306498 -1.295175 1.365830 0
M  V30 12 N 3.130610 -0.021659 2.015412 0
M  V30 13 C 2.062765 0.688048 2.614392 0
M  V30 14 N 2.375428 1.830426 3.281272 0
M  V30 15 C 1.437310 2.594000 3.847040 0
M  V30 16 C 0.137555 2.198686 3.740342 0
M  V30 17 C -0.845972 3.054375 4.365058 0
M  V30 18 N -1.644421 3.736321 4.872071 0
M  V30 19 C -0.229673 1.033994 3.065231 0
M  V30 20 N -1.610550 0.667030 2.979879 0
M  V30 21 C -2.365852 -0.373234 2.407959 0
M  V30 22 C -2.426753 -0.496978 0.926354 0
M  V30 23 C -3.330774 -1.717333 0.676580 0
M  V30 24 C -3.636715 -1.931660 -0.762719 0
M  V30 25 C -2.321423 -2.159707 -1.472101 0
M  V30 26 C -1.478994 -0.941848 -1.274053 0
M  V30 27 C -1.145398 -0.674780 0.203509 0
M  V30 28 C -2.055450 0.329903 -1.805726 0
M  V30 29 N -2.335876 0.286180 -3.217768 0
M  V30 30 C -1.234724 -0.055329 -4.035147 0
M  V30 31 C -0.106113 0.902636 -4.127428 0 CFG=1
M  V30 32 C 0.917128 0.248097 -5.073400 0
M  V30 33 C 2.242102 0.974809 -5.013476 0
M  V30 34 C 2.059659 2.460022 -4.822425 0 CFG=2
M  V30 35 O 2.136518 2.824839 -3.490733 0
M  V30 36 C 0.740692 2.847884 -5.451092 0
M  V30 37 C -0.441139 2.251247 -4.702798 0
M  V30 38 C -3.429169 0.483100 -1.130044 0
M  V30 39 C -4.292076 -0.734600 -1.377104 0
M  V30 40 C -3.194258 0.681298 0.341763 0
M  V30 41 N 0.777861 0.327790 2.528344 0
M  V30 42 H -1.384018 -2.855632 4.840214 0
M  V30 43 H 0.240959 -2.864618 5.710140 0
M  V30 44 H -0.114336 -1.589480 4.500884 0
M  V30 45 H 0.845829 -4.360014 4.045091 0
M  V30 46 H -0.762654 -3.615655 1.708180 0
M  V30 47 H -1.796189 -3.701234 3.162267 0
M  V30 48 H -0.825045 -5.120495 2.708712 0
M  V30 49 H 4.268007 -5.565833 4.446769 0
M  V30 50 H 6.087850 -4.401073 3.206578 0
M  V30 51 H 5.586437 -2.493241 1.850204 0
M  V30 52 H 4.084011 -1.305904 0.577140 0
M  V30 53 H 2.349576 -1.462450 0.754189 0
M  V30 54 H 4.089683 0.446643 2.009338 0
M  V30 55 H 1.705584 3.493285 4.369856 0
M  V30 56 H -2.253103 1.366804 3.480768 0
M  V30 57 H -3.424666 -0.347516 2.769933 0
M  V30 58 H -1.979991 -1.341456 2.830631 0
M  V30 59 H -2.839504 -2.577189 1.128508 0
M  V30 60 H -4.248922 -1.499255 1.251815 0
M  V30 61 H -4.281441 -2.816730 -0.833925 0
M  V30 62 H -2.431445 -2.324700 -2.546253 0
M  V30 63 H -1.806293 -2.995179 -0.954772 0
M  V30 64 H -0.493720 -1.175093 -1.770422 0
M  V30 65 H -0.568982 0.278825 0.152452 0
M  V30 66 H -0.529670 -1.484594 0.586980 0
M  V30 67 H -1.459742 1.180932 -1.472072 0
M  V30 68 H -2.949124 1.031553 -3.544585 0
M  V30 69 H -1.637665 -0.172531 -5.085869 0
M  V30 70 H -0.830597 -1.058681 -3.795698 0
M  V30 71 H 0.454076 1.065261 -3.195687 0
M  V30 72 H 0.515396 0.344761 -6.081838 0
M  V30 73 H 1.094662 -0.806994 -4.822129 0
M  V30 74 H 2.933889 0.608577 -4.256037 0
M  V30 75 H 2.723138 0.785747 -6.009093 0
M  V30 76 H 2.853200 3.015311 -5.364741 0
M  V30 77 H 1.382252 3.397896 -3.201719 0
M  V30 78 H 0.646376 3.941682 -5.395539 0
M  V30 79 H 0.773751 2.512118 -6.512551 0
M  V30 80 H -0.719188 2.976021 -3.911823 0
M  V30 81 H -1.296642 2.240641 -5.408395 0
M  V30 82 H -3.954259 1.351041 -1.549345 0
M  V30 83 H -5.271620 -0.517472 -0.951759 0
M  V30 84 H -4.324857 -0.873989 -2.476417 0
M  V30 85 H -4.215806 0.604570 0.817888 0
M  V30 86 H -2.717981 1.640798 0.547877 0
M  V30 END ATOM
M  V30 BEGIN BOND
M  V30 1 1 1 2
M  V30 2 1 2 3
M  V30 3 1 2 4
M  V30 4 1 4 5
M  V30 5 2 5 6
M  V30 6 1 6 7
M  V30 7 2 7 8
M  V30 8 1 8 9
M  V30 9 2 9 10
M  V30 10 1 10 11
M  V30 11 1 11 12
M  V30 12 1 12 13
M  V30 13 2 13 14
M  V30 14 1 14 15
M  V30 15 2 15 16
M  V30 16 1 16 17
M  V30 17 3 17 18
M  V30 18 1 16 19
M  V30 19 1 19 20
M  V30 20 1 20 21
M  V30 21 1 21 22
M  V30 22 1 22 23
M  V30 23 1 23 24
M  V30 24 1 24 25
M  V30 25 1 25 26
M  V30 26 1 26 27
M  V30 27 1 26 28
M  V30 28 1 28 29
M  V30 29 1 29 30
M  V30 30 1 30 31
M  V30 31 1 31 32
M  V30 32 1 32 33
M  V30 33 1 33 34
M  V30 34 1 34 35
M  V30 35 1 34 36
M  V30 36 1 36 37
M  V30 37 1 28 38
M  V30 38 1 38 39
M  V30 39 1 38 40
M  V30 40 2 19 41
M  V30 41 1 10 5
M  V30 42 1 41 13
M  V30 43 1 27 22
M  V30 44 1 37 31
M  V30 45 1 40 22
M  V30 46 1 39 24
M  V30 47 1 1 42
M  V30 48 1 1 43
M  V30 49 1 1 44
M  V30 50 1 2 45
M  V30 51 1 3 46
M  V30 52 1 3 47
M  V30 53 1 3 48
M  V30 54 1 7 49
M  V30 55 1 8 50
M  V30 56 1 9 51
M  V30 57 1 11 52
M  V30 58 1 11 53
M  V30 59 1 12 54
M  V30 60 1 15 55
M  V30 61 1 20 56
M  V30 62 1 21 57
M  V30 63 1 21 58
M  V30 64 1 23 59
M  V30 65 1 23 60
M  V30 66 1 24 61
M  V30 67 1 25 62
M  V30 68 1 25 63
M  V30 69 1 26 64
M  V30 70 1 27 65
M  V30 71 1 27 66
M  V30 72 1 28 67
M  V30 73 1 29 68
M  V30 74 1 30 69
M  V30 75 1 30 70
M  V30 76 1 31 71 CFG=1
M  V30 77 1 32 72
M  V30 78 1 32 73
M  V30 79 1 33 74
M  V30 80 1 33 75
M  V30 81 1 34 76 CFG=3
M  V30 82 1 35 77
M  V30 83 1 36 78
M  V30 84 1 36 79
M  V30 85 1 37 80
M  V30 86 1 37 81
M  V30 87 1 38 82
M  V30 88 1 39 83
M  V30 89 1 39 84
M  V30 90 1 40 85
M  V30 91 1 40 86
M  V30 END BOND
M  V30 END CTAB
M  END
>  <Dataset>  (928) 
ChEMBL_Kinases

>  <Ligand_Instance>  (928) 
nan

>  <PDB_ID>  (928) 
nan

>  <Standardized_SMILES>  (928) 
CC(C)Oc1ncccc1CNc1ncc(C#N)c(NCC23CC4CC(C2)C(NC[C@H]2CC[C@H](O)CC2)C(C4)C3)n1

>  <Name>  (928) 
nan

>  <Pocket>  (928) 
nan

>  <ATP_Site>  (928) 
nan

>  <Peripheral>  (928) 
nan

>  <Num_H_Atoms_ProtBoundConf>  (928) 
nan

>  <Num_Resolved_Atoms>  (928) 
nan

>  <Num_Not_Resolved_Atoms>  (928) 
nan

$$$$
CHEMBL4437227
     RDKit          3D

  0  0  0  0  0  0  0  0  0  0999 V3000
M  V30 BEGIN CTAB
M  V30 COUNTS 68 72 0 0 0
M  V30 BEGIN ATOM
M  V30 1 C 0.087305 -2.870624 4.952572 0
M  V30 2 C 0.932995 -1.801509 4.350440 0
M  V30 3 N 1.829104 -1.128664 5.096350 0
M  V30 4 C 2.621267 -0.148835 4.595972 0
M  V30 5 C 2.500432 0.182273 3.240747 0
M  V30 6 N 3.259091 1.193215 2.593412 0
M  V30 7 C 4.471313 1.353192 1.894592 0
M  V30 8 O 5.124032 0.290998 1.780634 0
M  V30 9 C 4.858913 2.656431 1.388168 0
M  V30 10 C 6.059010 2.622109 0.697411 0
M  V30 11 C 6.555662 3.820287 0.150716 0
M  V30 12 C 5.801342 4.959377 0.344619 0
M  V30 13 C 4.612245 4.981574 1.030169 0
M  V30 14 C 3.771591 6.184244 1.255578 0
M  V30 15 F 3.337356 6.277674 2.568967 0
M  V30 16 F 2.670206 6.108005 0.416790 0
M  V30 17 F 4.482191 7.334662 0.885516 0
M  V30 18 C 4.142854 3.807235 1.555064 0
M  V30 19 C 1.571330 -0.512345 2.465857 0
M  V30 20 C 0.769797 -1.521883 3.015801 0
M  V30 21 C -0.146794 -2.138376 2.068719 0
M  V30 22 C -0.498983 -3.477181 1.926725 0
M  V30 23 N -1.341873 -3.928895 0.990600 0
M  V30 24 C -1.937194 -3.122657 0.090001 0
M  V30 25 O -2.801745 -3.473135 -0.902761 0
M  V30 26 C -3.316679 -4.752606 -1.190831 0 CFG=1
M  V30 27 C -4.773056 -4.771897 -1.503261 0
M  V30 28 C -4.955041 -5.080973 -2.975038 0
M  V30 29 O -4.011099 -4.317288 -3.670005 0
M  V30 30 C -2.806109 -5.030167 -3.630166 0
M  V30 31 C -2.494279 -5.499655 -2.232916 0 CFG=1
M  V30 32 F -1.169746 -5.254865 -1.961440 0
M  V30 33 C -1.665565 -1.744936 0.132908 0
M  V30 34 N -2.237206 -0.749947 -0.746308 0
M  V30 35 C -3.681707 -0.630168 -0.588649 0
M  V30 36 C -4.236457 0.421923 -1.502488 0
M  V30 37 O -3.566135 1.620208 -1.492174 0
M  V30 38 C -2.204924 1.549232 -1.381550 0
M  V30 39 C -1.699710 0.153449 -1.742471 0
M  V30 40 C -0.777354 -1.331115 1.129910 0
M  V30 41 H 0.034833 -2.652497 6.051247 0
M  V30 42 H -0.909344 -2.898724 4.532598 0
M  V30 43 H 0.624407 -3.854459 4.875809 0
M  V30 44 H 3.349811 0.399913 5.187290 0
M  V30 45 H 2.577145 1.959326 2.790620 0
M  V30 46 H 6.694329 1.751741 0.519576 0
M  V30 47 H 7.492773 3.834833 -0.397496 0
M  V30 48 H 6.144661 5.912154 -0.058981 0
M  V30 49 H 3.198011 3.763968 2.111688 0
M  V30 50 H 1.495842 -0.234137 1.400551 0
M  V30 51 H -0.032545 -4.149796 2.631783 0
M  V30 52 H -3.152797 -5.366733 -0.260933 0
M  V30 53 H -5.317522 -5.548209 -0.903362 0
M  V30 54 H -5.317197 -3.820782 -1.272064 0
M  V30 55 H -6.001212 -4.899511 -3.295428 0
M  V30 56 H -4.659016 -6.166912 -3.091238 0
M  V30 57 H -2.932456 -5.907093 -4.294032 0
M  V30 58 H -1.994726 -4.411894 -4.066875 0
M  V30 59 H -2.650583 -6.592518 -2.141405 0
M  V30 60 H -4.133380 -1.589765 -0.898563 0
M  V30 61 H -3.963414 -0.448933 0.473551 0
M  V30 62 H -4.353867 -0.009652 -2.528831 0
M  V30 63 H -5.277967 0.641994 -1.123547 0
M  V30 64 H -1.774763 2.319509 -2.089777 0
M  V30 65 H -1.907368 1.745690 -0.344101 0
M  V30 66 H -2.034787 -0.092525 -2.776852 0
M  V30 67 H -0.586591 0.159521 -1.765352 0
M  V30 68 H -0.565879 -0.253740 1.170712 0
M  V30 END ATOM
M  V30 BEGIN BOND
M  V30 1 1 1 2
M  V30 2 2 2 3
M  V30 3 1 3 4
M  V30 4 2 4 5
M  V30 5 1 5 6
M  V30 6 1 6 7
M  V30 7 2 7 8
M  V30 8 1 7 9
M  V30 9 2 9 10
M  V30 10 1 10 11
M  V30 11 2 11 12
M  V30 12 1 12 13
M  V30 13 1 13 14
M  V30 14 1 14 15
M  V30 15 1 14 16
M  V30 16 1 14 17
M  V30 17 2 13 18
M  V30 18 1 5 19
M  V30 19 2 19 20
M  V30 20 1 20 21
M  V30 21 2 21 22
M  V30 22 1 22 23
M  V30 23 2 23 24
M  V30 24 1 24 25
M  V30 25 1 25 26
M  V30 26 1 26 27
M  V30 27 1 27 28
M  V30 28 1 28 29
M  V30 29 1 29 30
M  V30 30 1 30 31
M  V30 31 1 31 32
M  V30 32 1 24 33
M  V30 33 1 33 34
M  V30 34 1 34 35
M  V30 35 1 35 36
M  V30 36 1 36 37
M  V30 37 1 37 38
M  V30 38 1 38 39
M  V30 39 2 33 40
M  V30 40 1 20 2
M  V30 41 1 40 21
M  V30 42 1 18 9
M  V30 43 1 31 26
M  V30 44 1 39 34
M  V30 45 1 1 41
M  V30 46 1 1 42
M  V30 47 1 1 43
M  V30 48 1 4 44
M  V30 49 1 6 45
M  V30 50 1 10 46
M  V30 51 1 11 47
M  V30 52 1 12 48
M  V30 53 1 18 49
M  V30 54 1 19 50
M  V30 55 1 22 51
M  V30 56 1 26 52 CFG=1
M  V30 57 1 27 53
M  V30 58 1 27 54
M  V30 59 1 28 55
M  V30 60 1 28 56
M  V30 61 1 30 57
M  V30 62 1 30 58
M  V30 63 1 31 59 CFG=3
M  V30 64 1 35 60
M  V30 65 1 35 61
M  V30 66 1 36 62
M  V30 67 1 36 63
M  V30 68 1 38 64
M  V30 69 1 38 65
M  V30 70 1 39 66
M  V30 71 1 39 67
M  V30 72 1 40 68
M  V30 END BOND
M  V30 END CTAB
M  END
>  <Dataset>  (929) 
ChEMBL_Kinases

>  <Ligand_Instance>  (929) 
nan

>  <PDB_ID>  (929) 
nan

>  <Standardized_SMILES>  (929) 
Cc1ncc(NC(=O)c2cccc(C(F)(F)F)c2)cc1-c1cnc(O[C@H]2CCOC[C@H]2F)c(N2CCOCC2)c1

>  <Name>  (929) 
nan

>  <Pocket>  (929) 
nan

>  <ATP_Site>  (929) 
nan

>  <Peripheral>  (929) 
nan

>  <Num_H_Atoms_ProtBoundConf>  (929) 
nan

>  <Num_Resolved_Atoms>  (929) 
nan

>  <Num_Not_Resolved_Atoms>  (929) 
nan

$$$$
CHEMBL4437210
     RDKit          3D

  0  0  0  0  0  0  0  0  0  0999 V3000
M  V30 BEGIN CTAB
M  V30 COUNTS 52 55 0 0 0
M  V30 BEGIN ATOM
M  V30 1 C 0.816558 0.151767 1.817271 0
M  V30 2 C 0.971174 0.002735 0.336892 0
M  V30 3 C -0.023534 0.909939 -0.412358 0
M  V30 4 C 2.361260 0.301372 -0.091579 0
M  V30 5 N 2.883653 1.583314 0.119700 0
M  V30 6 C 3.168827 2.073391 1.411896 0
M  V30 7 C 4.402728 1.425633 2.022191 0
M  V30 8 O 5.485560 1.518932 1.144410 0
M  V30 9 C 5.220249 0.987562 -0.107787 0
M  V30 10 C 4.082502 1.782167 -0.724041 0
M  V30 11 N 0.563384 -1.359173 -0.011409 0
M  V30 12 C -0.691406 -1.953032 0.143521 0
M  V30 13 C -1.814938 -1.351725 0.659834 0
M  V30 14 C -3.065402 -1.898682 0.825183 0
M  V30 15 C -4.210178 -1.202144 1.379921 0
M  V30 16 C -4.257562 0.088224 1.826304 0
M  V30 17 C -5.374489 0.695464 2.343372 0
M  V30 18 N -6.528176 -0.022605 2.425867 0
M  V30 19 C -6.551416 -1.307198 2.001142 0
M  V30 20 C -5.410195 -1.880304 1.488800 0
M  V30 21 F -5.522176 -3.167619 1.088093 0
M  V30 22 N -3.185105 -3.198175 0.421119 0
M  V30 23 C -2.135737 -3.859060 -0.094694 0
M  V30 24 C -2.373823 -5.163652 -0.467433 0
M  V30 25 N -1.370544 -5.908392 -0.998408 0
M  V30 26 C -0.130447 -5.375756 -1.165547 0
M  V30 27 C 0.062391 -4.059286 -0.776192 0
M  V30 28 C -0.904878 -3.260556 -0.237106 0
M  V30 29 H 0.331564 1.056822 2.171565 0
M  V30 30 H 1.781949 -0.051447 2.366161 0
M  V30 31 H 0.163517 -0.690366 2.237497 0
M  V30 32 H -0.489031 1.550464 0.339884 0
M  V30 33 H -0.738325 0.337114 -1.026713 0
M  V30 34 H 0.546662 1.518602 -1.177937 0
M  V30 35 H 2.404384 0.100859 -1.203518 0
M  V30 36 H 3.090392 -0.480960 0.303745 0
M  V30 37 H 2.392777 2.133608 2.140884 0
M  V30 38 H 3.489457 3.170872 1.259039 0
M  V30 39 H 4.135854 0.409071 2.312343 0
M  V30 40 H 4.663474 2.022236 2.918580 0
M  V30 41 H 5.044190 -0.095182 -0.093518 0
M  V30 42 H 6.121119 1.231123 -0.738364 0
M  V30 43 H 4.353096 2.846854 -0.697345 0
M  V30 44 H 3.879166 1.460781 -1.740876 0
M  V30 45 H 1.344492 -1.885678 -0.412522 0
M  V30 46 H -1.783024 -0.326087 0.993108 0
M  V30 47 H -3.350357 0.669888 1.767127 0
M  V30 48 H -5.302291 1.735961 2.672357 0
M  V30 49 H -7.499409 -1.823396 2.093690 0
M  V30 50 H -3.363309 -5.617841 -0.343751 0
M  V30 51 H 0.629492 -6.007234 -1.590289 0
M  V30 52 H 1.050219 -3.715747 -0.936422 0
M  V30 END ATOM
M  V30 BEGIN BOND
M  V30 1 1 1 2
M  V30 2 1 2 3
M  V30 3 1 2 4
M  V30 4 1 4 5
M  V30 5 1 5 6
M  V30 6 1 6 7
M  V30 7 1 7 8
M  V30 8 1 8 9
M  V30 9 1 9 10
M  V30 10 1 2 11
M  V30 11 1 11 12
M  V30 12 2 12 13
M  V30 13 1 13 14
M  V30 14 1 14 15
M  V30 15 2 15 16
M  V30 16 1 16 17
M  V30 17 2 17 18
M  V30 18 1 18 19
M  V30 19 2 19 20
M  V30 20 1 20 21
M  V30 21 2 14 22
M  V30 22 1 22 23
M  V30 23 2 23 24
M  V30 24 1 24 25
M  V30 25 2 25 26
M  V30 26 1 26 27
M  V30 27 2 27 28
M  V30 28 1 10 5
M  V30 29 1 28 12
M  V30 30 1 20 15
M  V30 31 1 28 23
M  V30 32 1 1 29
M  V30 33 1 1 30
M  V30 34 1 1 31
M  V30 35 1 3 32
M  V30 36 1 3 33
M  V30 37 1 3 34
M  V30 38 1 4 35
M  V30 39 1 4 36
M  V30 40 1 6 37
M  V30 41 1 6 38
M  V30 42 1 7 39
M  V30 43 1 7 40
M  V30 44 1 9 41
M  V30 45 1 9 42
M  V30 46 1 10 43
M  V30 47 1 10 44
M  V30 48 1 11 45
M  V30 49 1 13 46
M  V30 50 1 16 47
M  V30 51 1 17 48
M  V30 52 1 19 49
M  V30 53 1 24 50
M  V30 54 1 26 51
M  V30 55 1 27 52
M  V30 END BOND
M  V30 END CTAB
M  END
>  <Dataset>  (930) 
ChEMBL_Kinases

>  <Ligand_Instance>  (930) 
nan

>  <PDB_ID>  (930) 
nan

>  <Standardized_SMILES>  (930) 
CC(C)(CN1CCOCC1)Nc1cc(-c2ccncc2F)nc2cnccc12

>  <Name>  (930) 
nan

>  <Pocket>  (930) 
nan

>  <ATP_Site>  (930) 
nan

>  <Peripheral>  (930) 
nan

>  <Num_H_Atoms_ProtBoundConf>  (930) 
nan

>  <Num_Resolved_Atoms>  (930) 
nan

>  <Num_Not_Resolved_Atoms>  (930) 
nan

$$$$
CHEMBL4437207
     RDKit          3D

  0  0  0  0  0  0  0  0  0  0999 V3000
M  V30 BEGIN CTAB
M  V30 COUNTS 38 41 0 0 0
M  V30 BEGIN ATOM
M  V30 1 N 0.853163 -4.069678 3.480149 0
M  V30 2 C 1.776162 -2.990546 3.466087 0
M  V30 3 N 2.686222 -3.105679 4.450066 0
M  V30 4 C 3.665016 -2.185277 4.624682 0
M  V30 5 C 3.659404 -1.119268 3.717101 0
M  V30 6 C 4.493467 -0.022121 3.601153 0
M  V30 7 C 4.029721 0.705321 2.533789 0
M  V30 8 N 2.953603 0.106314 1.992383 0
M  V30 9 C 2.237761 0.610861 0.868059 0
M  V30 10 C 2.900443 1.371855 -0.074623 0
M  V30 11 C 2.320119 1.915128 -1.202912 0
M  V30 12 N 0.990483 1.686167 -1.407813 0
M  V30 13 C 0.323176 0.935607 -0.483981 0
M  V30 14 C -1.075844 0.720883 -0.741850 0
M  V30 15 C -2.272966 0.535860 -0.940823 0
M  V30 16 C -3.696124 0.291869 -1.187516 0
M  V30 17 O -4.466563 1.180037 -0.452090 0
M  V30 18 C -4.062215 0.192820 -2.652499 0
M  V30 19 C -3.779597 -1.295641 -2.531240 0
M  V30 20 C -4.112867 -1.158640 -1.048059 0
M  V30 21 C 0.893017 0.393298 0.638220 0
M  V30 22 C 2.717407 -0.996907 2.695893 0
M  V30 23 N 1.767762 -1.951996 2.579028 0
M  V30 24 H -0.127396 -4.205456 3.807405 0
M  V30 25 H 0.800935 -5.085812 3.185802 0
M  V30 26 H 4.429795 -2.201842 5.383717 0
M  V30 27 H 5.345574 0.218741 4.227416 0
M  V30 28 H 4.470012 1.622754 2.186326 0
M  V30 29 H 3.967032 1.553523 0.092966 0
M  V30 30 H 2.952878 2.496325 -1.868122 0
M  V30 31 H -5.166558 1.528345 -1.060948 0
M  V30 32 H -3.394883 0.725341 -3.357588 0
M  V30 33 H -5.144709 0.363410 -2.782993 0
M  V30 34 H -2.685851 -1.473361 -2.646765 0
M  V30 35 H -4.437386 -1.937186 -3.117491 0
M  V30 36 H -5.204565 -1.229882 -0.847433 0
M  V30 37 H -3.474505 -1.756331 -0.386112 0
M  V30 38 H 0.343598 -0.189968 1.342797 0
M  V30 END ATOM
M  V30 BEGIN BOND
M  V30 1 1 1 2
M  V30 2 2 2 3
M  V30 3 1 3 4
M  V30 4 2 4 5
M  V30 5 1 5 6
M  V30 6 2 6 7
M  V30 7 1 7 8
M  V30 8 1 8 9
M  V30 9 2 9 10
M  V30 10 1 10 11
M  V30 11 2 11 12
M  V30 12 1 12 13
M  V30 13 1 13 14
M  V30 14 3 14 15
M  V30 15 1 15 16
M  V30 16 1 16 17
M  V30 17 1 16 18
M  V30 18 1 18 19
M  V30 19 1 19 20
M  V30 20 2 13 21
M  V30 21 1 8 22
M  V30 22 2 22 23
M  V30 23 1 23 2
M  V30 24 1 22 5
M  V30 25 1 21 9
M  V30 26 1 20 16
M  V30 27 1 1 24
M  V30 28 1 1 25
M  V30 29 1 4 26
M  V30 30 1 6 27
M  V30 31 1 7 28
M  V30 32 1 10 29
M  V30 33 1 11 30
M  V30 34 1 17 31
M  V30 35 1 18 32
M  V30 36 1 18 33
M  V30 37 1 19 34
M  V30 38 1 19 35
M  V30 39 1 20 36
M  V30 40 1 20 37
M  V30 41 1 21 38
M  V30 END BOND
M  V30 END CTAB
M  END
>  <Dataset>  (931) 
ChEMBL_Kinases

>  <Ligand_Instance>  (931) 
nan

>  <PDB_ID>  (931) 
nan

>  <Standardized_SMILES>  (931) 
Nc1ncc2ccn(-c3ccnc(C#CC4(O)CCC4)c3)c2n1

>  <Name>  (931) 
nan

>  <Pocket>  (931) 
nan

>  <ATP_Site>  (931) 
nan

>  <Peripheral>  (931) 
nan

>  <Num_H_Atoms_ProtBoundConf>  (931) 
nan

>  <Num_Resolved_Atoms>  (931) 
nan

>  <Num_Not_Resolved_Atoms>  (931) 
nan

$$$$
CHEMBL4752723
     RDKit          3D

  0  0  0  0  0  0  0  0  0  0999 V3000
M  V30 BEGIN CTAB
M  V30 COUNTS 77 82 0 0 0
M  V30 BEGIN ATOM
M  V30 1 C -0.035110 -0.692244 5.982406 0
M  V30 2 O 0.594097 -1.203307 4.818351 0
M  V30 3 C -0.070509 -1.251049 3.603154 0
M  V30 4 C -1.365353 -0.796360 3.513779 0
M  V30 5 C -2.071377 -0.821333 2.330732 0
M  V30 6 N -3.419393 -0.337071 2.250437 0
M  V30 7 C -4.328827 -0.480743 1.138324 0
M  V30 8 C -4.862963 0.775652 0.569222 0
M  V30 9 C -4.740266 2.004657 1.418131 0
M  V30 10 N -3.893715 2.952197 0.786163 0
M  V30 11 C -4.296872 3.434169 -0.476813 0
M  V30 12 C -3.616132 4.760491 -0.720963 0
M  V30 13 N -2.187626 4.679625 -0.654446 0
M  V30 14 C -1.577468 4.340950 -1.918823 0
M  V30 15 C -1.674299 3.930264 0.447816 0
M  V30 16 C -2.494749 2.758761 0.868748 0
M  V30 17 C -4.508878 1.776687 2.860358 0
M  V30 18 C -4.096024 0.394046 3.276133 0
M  V30 19 C -1.451250 -1.319624 1.207032 0
M  V30 20 C -0.151429 -1.767379 1.332754 0
M  V30 21 C 0.600665 -1.766280 2.486889 0
M  V30 22 N 1.930175 -2.225252 2.622478 0
M  V30 23 C 2.778962 -2.764006 1.613640 0
M  V30 24 N 4.016211 -3.155804 1.955454 0
M  V30 25 C 4.931185 -3.671841 1.145988 0
M  V30 26 C 4.577317 -3.820045 -0.175445 0
M  V30 27 C 3.314684 -3.424269 -0.544313 0
M  V30 28 N 2.449056 -2.914675 0.322939 0
M  V30 29 N 2.721049 -3.469239 -1.830405 0
M  V30 30 C 1.298729 -3.426868 -1.990914 0
M  V30 31 C 3.439595 -3.556081 -3.053036 0
M  V30 32 S 2.698504 -3.082911 -4.712421 0
M  V30 33 C 4.327751 -3.523612 -5.594634 0
M  V30 34 C 4.281372 -3.313604 -7.057240 0
M  V30 35 N 5.078018 -3.896743 -4.712604 0
M  V30 36 C 4.757440 -3.956434 -3.433489 0
M  V30 37 C 5.684261 -4.411246 -2.404906 0
M  V30 38 O 6.744604 -4.929304 -2.792416 0
M  V30 39 N 5.613796 -4.378287 -0.972569 0
M  V30 40 C 6.701402 -4.969832 -0.211254 0
M  V30 41 H 0.572491 -0.911703 6.894764 0
M  V30 42 H -0.133350 0.417772 5.923010 0
M  V30 43 H -1.016591 -1.148334 6.161528 0
M  V30 44 H -1.788020 -0.423434 4.422500 0
M  V30 45 H -5.205661 -1.073794 1.549994 0
M  V30 46 H -3.903191 -1.175864 0.381389 0
M  V30 47 H -5.931134 0.587452 0.248189 0
M  V30 48 H -4.316524 0.957122 -0.404073 0
M  V30 49 H -5.762756 2.503691 1.336655 0
M  V30 50 H -5.370710 3.564288 -0.621774 0
M  V30 51 H -3.878071 2.745311 -1.266754 0
M  V30 52 H -3.890159 5.080044 -1.751377 0
M  V30 53 H -4.055731 5.515893 -0.038023 0
M  V30 54 H -2.016362 5.005414 -2.691732 0
M  V30 55 H -0.495706 4.569626 -1.866372 0
M  V30 56 H -1.785231 3.287115 -2.169052 0
M  V30 57 H -1.452404 4.620776 1.295622 0
M  V30 58 H -0.663361 3.541894 0.124678 0
M  V30 59 H -2.259549 1.931547 0.140950 0
M  V30 60 H -2.130871 2.394008 1.834057 0
M  V30 61 H -5.395139 2.044026 3.467427 0
M  V30 62 H -3.694895 2.454347 3.199213 0
M  V30 63 H -3.577495 0.438950 4.254432 0
M  V30 64 H -5.032113 -0.186964 3.524963 0
M  V30 65 H -1.931062 -1.375398 0.225616 0
M  V30 66 H 0.287089 -2.145833 0.430983 0
M  V30 67 H 2.336954 -2.160191 3.585651 0
M  V30 68 H 5.894886 -3.961823 1.486160 0
M  V30 69 H 0.731710 -3.885569 -1.158359 0
M  V30 70 H 0.997274 -2.366521 -2.159228 0
M  V30 71 H 1.007344 -3.935199 -2.957184 0
M  V30 72 H 3.332424 -3.623722 -7.508967 0
M  V30 73 H 5.090447 -3.932836 -7.495187 0
M  V30 74 H 4.511543 -2.239821 -7.309010 0
M  V30 75 H 7.429247 -4.228051 0.167699 0
M  V30 76 H 7.298081 -5.563775 -0.965338 0
M  V30 77 H 6.361703 -5.715491 0.518387 0
M  V30 END ATOM
M  V30 BEGIN BOND
M  V30 1 1 1 2
M  V30 2 1 2 3
M  V30 3 2 3 4
M  V30 4 1 4 5
M  V30 5 1 5 6
M  V30 6 1 6 7
M  V30 7 1 7 8
M  V30 8 1 8 9
M  V30 9 1 9 10
M  V30 10 1 10 11
M  V30 11 1 11 12
M  V30 12 1 12 13
M  V30 13 1 13 14
M  V30 14 1 13 15
M  V30 15 1 15 16
M  V30 16 1 9 17
M  V30 17 1 17 18
M  V30 18 2 5 19
M  V30 19 1 19 20
M  V30 20 2 20 21
M  V30 21 1 21 22
M  V30 22 1 22 23
M  V30 23 2 23 24
M  V30 24 1 24 25
M  V30 25 2 25 26
M  V30 26 1 26 27
M  V30 27 2 27 28
M  V30 28 1 27 29
M  V30 29 1 29 30
M  V30 30 1 29 31
M  V30 31 1 31 32
M  V30 32 1 32 33
M  V30 33 1 33 34
M  V30 34 2 33 35
M  V30 35 1 35 36
M  V30 36 1 36 37
M  V30 37 2 37 38
M  V30 38 1 37 39
M  V30 39 1 39 40
M  V30 40 1 21 3
M  V30 41 1 28 23
M  V30 42 2 36 31
M  V30 43 1 18 6
M  V30 44 1 39 26
M  V30 45 1 16 10
M  V30 46 1 1 41
M  V30 47 1 1 42
M  V30 48 1 1 43
M  V30 49 1 4 44
M  V30 50 1 7 45
M  V30 51 1 7 46
M  V30 52 1 8 47
M  V30 53 1 8 48
M  V30 54 1 9 49
M  V30 55 1 11 50
M  V30 56 1 11 51
M  V30 57 1 12 52
M  V30 58 1 12 53
M  V30 59 1 14 54
M  V30 60 1 14 55
M  V30 61 1 14 56
M  V30 62 1 15 57
M  V30 63 1 15 58
M  V30 64 1 16 59
M  V30 65 1 16 60
M  V30 66 1 17 61
M  V30 67 1 17 62
M  V30 68 1 18 63
M  V30 69 1 18 64
M  V30 70 1 19 65
M  V30 71 1 20 66
M  V30 72 1 22 67
M  V30 73 1 25 68
M  V30 74 1 30 69
M  V30 75 1 30 70
M  V30 76 1 30 71
M  V30 77 1 34 72
M  V30 78 1 34 73
M  V30 79 1 34 74
M  V30 80 1 40 75
M  V30 81 1 40 76
M  V30 82 1 40 77
M  V30 END BOND
M  V30 END CTAB
M  END
>  <Dataset>  (932) 
ChEMBL_Kinases

>  <Ligand_Instance>  (932) 
nan

>  <PDB_ID>  (932) 
nan

>  <Standardized_SMILES>  (932) 
COc1cc(N2CCC(N3CCN(C)CC3)CC2)ccc1Nc1ncc2c(n1)N(C)c1sc(C)nc1C(=O)N2C

>  <Name>  (932) 
nan

>  <Pocket>  (932) 
nan

>  <ATP_Site>  (932) 
nan

>  <Peripheral>  (932) 
nan

>  <Num_H_Atoms_ProtBoundConf>  (932) 
nan

>  <Num_Resolved_Atoms>  (932) 
nan

>  <Num_Not_Resolved_Atoms>  (932) 
nan

$$$$
CHEMBL4437164
     RDKit          3D

  0  0  0  0  0  0  0  0  0  0999 V3000
M  V30 BEGIN CTAB
M  V30 COUNTS 43 44 0 0 0
M  V30 BEGIN ATOM
M  V30 1 C 4.403748 -5.413285 3.405665 0
M  V30 2 C 3.804622 -5.472023 2.033959 0
M  V30 3 O 3.248956 -4.268059 1.583320 0
M  V30 4 C 3.952048 -3.078716 1.427513 0
M  V30 5 O 5.173588 -3.120548 1.721046 0
M  V30 6 C 3.328968 -1.872192 0.960602 0
M  V30 7 C 2.071609 -1.717137 0.628453 0
M  V30 8 C 1.328756 -0.568729 0.149422 0
M  V30 9 C 1.804056 0.698091 -0.079339 0
M  V30 10 O 3.130741 0.969106 0.155340 0
M  V30 11 C 1.056174 1.760168 -0.536528 0
M  V30 12 O 1.598254 3.005672 -0.744122 0
M  V30 13 C -0.279720 1.546694 -0.788714 0
M  V30 14 C -0.797448 0.291153 -0.572812 0
M  V30 15 N -2.175108 0.073303 -0.837510 0
M  V30 16 S -3.213112 1.335665 -1.315656 0
M  V30 17 O -2.664780 1.931444 -2.584770 0
M  V30 18 O -4.607475 0.856320 -1.585704 0
M  V30 19 C -3.285749 2.525928 -0.082465 0
M  V30 20 C -2.726820 2.656032 1.141028 0
M  V30 21 C -2.962514 3.732514 1.938250 0
M  V30 22 C -3.865734 4.726052 1.358630 0
M  V30 23 S -4.272402 3.954320 -0.317217 0
M  V30 24 C -0.013480 -0.729974 -0.118217 0
M  V30 25 S -0.793065 -2.314375 0.124696 0
M  V30 26 C -1.455999 -2.540899 1.775921 0
M  V30 27 H 5.515927 -5.522304 3.350380 0
M  V30 28 H 4.221112 -4.390906 3.796849 0
M  V30 29 H 3.942830 -6.126012 4.111097 0
M  V30 30 H 2.960970 -6.211135 2.067991 0
M  V30 31 H 4.566797 -5.893521 1.322660 0
M  V30 32 H 3.935782 -0.985076 0.863483 0
M  V30 33 H 1.547380 -2.660883 0.759955 0
M  V30 34 H 3.657821 1.662345 -0.358057 0
M  V30 35 H 1.037551 3.850368 -0.655881 0
M  V30 36 H -0.878666 2.377509 -1.149283 0
M  V30 37 H -2.590837 -0.889247 -0.742170 0
M  V30 38 H -2.081968 1.847112 1.444935 0
M  V30 39 H -2.545425 3.887588 2.918230 0
M  V30 40 H -4.124778 5.655629 1.940491 0
M  V30 41 H -2.476136 -3.005923 1.659732 0
M  V30 42 H -1.609388 -1.622461 2.350321 0
M  V30 43 H -0.892119 -3.318992 2.367265 0
M  V30 END ATOM
M  V30 BEGIN BOND
M  V30 1 1 1 2
M  V30 2 1 2 3
M  V30 3 1 3 4
M  V30 4 2 4 5
M  V30 5 1 4 6
M  V30 6 2 6 7
M  V30 7 1 7 8
M  V30 8 2 8 9
M  V30 9 1 9 10
M  V30 10 1 9 11
M  V30 11 1 11 12
M  V30 12 2 11 13
M  V30 13 1 13 14
M  V30 14 1 14 15
M  V30 15 1 15 16
M  V30 16 2 16 17
M  V30 17 2 16 18
M  V30 18 1 16 19
M  V30 19 2 19 20
M  V30 20 1 20 21
M  V30 21 2 21 22
M  V30 22 1 22 23
M  V30 23 2 14 24
M  V30 24 1 24 25
M  V30 25 1 25 26
M  V30 26 1 24 8
M  V30 27 1 23 19
M  V30 28 1 1 27
M  V30 29 1 1 28
M  V30 30 1 1 29
M  V30 31 1 2 30
M  V30 32 1 2 31
M  V30 33 1 6 32
M  V30 34 1 7 33
M  V30 35 1 10 34
M  V30 36 1 12 35
M  V30 37 1 13 36
M  V30 38 1 15 37
M  V30 39 1 20 38
M  V30 40 1 21 39
M  V30 41 1 22 40
M  V30 42 1 26 41
M  V30 43 1 26 42
M  V30 44 1 26 43
M  V30 END BOND
M  V30 END CTAB
M  END
>  <Dataset>  (933) 
ChEMBL_Kinases

>  <Ligand_Instance>  (933) 
nan

>  <PDB_ID>  (933) 
nan

>  <Standardized_SMILES>  (933) 
CCOC(=O)/C=C/c1c(O)c(O)cc(NS(=O)(=O)c2cccs2)c1SC

>  <Name>  (933) 
nan

>  <Pocket>  (933) 
nan

>  <ATP_Site>  (933) 
nan

>  <Peripheral>  (933) 
nan

>  <Num_H_Atoms_ProtBoundConf>  (933) 
nan

>  <Num_Resolved_Atoms>  (933) 
nan

>  <Num_Not_Resolved_Atoms>  (933) 
nan

$$$$
CHEMBL4437124
     RDKit          3D

  0  0  0  0  0  0  0  0  0  0999 V3000
M  V30 BEGIN CTAB
M  V30 COUNTS 39 41 0 0 0
M  V30 BEGIN ATOM
M  V30 1 C -0.495496 -3.576284 3.331850 0
M  V30 2 C 0.327162 -3.347223 2.066936 0
M  V30 3 C 1.773045 -3.393360 2.496082 0
M  V30 4 C -0.004589 -4.482075 1.131092 0
M  V30 5 N 0.003157 -2.052723 1.485465 0
M  V30 6 N 0.924971 -1.255067 0.975158 0
M  V30 7 C 0.358979 -0.126930 0.507106 0
M  V30 8 C 1.023931 1.001650 -0.134306 0
M  V30 9 C 1.913289 0.543413 -1.114732 0
M  V30 10 C 2.640840 1.505656 -1.823399 0
M  V30 11 C 2.410627 2.837814 -1.484845 0
M  V30 12 S 3.172467 4.351439 -2.191836 0
M  V30 13 C 2.120966 5.429201 -0.995051 0
M  V30 14 N 1.546483 4.642132 -0.437190 0
M  V30 15 C 1.542490 3.319105 -0.525241 0
M  V30 16 C 0.846100 2.336307 0.148962 0
M  V30 17 C -0.977079 -0.307947 0.775237 0
M  V30 18 C -2.074711 0.589100 0.481267 0
M  V30 19 N -2.327038 1.846540 -0.108417 0
M  V30 20 O -3.265235 0.327073 0.774919 0
M  V30 21 C -1.245033 -1.507524 1.391299 0
M  V30 22 N -2.473075 -2.071961 1.830687 0
M  V30 23 H 0.042598 -4.371327 3.905926 0
M  V30 24 H -0.465623 -2.634431 3.949877 0
M  V30 25 H -1.509678 -3.937112 3.133020 0
M  V30 26 H 2.080057 -4.473651 2.488221 0
M  V30 27 H 2.442087 -2.775565 1.865955 0
M  V30 28 H 1.866905 -3.053481 3.546208 0
M  V30 29 H -0.974176 -4.235507 0.618296 0
M  V30 30 H 0.788165 -4.745859 0.430282 0
M  V30 31 H -0.188281 -5.387184 1.756254 0
M  V30 32 H 2.118263 -0.470906 -1.404141 0
M  V30 33 H 3.356493 1.380763 -2.595310 0
M  V30 34 H 1.887121 6.595507 -0.664264 0
M  V30 35 H 0.135981 2.561039 0.931004 0
M  V30 36 H -2.278467 2.833561 0.252596 0
M  V30 37 H -2.635878 1.969065 -1.115564 0
M  V30 38 H -2.730023 -1.792314 2.800252 0
M  V30 39 H -3.090828 -2.711736 1.266459 0
M  V30 END ATOM
M  V30 BEGIN BOND
M  V30 1 1 1 2
M  V30 2 1 2 3
M  V30 3 1 2 4
M  V30 4 1 2 5
M  V30 5 1 5 6
M  V30 6 2 6 7
M  V30 7 1 7 8
M  V30 8 2 8 9
M  V30 9 1 9 10
M  V30 10 2 10 11
M  V30 11 1 11 12
M  V30 12 1 12 13
M  V30 13 2 13 14
M  V30 14 1 14 15
M  V30 15 2 15 16
M  V30 16 1 7 17
M  V30 17 1 17 18
M  V30 18 1 18 19
M  V30 19 2 18 20
M  V30 20 2 17 21
M  V30 21 1 21 22
M  V30 22 1 21 5
M  V30 23 1 16 8
M  V30 24 1 15 11
M  V30 25 1 1 23
M  V30 26 1 1 24
M  V30 27 1 1 25
M  V30 28 1 3 26
M  V30 29 1 3 27
M  V30 30 1 3 28
M  V30 31 1 4 29
M  V30 32 1 4 30
M  V30 33 1 4 31
M  V30 34 1 9 32
M  V30 35 1 10 33
M  V30 36 1 13 34
M  V30 37 1 16 35
M  V30 38 1 19 36
M  V30 39 1 19 37
M  V30 40 1 22 38
M  V30 41 1 22 39
M  V30 END BOND
M  V30 END CTAB
M  END
>  <Dataset>  (934) 
ChEMBL_Kinases

>  <Ligand_Instance>  (934) 
nan

>  <PDB_ID>  (934) 
nan

>  <Standardized_SMILES>  (934) 
CC(C)(C)n1nc(-c2ccc3scnc3c2)c(C(N)=O)c1N

>  <Name>  (934) 
nan

>  <Pocket>  (934) 
nan

>  <ATP_Site>  (934) 
nan

>  <Peripheral>  (934) 
nan

>  <Num_H_Atoms_ProtBoundConf>  (934) 
nan

>  <Num_Resolved_Atoms>  (934) 
nan

>  <Num_Not_Resolved_Atoms>  (934) 
nan

$$$$
CHEMBL4752747
     RDKit          3D

  0  0  0  0  0  0  0  0  0  0999 V3000
M  V30 BEGIN CTAB
M  V30 COUNTS 59 63 0 0 0
M  V30 BEGIN ATOM
M  V30 1 C 4.631096 -2.869394 -0.805636 0
M  V30 2 C 3.649244 -3.679788 0.012556 0
M  V30 3 C 3.921348 -3.744445 1.467594 0
M  V30 4 N 2.273484 -3.464925 -0.383315 0
M  V30 5 C 1.315769 -2.763444 0.397768 0
M  V30 6 C 1.782844 -1.791294 1.240196 0
M  V30 7 C 0.885947 -1.065916 2.001441 0
M  V30 8 N 1.297040 -0.054787 2.914933 0
M  V30 9 C 0.581313 1.141331 3.230627 0
M  V30 10 N 0.852153 1.991036 4.243222 0
M  V30 11 C 0.116351 3.118101 4.396282 0
M  V30 12 C -0.904137 3.394506 3.520579 0
M  V30 13 C -1.218122 2.530482 2.447968 0
M  V30 14 C -2.292281 2.956736 1.567307 0
M  V30 15 C -3.107071 3.997703 1.937242 0
M  V30 16 C -4.155430 4.459138 1.135918 0
M  V30 17 C -4.399339 3.857172 -0.080099 0
M  V30 18 C -3.607698 2.809389 -0.494780 0
M  V30 19 N -3.882704 2.279228 -1.686844 0
M  V30 20 C -3.174602 1.269733 -2.201673 0
M  V30 21 C -2.144522 0.844349 -1.374647 0
M  V30 22 C -1.814820 1.362024 -0.123048 0
M  V30 23 C -2.609913 2.425613 0.347027 0
M  V30 24 N -0.411876 1.500376 2.454828 0
M  V30 25 C -0.445515 -1.386576 1.851338 0
M  V30 26 C -0.976278 -2.352642 1.021993 0
M  V30 27 C -0.030869 -3.026485 0.297962 0
M  V30 28 N -0.392522 -4.032036 -0.631132 0
M  V30 29 C -1.815381 -4.335349 -0.731672 0
M  V30 30 C 0.540667 -4.767642 -1.448983 0
M  V30 31 O 0.270243 -5.908458 -1.879120 0
M  V30 32 C 1.812746 -3.985950 -1.686810 0 CFG=1
M  V30 33 C 1.469330 -2.810083 -2.565566 0
M  V30 34 H 4.199654 -1.873950 -1.126009 0
M  V30 35 H 5.586551 -2.712335 -0.266184 0
M  V30 36 H 4.882413 -3.357497 -1.768784 0
M  V30 37 H 3.839412 -4.751285 -0.359373 0
M  V30 38 H 2.993000 -3.804792 2.074790 0
M  V30 39 H 4.466684 -4.701741 1.769014 0
M  V30 40 H 4.641867 -2.962786 1.848558 0
M  V30 41 H 2.818329 -1.586276 1.305269 0
M  V30 42 H 2.207082 -0.297585 3.333926 0
M  V30 43 H 0.400473 3.759269 5.243353 0
M  V30 44 H -1.383063 4.319091 3.772306 0
M  V30 45 H -3.072984 4.581466 2.838180 0
M  V30 46 H -4.815769 5.275959 1.389483 0
M  V30 47 H -5.206530 4.191753 -0.712248 0
M  V30 48 H -3.350570 0.805777 -3.149264 0
M  V30 49 H -1.534012 0.024194 -1.752689 0
M  V30 50 H -1.001150 0.978425 0.433493 0
M  V30 51 H -1.134969 -0.801690 2.460503 0
M  V30 52 H -2.032020 -2.560788 0.944771 0
M  V30 53 H -2.084945 -4.975810 0.123158 0
M  V30 54 H -1.989612 -4.942180 -1.635963 0
M  V30 55 H -2.425058 -3.425059 -0.851306 0
M  V30 56 H 2.596987 -4.641918 -2.081301 0
M  V30 57 H 0.920392 -2.069225 -1.911202 0
M  V30 58 H 0.773924 -3.106751 -3.378487 0
M  V30 59 H 2.356290 -2.276905 -2.927904 0
M  V30 END ATOM
M  V30 BEGIN BOND
M  V30 1 1 1 2
M  V30 2 1 2 3
M  V30 3 1 2 4
M  V30 4 1 4 5
M  V30 5 2 5 6
M  V30 6 1 6 7
M  V30 7 1 7 8
M  V30 8 1 8 9
M  V30 9 2 9 10
M  V30 10 1 10 11
M  V30 11 2 11 12
M  V30 12 1 12 13
M  V30 13 1 13 14
M  V30 14 2 14 15
M  V30 15 1 15 16
M  V30 16 2 16 17
M  V30 17 1 17 18
M  V30 18 2 18 19
M  V30 19 1 19 20
M  V30 20 2 20 21
M  V30 21 1 21 22
M  V30 22 2 22 23
M  V30 23 2 13 24
M  V30 24 2 7 25
M  V30 25 1 25 26
M  V30 26 2 26 27
M  V30 27 1 27 28
M  V30 28 1 28 29
M  V30 29 1 28 30
M  V30 30 2 30 31
M  V30 31 1 30 32
M  V30 32 1 32 33
M  V30 33 1 32 4
M  V30 34 1 27 5
M  V30 35 1 24 9
M  V30 36 1 23 14
M  V30 37 1 23 18
M  V30 38 1 1 34
M  V30 39 1 1 35
M  V30 40 1 1 36
M  V30 41 1 2 37
M  V30 42 1 3 38
M  V30 43 1 3 39
M  V30 44 1 3 40
M  V30 45 1 6 41
M  V30 46 1 8 42
M  V30 47 1 11 43
M  V30 48 1 12 44
M  V30 49 1 15 45
M  V30 50 1 16 46
M  V30 51 1 17 47
M  V30 52 1 20 48
M  V30 53 1 21 49
M  V30 54 1 22 50
M  V30 55 1 25 51
M  V30 56 1 26 52
M  V30 57 1 29 53
M  V30 58 1 29 54
M  V30 59 1 29 55
M  V30 60 1 32 56 CFG=3
M  V30 61 1 33 57
M  V30 62 1 33 58
M  V30 63 1 33 59
M  V30 END BOND
M  V30 END CTAB
M  END
>  <Dataset>  (935) 
ChEMBL_Kinases

>  <Ligand_Instance>  (935) 
nan

>  <PDB_ID>  (935) 
nan

>  <Standardized_SMILES>  (935) 
CC(C)N1c2cc(Nc3nccc(-c4cccc5ncccc45)n3)ccc2N(C)C(=O)[C@H]1C

>  <Name>  (935) 
nan

>  <Pocket>  (935) 
nan

>  <ATP_Site>  (935) 
nan

>  <Peripheral>  (935) 
nan

>  <Num_H_Atoms_ProtBoundConf>  (935) 
nan

>  <Num_Resolved_Atoms>  (935) 
nan

>  <Num_Not_Resolved_Atoms>  (935) 
nan

$$$$
CHEMBL4752748
     RDKit          3D

  0  0  0  0  0  0  0  0  0  0999 V3000
M  V30 BEGIN CTAB
M  V30 COUNTS 61 64 0 0 0
M  V30 BEGIN ATOM
M  V30 1 C 3.559063 -5.921407 2.427877 0
M  V30 2 C 4.295944 -4.902336 1.629605 0
M  V30 3 O 5.281679 -5.229680 0.926473 0
M  V30 4 N 3.827994 -3.558740 1.707042 0
M  V30 5 C 4.350155 -2.378788 1.042564 0 CFG=2
M  V30 6 C 4.765123 -1.418775 2.107502 0
M  V30 7 C 5.127410 -0.057569 1.594466 0
M  V30 8 C 4.717352 0.206132 0.194067 0
M  V30 9 C 3.428089 -0.416196 -0.250221 0 CFG=2
M  V30 10 C 2.224572 0.406663 0.008518 0
M  V30 11 O 1.438529 0.818371 -0.912388 0
M  V30 12 N 1.797397 0.835985 1.290446 0
M  V30 13 C 0.604554 1.616123 1.240107 0
M  V30 14 C -0.594760 0.911303 1.338216 0
M  V30 15 C -1.789360 1.592166 1.297848 0
M  V30 16 C -3.013859 0.806906 1.404476 0
M  V30 17 C -3.765090 0.414396 2.524577 0
M  V30 18 N -4.821482 -0.302213 2.157043 0
M  V30 19 N -4.783830 -0.390664 0.825208 0
M  V30 20 C -3.713885 0.264518 0.364074 0
M  V30 21 C -3.507739 0.274080 -1.100073 0
M  V30 22 C -4.319237 -0.813472 -1.794017 0
M  V30 23 C -3.740747 -2.166374 -1.437876 0
M  V30 24 C -4.191388 -0.610945 -3.289093 0
M  V30 25 C -5.762441 -0.787911 -1.359290 0
M  V30 26 C -5.811800 -1.120083 0.093573 0
M  V30 27 C -1.778854 2.971295 1.159865 0
M  V30 28 F -2.972989 3.617578 1.122917 0
M  V30 29 C -0.572397 3.658179 1.063363 0
M  V30 30 N 0.589509 2.968904 1.105347 0
M  V30 31 C 3.229539 -1.833543 0.204556 0
M  V30 32 H 4.236396 -6.749189 2.758053 0
M  V30 33 H 2.710973 -6.341286 1.840792 0
M  V30 34 H 3.098921 -5.427508 3.328445 0
M  V30 35 H 2.999479 -3.250559 2.290926 0
M  V30 36 H 5.227688 -2.671935 0.416861 0
M  V30 37 H 5.599612 -1.894160 2.689741 0
M  V30 38 H 3.927398 -1.318457 2.848485 0
M  V30 39 H 6.232167 0.041664 1.656319 0
M  V30 40 H 4.762567 0.729278 2.317993 0
M  V30 41 H 4.629924 1.300737 0.057696 0
M  V30 42 H 5.540667 -0.113142 -0.480258 0
M  V30 43 H 3.505162 -0.481451 -1.376398 0
M  V30 44 H 2.377306 0.550492 2.128819 0
M  V30 45 H -0.588457 -0.153021 1.444343 0
M  V30 46 H -3.468238 0.693696 3.546931 0
M  V30 47 H -2.464849 0.086910 -1.416339 0
M  V30 48 H -3.947370 1.214752 -1.512188 0
M  V30 49 H -4.490336 -2.974687 -1.448858 0
M  V30 50 H -3.283099 -2.036791 -0.418299 0
M  V30 51 H -2.878823 -2.345816 -2.107058 0
M  V30 52 H -3.344524 0.042739 -3.559563 0
M  V30 53 H -4.018377 -1.582119 -3.817283 0
M  V30 54 H -5.124977 -0.194630 -3.750216 0
M  V30 55 H -6.306018 0.116724 -1.645533 0
M  V30 56 H -6.239837 -1.642223 -1.921224 0
M  V30 57 H -5.724373 -2.209764 0.240511 0
M  V30 58 H -6.847345 -0.845102 0.440677 0
M  V30 59 H -0.559488 4.742510 0.954805 0
M  V30 60 H 3.003966 -2.544393 -0.615813 0
M  V30 61 H 2.309019 -1.857788 0.856291 0
M  V30 END ATOM
M  V30 BEGIN BOND
M  V30 1 1 1 2
M  V30 2 2 2 3
M  V30 3 1 2 4
M  V30 4 1 4 5
M  V30 5 1 5 6
M  V30 6 1 6 7
M  V30 7 1 7 8
M  V30 8 1 8 9
M  V30 9 1 9 10
M  V30 10 2 10 11
M  V30 11 1 10 12
M  V30 12 1 12 13
M  V30 13 2 13 14
M  V30 14 1 14 15
M  V30 15 1 15 16
M  V30 16 1 16 17
M  V30 17 2 17 18
M  V30 18 1 18 19
M  V30 19 1 19 20
M  V30 20 1 20 21
M  V30 21 1 21 22
M  V30 22 1 22 23
M  V30 23 1 22 24
M  V30 24 1 22 25
M  V30 25 1 25 26
M  V30 26 2 15 27
M  V30 27 1 27 28
M  V30 28 1 27 29
M  V30 29 2 29 30
M  V30 30 1 9 31
M  V30 31 1 31 5
M  V30 32 1 30 13
M  V30 33 2 20 16
M  V30 34 1 26 19
M  V30 35 1 1 32
M  V30 36 1 1 33
M  V30 37 1 1 34
M  V30 38 1 4 35
M  V30 39 1 5 36 CFG=3
M  V30 40 1 6 37
M  V30 41 1 6 38
M  V30 42 1 7 39
M  V30 43 1 7 40
M  V30 44 1 8 41
M  V30 45 1 8 42
M  V30 46 1 9 43 CFG=3
M  V30 47 1 12 44
M  V30 48 1 14 45
M  V30 49 1 17 46
M  V30 50 1 21 47
M  V30 51 1 21 48
M  V30 52 1 23 49
M  V30 53 1 23 50
M  V30 54 1 23 51
M  V30 55 1 24 52
M  V30 56 1 24 53
M  V30 57 1 24 54
M  V30 58 1 25 55
M  V30 59 1 25 56
M  V30 60 1 26 57
M  V30 61 1 26 58
M  V30 62 1 29 59
M  V30 63 1 31 60
M  V30 64 1 31 61
M  V30 END BOND
M  V30 END CTAB
M  END
>  <Dataset>  (936) 
ChEMBL_Kinases

>  <Ligand_Instance>  (936) 
nan

>  <PDB_ID>  (936) 
nan

>  <Standardized_SMILES>  (936) 
CC(=O)N[C@@H]1CCC[C@H](C(=O)Nc2cc(-c3cnn4c3CC(C)(C)CC4)c(F)cn2)C1

>  <Name>  (936) 
nan

>  <Pocket>  (936) 
nan

>  <ATP_Site>  (936) 
nan

>  <Peripheral>  (936) 
nan

>  <Num_H_Atoms_ProtBoundConf>  (936) 
nan

>  <Num_Resolved_Atoms>  (936) 
nan

>  <Num_Not_Resolved_Atoms>  (936) 
nan

$$$$
CHEMBL4752782
     RDKit          3D

  0  0  0  0  0  0  0  0  0  0999 V3000
M  V30 BEGIN CTAB
M  V30 COUNTS 78 82 0 0 0
M  V30 BEGIN ATOM
M  V30 1 C 7.137934 -3.451090 11.432881 0
M  V30 2 C 6.882902 -2.197268 10.661476 0
M  V30 3 C 7.337688 -0.976052 11.052016 0
M  V30 4 C 7.066572 0.153319 10.289572 0
M  V30 5 C 6.326004 0.064165 9.111498 0
M  V30 6 O 6.029274 1.174345 8.312436 0
M  V30 7 C 5.289013 1.015517 7.149631 0
M  V30 8 C 3.912794 1.098193 7.092816 0
M  V30 9 C 3.201122 0.936422 5.923693 0
M  V30 10 C 3.843819 0.678854 4.730730 0
M  V30 11 C 3.272733 0.482943 3.405552 0
M  V30 12 C 2.253776 1.139454 2.939129 0
M  V30 13 S 1.381203 2.413623 3.880698 0
M  V30 14 C 0.082892 2.623503 2.660636 0
M  V30 15 O -0.965370 3.319746 2.752958 0
M  V30 16 N 0.428355 1.850510 1.517725 0
M  V30 17 C -0.334025 1.857043 0.288160 0
M  V30 18 C -1.308322 0.880617 0.282053 0
M  V30 19 C -2.123606 0.764401 -0.845700 0
M  V30 20 C -1.890748 1.645105 -1.880887 0
M  V30 21 O -2.722349 1.508221 -3.003902 0
M  V30 22 C -3.725562 0.509131 -3.027698 0
M  V30 23 C -4.505198 0.534036 -4.338019 0
M  V30 24 C -5.517595 -0.543810 -4.258770 0
M  V30 25 C -6.401792 -0.724593 -5.414982 0
M  V30 26 C -5.849750 -1.011559 -6.748481 0
M  V30 27 N -5.073350 -2.131457 -6.997894 0
M  V30 28 C -3.800312 -2.377906 -6.558227 0
M  V30 29 C -3.365038 -3.800851 -6.948436 0
M  V30 30 N -3.456697 -4.039211 -8.360180 0
M  V30 31 C -2.444168 -3.287793 -9.057074 0
M  V30 32 C -4.752521 -3.649220 -8.893835 0
M  V30 33 C -5.660652 -3.157808 -7.780770 0
M  V30 34 C -0.922162 2.625673 -1.889943 0
M  V30 35 C -0.126303 2.723937 -0.764839 0
M  V30 36 C 1.592669 1.054453 1.666968 0
M  V30 37 O 2.078053 0.287499 0.768386 0
M  V30 38 C 5.240677 0.599685 4.817628 0
M  V30 39 C 5.977716 0.757373 5.972297 0
M  V30 40 C 5.887179 -1.211743 8.762655 0
M  V30 41 C 6.137431 -2.349983 9.493985 0
M  V30 42 H 7.409127 -3.272600 12.481750 0
M  V30 43 H 7.959958 -4.001107 10.932150 0
M  V30 44 H 6.242946 -4.112008 11.410719 0
M  V30 45 H 7.915504 -0.870417 11.958876 0
M  V30 46 H 7.415285 1.136414 10.575887 0
M  V30 47 H 3.363622 1.296777 8.003354 0
M  V30 48 H 2.125979 0.993910 5.846288 0
M  V30 49 H 3.742053 -0.276259 2.759530 0
M  V30 50 H -1.502902 0.182846 1.084325 0
M  V30 51 H -2.891358 0.003487 -0.864078 0
M  V30 52 H -4.386761 0.556605 -2.143614 0
M  V30 53 H -3.225000 -0.487797 -2.991025 0
M  V30 54 H -4.930282 1.549863 -4.444658 0
M  V30 55 H -3.746583 0.411758 -5.127890 0
M  V30 56 H -6.141603 -0.278905 -3.332086 0
M  V30 57 H -5.056800 -1.496644 -3.949854 0
M  V30 58 H -7.040554 0.212576 -5.477722 0
M  V30 59 H -7.191043 -1.507564 -5.205329 0
M  V30 60 H -6.768035 -1.137350 -7.426284 0
M  V30 61 H -5.417184 -0.062752 -7.237167 0
M  V30 62 H -2.993171 -1.736869 -7.051873 0
M  V30 63 H -3.545112 -2.322096 -5.483557 0
M  V30 64 H -3.878851 -4.564749 -6.321279 0
M  V30 65 H -2.279717 -3.850932 -6.636984 0
M  V30 66 H -2.864589 -2.595295 -9.815078 0
M  V30 67 H -1.796543 -2.676035 -8.399096 0
M  V30 68 H -1.781518 -3.988221 -9.611172 0
M  V30 69 H -4.682134 -2.912968 -9.718826 0
M  V30 70 H -5.216250 -4.563832 -9.315746 0
M  V30 71 H -6.603570 -2.834892 -8.312269 0
M  V30 72 H -5.965771 -3.980823 -7.126323 0
M  V30 73 H -0.765477 3.301657 -2.718281 0
M  V30 74 H 0.666462 3.448885 -0.649512 0
M  V30 75 H 5.824416 0.400293 3.929570 0
M  V30 76 H 7.040430 0.686634 5.978623 0
M  V30 77 H 5.311735 -1.268180 7.844111 0
M  V30 78 H 5.773856 -3.321302 9.180490 0
M  V30 END ATOM
M  V30 BEGIN BOND
M  V30 1 1 1 2
M  V30 2 2 2 3
M  V30 3 1 3 4
M  V30 4 2 4 5
M  V30 5 1 5 6
M  V30 6 1 6 7
M  V30 7 2 7 8
M  V30 8 1 8 9
M  V30 9 2 9 10
M  V30 10 1 10 11
M  V30 11 2 11 12
M  V30 12 1 12 13
M  V30 13 1 13 14
M  V30 14 2 14 15
M  V30 15 1 14 16
M  V30 16 1 16 17
M  V30 17 2 17 18
M  V30 18 1 18 19
M  V30 19 2 19 20
M  V30 20 1 20 21
M  V30 21 1 21 22
M  V30 22 1 22 23
M  V30 23 1 23 24
M  V30 24 1 24 25
M  V30 25 1 25 26
M  V30 26 1 26 27
M  V30 27 1 27 28
M  V30 28 1 28 29
M  V30 29 1 29 30
M  V30 30 1 30 31
M  V30 31 1 30 32
M  V30 32 1 32 33
M  V30 33 1 20 34
M  V30 34 2 34 35
M  V30 35 1 16 36
M  V30 36 2 36 37
M  V30 37 1 10 38
M  V30 38 2 38 39
M  V30 39 1 5 40
M  V30 40 2 40 41
M  V30 41 1 41 2
M  V30 42 1 39 7
M  V30 43 1 36 12
M  V30 44 1 35 17
M  V30 45 1 33 27
M  V30 46 1 1 42
M  V30 47 1 1 43
M  V30 48 1 1 44
M  V30 49 1 3 45
M  V30 50 1 4 46
M  V30 51 1 8 47
M  V30 52 1 9 48
M  V30 53 1 11 49
M  V30 54 1 18 50
M  V30 55 1 19 51
M  V30 56 1 22 52
M  V30 57 1 22 53
M  V30 58 1 23 54
M  V30 59 1 23 55
M  V30 60 1 24 56
M  V30 61 1 24 57
M  V30 62 1 25 58
M  V30 63 1 25 59
M  V30 64 1 26 60
M  V30 65 1 26 61
M  V30 66 1 28 62
M  V30 67 1 28 63
M  V30 68 1 29 64
M  V30 69 1 29 65
M  V30 70 1 31 66
M  V30 71 1 31 67
M  V30 72 1 31 68
M  V30 73 1 32 69
M  V30 74 1 32 70
M  V30 75 1 33 71
M  V30 76 1 33 72
M  V30 77 1 34 73
M  V30 78 1 35 74
M  V30 79 1 38 75
M  V30 80 1 39 76
M  V30 81 1 40 77
M  V30 82 1 41 78
M  V30 END BOND
M  V30 END CTAB
M  END
>  <Dataset>  (937) 
ChEMBL_Kinases

>  <Ligand_Instance>  (937) 
nan

>  <PDB_ID>  (937) 
nan

>  <Standardized_SMILES>  (937) 
Cc1ccc(Oc2ccc(/C=C3\SC(=O)N(c4ccc(OCCCCCN5CCN(C)CC5)cc4)C3=O)cc2)cc1

>  <Name>  (937) 
nan

>  <Pocket>  (937) 
nan

>  <ATP_Site>  (937) 
nan

>  <Peripheral>  (937) 
nan

>  <Num_H_Atoms_ProtBoundConf>  (937) 
nan

>  <Num_Resolved_Atoms>  (937) 
nan

>  <Num_Not_Resolved_Atoms>  (937) 
nan

$$$$
CHEMBL4752817
     RDKit          3D

  0  0  0  0  0  0  0  0  0  0999 V3000
M  V30 BEGIN CTAB
M  V30 COUNTS 60 64 0 0 0
M  V30 BEGIN ATOM
M  V30 1 C 0.531244 -4.111926 2.443935 0
M  V30 2 C 1.551248 -5.128934 2.855931 0
M  V30 3 O 2.484775 -4.555220 3.778684 0
M  V30 4 C 3.233508 -3.461155 3.308071 0
M  V30 5 N 3.108878 -2.959769 2.077878 0
M  V30 6 C 3.784843 -1.924927 1.563840 0
M  V30 7 N 3.365097 -1.708269 0.223080 0
M  V30 8 C 2.280355 -0.856237 -0.065080 0
M  V30 9 C 1.612574 -0.160921 0.895692 0
M  V30 10 C 0.549327 0.668862 0.613236 0
M  V30 11 C 0.098036 0.840312 -0.684262 0
M  V30 12 C -1.026405 1.688460 -1.074783 0
M  V30 13 O -0.724524 2.410897 -2.061549 0
M  V30 14 N -2.316813 1.738822 -0.463920 0
M  V30 15 C -2.779306 0.965333 0.678865 0
M  V30 16 C -4.099345 0.371286 0.428925 0
M  V30 17 N -4.921313 0.850412 -0.593512 0
M  V30 18 C -5.406672 -0.242565 -1.454171 0
M  V30 19 C -5.689754 0.433184 -2.779069 0
M  V30 20 C -4.533476 1.439093 -2.828924 0
M  V30 21 C -4.533901 1.924758 -1.389718 0 CFG=2
M  V30 22 C -3.276450 2.651477 -1.037568 0
M  V30 23 C 0.775408 0.131468 -1.690211 0
M  V30 24 C 1.830044 -0.685971 -1.376917 0
M  V30 25 O 2.473750 -1.366825 -2.382941 0
M  V30 26 C 2.075286 -1.247452 -3.740060 0
M  V30 27 N 4.704103 -1.288653 2.339911 0
M  V30 28 C 4.886674 -1.747618 3.613408 0
M  V30 29 N 5.729108 -1.282321 4.549896 0
M  V30 30 C 5.561193 -2.055102 5.665079 0
M  V30 31 C 4.591873 -3.025666 5.420065 0
M  V30 32 C 4.166705 -2.830756 4.124806 0
M  V30 33 H 0.868432 -3.488001 1.613484 0
M  V30 34 H 0.300218 -3.468053 3.321171 0
M  V30 35 H -0.446628 -4.598959 2.183713 0
M  V30 36 H 2.095171 -5.439860 1.922328 0
M  V30 37 H 1.042860 -6.013921 3.286678 0
M  V30 38 H 3.866511 -2.185578 -0.552942 0
M  V30 39 H 1.956293 -0.288678 1.903059 0
M  V30 40 H 0.055544 1.200704 1.411079 0
M  V30 41 H -2.049047 0.196532 1.000793 0
M  V30 42 H -2.867860 1.717264 1.510662 0
M  V30 43 H -4.701143 0.423199 1.388337 0
M  V30 44 H -3.951771 -0.741273 0.296862 0
M  V30 45 H -6.288497 -0.695273 -0.990651 0
M  V30 46 H -4.578339 -0.992798 -1.575127 0
M  V30 47 H -6.631055 1.000599 -2.656076 0
M  V30 48 H -5.678825 -0.268180 -3.624155 0
M  V30 49 H -3.590135 0.947560 -3.117022 0
M  V30 50 H -4.791177 2.259515 -3.546229 0
M  V30 51 H -5.364845 2.692607 -1.344867 0
M  V30 52 H -2.888936 3.196861 -1.912823 0
M  V30 53 H -3.534678 3.414716 -0.248140 0
M  V30 54 H 0.424145 0.263866 -2.709207 0
M  V30 55 H 0.972842 -1.325292 -3.845791 0
M  V30 56 H 2.406390 -0.324760 -4.229203 0
M  V30 57 H 2.521542 -2.128936 -4.279958 0
M  V30 58 H 6.395960 -0.467044 4.436722 0
M  V30 59 H 6.111305 -1.911647 6.585802 0
M  V30 60 H 4.216327 -3.794209 6.077752 0
M  V30 END ATOM
M  V30 BEGIN BOND
M  V30 1 1 1 2
M  V30 2 1 2 3
M  V30 3 1 3 4
M  V30 4 2 4 5
M  V30 5 1 5 6
M  V30 6 1 6 7
M  V30 7 1 7 8
M  V30 8 2 8 9
M  V30 9 1 9 10
M  V30 10 2 10 11
M  V30 11 1 11 12
M  V30 12 2 12 13
M  V30 13 1 12 14
M  V30 14 1 14 15
M  V30 15 1 15 16
M  V30 16 1 16 17
M  V30 17 1 17 18
M  V30 18 1 18 19
M  V30 19 1 19 20
M  V30 20 1 20 21
M  V30 21 1 21 22
M  V30 22 1 11 23
M  V30 23 2 23 24
M  V30 24 1 24 25
M  V30 25 1 25 26
M  V30 26 2 6 27
M  V30 27 1 27 28
M  V30 28 1 28 29
M  V30 29 1 29 30
M  V30 30 2 30 31
M  V30 31 1 31 32
M  V30 32 1 32 4
M  V30 33 1 24 8
M  V30 34 2 32 28
M  V30 35 1 22 14
M  V30 36 1 21 17
M  V30 37 1 1 33
M  V30 38 1 1 34
M  V30 39 1 1 35
M  V30 40 1 2 36
M  V30 41 1 2 37
M  V30 42 1 7 38
M  V30 43 1 9 39
M  V30 44 1 10 40
M  V30 45 1 15 41
M  V30 46 1 15 42
M  V30 47 1 16 43
M  V30 48 1 16 44
M  V30 49 1 18 45
M  V30 50 1 18 46
M  V30 51 1 19 47
M  V30 52 1 19 48
M  V30 53 1 20 49
M  V30 54 1 20 50
M  V30 55 1 21 51 CFG=3
M  V30 56 1 22 52
M  V30 57 1 22 53
M  V30 58 1 23 54
M  V30 59 1 26 55
M  V30 60 1 26 56
M  V30 61 1 26 57
M  V30 62 1 29 58
M  V30 63 1 30 59
M  V30 64 1 31 60
M  V30 END BOND
M  V30 END CTAB
M  END
>  <Dataset>  (938) 
ChEMBL_Kinases

>  <Ligand_Instance>  (938) 
nan

>  <PDB_ID>  (938) 
nan

>  <Standardized_SMILES>  (938) 
CCOc1nc(Nc2ccc(C(=O)N3CCN4CCC[C@@H]4C3)cc2OC)nc2[nH]ccc12

>  <Name>  (938) 
nan

>  <Pocket>  (938) 
nan

>  <ATP_Site>  (938) 
nan

>  <Peripheral>  (938) 
nan

>  <Num_H_Atoms_ProtBoundConf>  (938) 
nan

>  <Num_Resolved_Atoms>  (938) 
nan

>  <Num_Not_Resolved_Atoms>  (938) 
nan

$$$$
CHEMBL4752822
     RDKit          3D

  0  0  0  0  0  0  0  0  0  0999 V3000
M  V30 BEGIN CTAB
M  V30 COUNTS 65 69 0 0 0
M  V30 BEGIN ATOM
M  V30 1 C 3.638094 0.912626 4.872732 0
M  V30 2 N 4.753470 1.319289 4.023461 0
M  V30 3 C 5.913014 1.984755 4.572782 0
M  V30 4 C 4.657403 1.040444 2.640704 0
M  V30 5 C 3.515307 0.402693 2.163518 0
M  V30 6 C 3.437494 0.134722 0.806916 0
M  V30 7 C 4.444774 0.477407 -0.069162 0
M  V30 8 C 4.245275 0.144410 -1.473722 0
M  V30 9 C 5.150690 0.410111 -2.479116 0
M  V30 10 C 4.921719 0.077200 -3.782246 0
M  V30 11 N 3.757957 -0.535528 -4.080044 0
M  V30 12 C 2.846406 -0.812562 -3.124535 0
M  V30 13 N 1.634613 -1.460048 -3.483959 0
M  V30 14 C 0.588912 -1.792117 -2.531467 0 CFG=1
M  V30 15 C 0.041725 -0.583838 -1.845453 0
M  V30 16 O -1.266631 -0.414862 -2.282661 0
M  V30 17 C -1.751078 -1.693075 -2.550415 0 CFG=1
M  V30 18 C -0.594080 -2.429981 -3.173206 0 CFG=2
M  V30 19 O -0.801473 -3.756766 -2.810758 0
M  V30 20 C -1.270884 -3.737014 -1.500003 0
M  V30 21 C -1.985786 -2.456893 -1.295851 0 CFG=2
M  V30 22 N -3.372539 -2.578061 -0.937320 0
M  V30 23 C -4.059865 -2.078426 0.202812 0
M  V30 24 O -3.299447 -1.439845 0.987262 0
M  V30 25 N -5.452726 -2.313080 0.371634 0
M  V30 26 C -6.104301 -1.792921 1.524877 0
M  V30 27 C -6.295126 -2.359727 2.764066 0
M  V30 28 C -6.963039 -1.664019 3.746961 0
M  V30 29 C -7.462852 -0.396769 3.548099 0
M  V30 30 C -7.267519 0.152602 2.317635 0
M  V30 31 C -7.810634 1.531330 2.098778 0
M  V30 32 F -8.647224 1.909494 3.113312 0
M  V30 33 F -8.465103 1.474118 0.871438 0
M  V30 34 F -6.724447 2.376679 1.941117 0
M  V30 35 C -6.608125 -0.505592 1.311417 0
M  V30 36 N 3.110736 -0.467364 -1.849825 0
M  V30 37 C 5.577552 1.108603 0.396583 0
M  V30 38 C 5.673815 1.387671 1.766177 0
M  V30 39 H 2.736463 1.478744 4.633437 0
M  V30 40 H 3.909962 1.152563 5.927652 0
M  V30 41 H 3.453758 -0.180029 4.781741 0
M  V30 42 H 6.837370 1.546013 4.158570 0
M  V30 43 H 5.882286 3.079658 4.351831 0
M  V30 44 H 5.959128 1.891958 5.673597 0
M  V30 45 H 2.697090 0.118147 2.839842 0
M  V30 46 H 2.526000 -0.363775 0.484110 0
M  V30 47 H 6.064570 0.893578 -2.230561 0
M  V30 48 H 5.618634 0.276204 -4.585786 0
M  V30 49 H 1.456106 -1.724065 -4.472748 0
M  V30 50 H 1.026409 -2.552885 -1.822654 0
M  V30 51 H 0.140375 -0.678385 -0.754538 0
M  V30 52 H 0.623481 0.340290 -2.104277 0
M  V30 53 H -2.631880 -1.641932 -3.218971 0
M  V30 54 H -0.601098 -2.337818 -4.279981 0
M  V30 55 H -1.859432 -4.657990 -1.318946 0
M  V30 56 H -0.357692 -3.840464 -0.845871 0
M  V30 57 H -1.475111 -1.895736 -0.459525 0
M  V30 58 H -3.914134 -3.130917 -1.666821 0
M  V30 59 H -5.941517 -2.876019 -0.387450 0
M  V30 60 H -5.875124 -3.351205 2.837035 0
M  V30 61 H -7.081090 -2.176933 4.716103 0
M  V30 62 H -7.987009 0.138235 4.332976 0
M  V30 63 H -6.516969 0.046864 0.370181 0
M  V30 64 H 6.373668 1.382062 -0.282117 0
M  V30 65 H 6.548616 1.880366 2.155426 0
M  V30 END ATOM
M  V30 BEGIN BOND
M  V30 1 1 1 2
M  V30 2 1 2 3
M  V30 3 1 2 4
M  V30 4 2 4 5
M  V30 5 1 5 6
M  V30 6 2 6 7
M  V30 7 1 7 8
M  V30 8 2 8 9
M  V30 9 1 9 10
M  V30 10 2 10 11
M  V30 11 1 11 12
M  V30 12 1 12 13
M  V30 13 1 13 14
M  V30 14 1 14 15
M  V30 15 1 15 16
M  V30 16 1 16 17
M  V30 17 1 17 18
M  V30 18 1 18 19
M  V30 19 1 19 20
M  V30 20 1 20 21
M  V30 21 1 21 22
M  V30 22 1 22 23
M  V30 23 2 23 24
M  V30 24 1 23 25
M  V30 25 1 25 26
M  V30 26 2 26 27
M  V30 27 1 27 28
M  V30 28 2 28 29
M  V30 29 1 29 30
M  V30 30 1 30 31
M  V30 31 1 31 32
M  V30 32 1 31 33
M  V30 33 1 31 34
M  V30 34 2 30 35
M  V30 35 2 12 36
M  V30 36 1 7 37
M  V30 37 2 37 38
M  V30 38 1 38 4
M  V30 39 1 36 8
M  V30 40 1 18 14
M  V30 41 1 35 26
M  V30 42 1 21 17
M  V30 43 1 1 39
M  V30 44 1 1 40
M  V30 45 1 1 41
M  V30 46 1 3 42
M  V30 47 1 3 43
M  V30 48 1 3 44
M  V30 49 1 5 45
M  V30 50 1 6 46
M  V30 51 1 9 47
M  V30 52 1 10 48
M  V30 53 1 13 49
M  V30 54 1 14 50 CFG=1
M  V30 55 1 15 51
M  V30 56 1 15 52
M  V30 57 1 17 53 CFG=3
M  V30 58 1 18 54 CFG=3
M  V30 59 1 20 55
M  V30 60 1 20 56
M  V30 61 1 21 57 CFG=1
M  V30 62 1 22 58
M  V30 63 1 25 59
M  V30 64 1 27 60
M  V30 65 1 28 61
M  V30 66 1 29 62
M  V30 67 1 35 63
M  V30 68 1 37 64
M  V30 69 1 38 65
M  V30 END BOND
M  V30 END CTAB
M  END
>  <Dataset>  (939) 
ChEMBL_Kinases

>  <Ligand_Instance>  (939) 
nan

>  <PDB_ID>  (939) 
nan

>  <Standardized_SMILES>  (939) 
CN(C)c1ccc(-c2ccnc(N[C@H]3CO[C@H]4[C@@H]3OC[C@@H]4NC(=O)Nc3cccc(C(F)(F)F)c3)n2)cc1

>  <Name>  (939) 
nan

>  <Pocket>  (939) 
nan

>  <ATP_Site>  (939) 
nan

>  <Peripheral>  (939) 
nan

>  <Num_H_Atoms_ProtBoundConf>  (939) 
nan

>  <Num_Resolved_Atoms>  (939) 
nan

>  <Num_Not_Resolved_Atoms>  (939) 
nan

$$$$
CHEMBL4437100
     RDKit          3D

  0  0  0  0  0  0  0  0  0  0999 V3000
M  V30 BEGIN CTAB
M  V30 COUNTS 52 55 0 0 0
M  V30 BEGIN ATOM
M  V30 1 C 2.895666 -6.911651 3.972213 0
M  V30 2 O 2.251203 -6.514993 2.800665 0
M  V30 3 C 1.644664 -5.272013 2.680024 0
M  V30 4 C 1.683946 -4.397885 3.768449 0
M  V30 5 C 1.072934 -3.170506 3.619095 0
M  V30 6 N 1.108314 -2.320488 4.670434 0
M  V30 7 C 0.518356 -1.114477 4.549682 0
M  V30 8 N -0.093214 -0.762594 3.407788 0
M  V30 9 C -0.157579 -1.551780 2.352723 0
M  V30 10 C -0.868091 -1.071357 1.134114 0
M  V30 11 C 0.170898 -0.470628 0.220939 0
M  V30 12 C -0.354474 0.651071 -0.624030 0
M  V30 13 N -0.887942 1.747202 0.131228 0
M  V30 14 C -1.308318 3.071699 -0.144100 0
M  V30 15 O -1.759728 3.859889 0.755878 0
M  V30 16 C -1.286952 3.703429 -1.448772 0
M  V30 17 C -1.950890 3.301883 -2.584155 0
M  V30 18 C -1.805753 4.044377 -3.753352 0
M  V30 19 C -1.012958 5.168271 -3.792055 0
M  V30 20 C -0.849566 5.948251 -4.986293 0
M  V30 21 N -0.719389 6.581317 -5.949508 0
M  V30 22 C -0.335929 5.591763 -2.664626 0
M  V30 23 C -0.484597 4.845985 -1.499304 0
M  V30 24 C -0.986221 1.305341 1.526696 0
M  V30 25 C -1.828983 0.053939 1.474995 0
M  V30 26 C 0.438371 -2.784889 2.457341 0
M  V30 27 C 0.403259 -3.651832 1.387053 0
M  V30 28 C 1.005706 -4.883818 1.510032 0
M  V30 29 O 1.038358 -5.855814 0.490981 0
M  V30 30 C 0.452767 -5.658147 -0.760085 0
M  V30 31 H 3.936079 -6.494834 4.053781 0
M  V30 32 H 3.040910 -8.017513 3.983571 0
M  V30 33 H 2.375796 -6.645385 4.910797 0
M  V30 34 H 2.162478 -4.630843 4.708188 0
M  V30 35 H 0.498809 -0.363408 5.352222 0
M  V30 36 H -1.409366 -1.935097 0.699171 0
M  V30 37 H 1.106671 -0.173534 0.728235 0
M  V30 38 H 0.483220 -1.278053 -0.491601 0
M  V30 39 H 0.518041 1.058386 -1.182440 0
M  V30 40 H -1.080260 0.307754 -1.388081 0
M  V30 41 H -2.551698 2.418084 -2.485117 0
M  V30 42 H -2.323569 3.727092 -4.630455 0
M  V30 43 H 0.288709 6.474510 -2.689080 0
M  V30 44 H 0.068896 5.226276 -0.651356 0
M  V30 45 H -1.417439 2.080573 2.184153 0
M  V30 46 H 0.014726 1.058878 1.928122 0
M  V30 47 H -2.434149 -0.125150 2.371550 0
M  V30 48 H -2.547346 0.090253 0.615703 0
M  V30 49 H -0.077508 -3.401736 0.453405 0
M  V30 50 H -0.517508 -5.111437 -0.579640 0
M  V30 51 H 0.185049 -6.639082 -1.204944 0
M  V30 52 H 1.049941 -5.003820 -1.406544 0
M  V30 END ATOM
M  V30 BEGIN BOND
M  V30 1 1 1 2
M  V30 2 1 2 3
M  V30 3 2 3 4
M  V30 4 1 4 5
M  V30 5 2 5 6
M  V30 6 1 6 7
M  V30 7 2 7 8
M  V30 8 1 8 9
M  V30 9 1 9 10
M  V30 10 1 10 11
M  V30 11 1 11 12
M  V30 12 1 12 13
M  V30 13 1 13 14
M  V30 14 2 14 15
M  V30 15 1 14 16
M  V30 16 2 16 17
M  V30 17 1 17 18
M  V30 18 2 18 19
M  V30 19 1 19 20
M  V30 20 3 20 21
M  V30 21 1 19 22
M  V30 22 2 22 23
M  V30 23 1 13 24
M  V30 24 1 24 25
M  V30 25 2 9 26
M  V30 26 1 26 27
M  V30 27 2 27 28
M  V30 28 1 28 29
M  V30 29 1 29 30
M  V30 30 1 28 3
M  V30 31 1 26 5
M  V30 32 1 25 10
M  V30 33 1 23 16
M  V30 34 1 1 31
M  V30 35 1 1 32
M  V30 36 1 1 33
M  V30 37 1 4 34
M  V30 38 1 7 35
M  V30 39 1 10 36
M  V30 40 1 11 37
M  V30 41 1 11 38
M  V30 42 1 12 39
M  V30 43 1 12 40
M  V30 44 1 17 41
M  V30 45 1 18 42
M  V30 46 1 22 43
M  V30 47 1 23 44
M  V30 48 1 24 45
M  V30 49 1 24 46
M  V30 50 1 25 47
M  V30 51 1 25 48
M  V30 52 1 27 49
M  V30 53 1 30 50
M  V30 54 1 30 51
M  V30 55 1 30 52
M  V30 END BOND
M  V30 END CTAB
M  END
>  <Dataset>  (940) 
ChEMBL_Kinases

>  <Ligand_Instance>  (940) 
nan

>  <PDB_ID>  (940) 
nan

>  <Standardized_SMILES>  (940) 
COc1cc2ncnc(C3CCN(C(=O)c4ccc(C#N)cc4)CC3)c2cc1OC

>  <Name>  (940) 
nan

>  <Pocket>  (940) 
nan

>  <ATP_Site>  (940) 
nan

>  <Peripheral>  (940) 
nan

>  <Num_H_Atoms_ProtBoundConf>  (940) 
nan

>  <Num_Resolved_Atoms>  (940) 
nan

>  <Num_Not_Resolved_Atoms>  (940) 
nan

$$$$
CHEMBL4752718
     RDKit          3D

  0  0  0  0  0  0  0  0  0  0999 V3000
M  V30 BEGIN CTAB
M  V30 COUNTS 52 54 0 0 0
M  V30 BEGIN ATOM
M  V30 1 C 1.405509 -4.528749 2.613983 0
M  V30 2 C 2.405421 -3.520083 3.125601 0
M  V30 3 C 2.233645 -3.345483 4.597730 0
M  V30 4 O 3.706361 -4.037553 2.935369 0
M  V30 5 C 2.215163 -2.285781 2.364476 0
M  V30 6 C 2.047301 -1.259120 1.738112 0
M  V30 7 C 1.842957 -0.035895 1.016007 0
M  V30 8 C 2.667558 1.067533 1.099627 0
M  V30 9 N 2.418861 2.192385 0.393658 0
M  V30 10 C 1.348025 2.290844 -0.429661 0
M  V30 11 N 1.144874 3.505667 -1.144402 0
M  V30 12 C 0.434132 4.261370 -0.173769 0
M  V30 13 C 1.349941 5.000942 0.585433 0
M  V30 14 N 0.922533 5.816177 1.596164 0
M  V30 15 C -0.392868 5.909741 1.865390 0
M  V30 16 C -0.903914 6.770910 2.935413 0
M  V30 17 N -1.296038 7.429947 3.784209 0
M  V30 18 C -1.303849 5.181780 1.118845 0
M  V30 19 N -0.881427 4.367922 0.110185 0
M  V30 20 C 0.519634 1.189836 -0.517250 0
M  V30 21 C 0.718242 0.011135 0.176949 0
M  V30 22 N -0.186996 -1.087776 0.028608 0
M  V30 23 C -1.363986 -1.082888 -0.831840 0
M  V30 24 C -2.033612 -2.447012 -0.689846 0 CFG=1
M  V30 25 C -3.314660 -2.473815 -1.469475 0
M  V30 26 N -3.172300 -3.229226 -2.681263 0
M  V30 27 C -2.652083 -4.551087 -2.523317 0
M  V30 28 C -1.833844 -4.655039 -1.255798 0
M  V30 29 O -1.160582 -3.462143 -1.068087 0
M  V30 30 H 0.852562 -4.985945 3.480946 0
M  V30 31 H 0.720382 -4.087880 1.878419 0
M  V30 32 H 1.943188 -5.379112 2.115780 0
M  V30 33 H 3.208395 -3.170639 5.110733 0
M  V30 34 H 1.493668 -2.572445 4.885261 0
M  V30 35 H 1.830428 -4.298603 5.030915 0
M  V30 36 H 3.718199 -5.017649 2.979576 0
M  V30 37 H 3.516362 0.946436 1.771835 0
M  V30 38 H 1.453254 3.727272 -2.113241 0
M  V30 39 H 2.427020 5.043840 0.507793 0
M  V30 40 H -2.373554 5.203011 1.271037 0
M  V30 41 H -0.328710 1.327230 -1.196846 0
M  V30 42 H 0.060340 -1.930789 0.601098 0
M  V30 43 H -2.069582 -0.270726 -0.564883 0
M  V30 44 H -1.082410 -0.917318 -1.897354 0
M  V30 45 H -2.259054 -2.570474 0.375725 0
M  V30 46 H -3.550121 -1.429680 -1.777893 0
M  V30 47 H -4.159356 -2.850262 -0.854738 0
M  V30 48 H -4.046993 -3.198384 -3.251550 0
M  V30 49 H -1.931424 -4.768940 -3.356793 0
M  V30 50 H -3.425124 -5.352102 -2.561285 0
M  V30 51 H -2.455132 -4.885744 -0.373881 0
M  V30 52 H -1.061996 -5.452178 -1.378015 0
M  V30 END ATOM
M  V30 BEGIN BOND
M  V30 1 1 1 2
M  V30 2 1 2 3
M  V30 3 1 2 4
M  V30 4 1 2 5
M  V30 5 3 5 6
M  V30 6 1 6 7
M  V30 7 2 7 8
M  V30 8 1 8 9
M  V30 9 2 9 10
M  V30 10 1 10 11
M  V30 11 1 11 12
M  V30 12 2 12 13
M  V30 13 1 13 14
M  V30 14 2 14 15
M  V30 15 1 15 16
M  V30 16 3 16 17
M  V30 17 1 15 18
M  V30 18 2 18 19
M  V30 19 1 10 20
M  V30 20 2 20 21
M  V30 21 1 21 22
M  V30 22 1 22 23
M  V30 23 1 23 24
M  V30 24 1 24 25
M  V30 25 1 25 26
M  V30 26 1 26 27
M  V30 27 1 27 28
M  V30 28 1 28 29
M  V30 29 1 21 7
M  V30 30 1 29 24
M  V30 31 1 19 12
M  V30 32 1 1 30
M  V30 33 1 1 31
M  V30 34 1 1 32
M  V30 35 1 3 33
M  V30 36 1 3 34
M  V30 37 1 3 35
M  V30 38 1 4 36
M  V30 39 1 8 37
M  V30 40 1 11 38
M  V30 41 1 13 39
M  V30 42 1 18 40
M  V30 43 1 20 41
M  V30 44 1 22 42
M  V30 45 1 23 43
M  V30 46 1 23 44
M  V30 47 1 24 45 CFG=1
M  V30 48 1 25 46
M  V30 49 1 25 47
M  V30 50 1 26 48
M  V30 51 1 27 49
M  V30 52 1 27 50
M  V30 53 1 28 51
M  V30 54 1 28 52
M  V30 END BOND
M  V30 END CTAB
M  END
>  <Dataset>  (941) 
ChEMBL_Kinases

>  <Ligand_Instance>  (941) 
nan

>  <PDB_ID>  (941) 
nan

>  <Standardized_SMILES>  (941) 
CC(C)(O)C#Cc1cnc(Nc2cnc(C#N)cn2)cc1NC[C@H]1CNCCO1

>  <Name>  (941) 
nan

>  <Pocket>  (941) 
nan

>  <ATP_Site>  (941) 
nan

>  <Peripheral>  (941) 
nan

>  <Num_H_Atoms_ProtBoundConf>  (941) 
nan

>  <Num_Resolved_Atoms>  (941) 
nan

>  <Num_Not_Resolved_Atoms>  (941) 
nan

$$$$
CHEMBL4752296
     RDKit          3D

  0  0  0  0  0  0  0  0  0  0999 V3000
M  V30 BEGIN CTAB
M  V30 COUNTS 64 68 0 0 0
M  V30 BEGIN ATOM
M  V30 1 C 2.460151 -5.578124 1.689104 0
M  V30 2 N 2.002657 -4.220046 1.390390 0
M  V30 3 C 3.009095 -3.239968 1.434651 0
M  V30 4 O 4.192283 -3.480329 1.701898 0
M  V30 5 C 2.660510 -1.858487 1.153531 0
M  V30 6 S 3.946452 -0.573029 1.205167 0
M  V30 7 C 2.694487 0.779034 0.753104 0
M  V30 8 C 3.253174 2.171459 0.646985 0
M  V30 9 C 4.561200 2.477415 0.857027 0
M  V30 10 C 4.865071 3.836863 0.704279 0
M  V30 11 N 3.902997 4.742862 0.372937 0
M  V30 12 C 2.620632 4.390204 0.175185 0
M  V30 13 N 1.614989 5.358786 -0.174562 0
M  V30 14 C 0.985620 5.921631 0.973122 0
M  V30 15 O 1.142938 5.733226 2.209039 0
M  V30 16 C -0.088400 6.944296 0.933095 0
M  V30 17 C -0.422532 7.705234 -0.274891 0
M  V30 18 C -1.272019 6.485032 0.078640 0
M  V30 19 C 2.244768 3.047355 0.311060 0
M  V30 20 N 1.730978 0.183064 0.657719 0
M  V30 21 C 1.521118 -1.115354 0.817413 0
M  V30 22 O 0.323628 -1.821981 0.693993 0
M  V30 23 C -0.898038 -1.188554 0.362929 0
M  V30 24 C -1.859410 -1.385926 1.495499 0
M  V30 25 C -2.920113 -2.385755 1.255773 0
M  V30 26 N -3.474931 -2.503642 -0.023895 0
M  V30 27 C -4.185689 -3.680891 -0.328637 0
M  V30 28 C -3.432733 -4.949061 -0.243170 0
M  V30 29 C -2.818296 -5.297252 -1.451826 0
M  V30 30 C -2.064823 -6.463582 -1.560082 0
M  V30 31 C -1.936179 -7.273506 -0.443396 0
M  V30 32 C -2.544973 -6.931693 0.759923 0
M  V30 33 C -3.294289 -5.769726 0.863658 0
M  V30 34 C -2.884215 -1.757603 -1.051513 0
M  V30 35 C -1.383081 -1.765445 -0.936620 0
M  V30 36 H 2.833599 -5.635500 2.736738 0
M  V30 37 H 1.609382 -6.277101 1.523900 0
M  V30 38 H 3.274315 -5.905084 1.011190 0
M  V30 39 H 1.029306 -3.986052 1.164961 0
M  V30 40 H 5.245889 1.708577 1.112162 0
M  V30 41 H 5.906240 4.131026 0.863509 0
M  V30 42 H 1.280642 5.706218 -1.101222 0
M  V30 43 H -0.419461 7.225756 1.958458 0
M  V30 44 H 0.231748 7.568045 -1.140778 0
M  V30 45 H -0.894982 8.708364 -0.114623 0
M  V30 46 H -1.189133 5.593632 -0.542890 0
M  V30 47 H -2.303376 6.693039 0.427112 0
M  V30 48 H 1.224018 2.816929 0.145910 0
M  V30 49 H -0.669661 -0.108200 0.245445 0
M  V30 50 H -1.337206 -1.642607 2.440046 0
M  V30 51 H -2.383569 -0.412889 1.707422 0
M  V30 52 H -2.536274 -3.410746 1.544725 0
M  V30 53 H -3.761469 -2.231823 1.996478 0
M  V30 54 H -5.022477 -3.759012 0.428904 0
M  V30 55 H -4.724626 -3.583342 -1.299538 0
M  V30 56 H -2.881730 -4.701202 -2.369042 0
M  V30 57 H -1.590495 -6.720622 -2.514631 0
M  V30 58 H -1.350559 -8.171519 -0.543975 0
M  V30 59 H -2.449269 -7.558472 1.634060 0
M  V30 60 H -3.798360 -5.432668 1.756422 0
M  V30 61 H -3.212225 -0.690482 -0.989872 0
M  V30 62 H -3.129153 -2.128911 -2.066144 0
M  V30 63 H -1.037474 -2.791239 -1.135129 0
M  V30 64 H -0.986202 -1.126005 -1.753412 0
M  V30 END ATOM
M  V30 BEGIN BOND
M  V30 1 1 1 2
M  V30 2 1 2 3
M  V30 3 2 3 4
M  V30 4 1 3 5
M  V30 5 1 5 6
M  V30 6 1 6 7
M  V30 7 1 7 8
M  V30 8 2 8 9
M  V30 9 1 9 10
M  V30 10 2 10 11
M  V30 11 1 11 12
M  V30 12 1 12 13
M  V30 13 1 13 14
M  V30 14 2 14 15
M  V30 15 1 14 16
M  V30 16 1 16 17
M  V30 17 1 17 18
M  V30 18 2 12 19
M  V30 19 2 7 20
M  V30 20 1 20 21
M  V30 21 1 21 22
M  V30 22 1 22 23
M  V30 23 1 23 24
M  V30 24 1 24 25
M  V30 25 1 25 26
M  V30 26 1 26 27
M  V30 27 1 27 28
M  V30 28 2 28 29
M  V30 29 1 29 30
M  V30 30 2 30 31
M  V30 31 1 31 32
M  V30 32 2 32 33
M  V30 33 1 26 34
M  V30 34 1 34 35
M  V30 35 2 21 5
M  V30 36 1 35 23
M  V30 37 1 19 8
M  V30 38 1 33 28
M  V30 39 1 18 16
M  V30 40 1 1 36
M  V30 41 1 1 37
M  V30 42 1 1 38
M  V30 43 1 2 39
M  V30 44 1 9 40
M  V30 45 1 10 41
M  V30 46 1 13 42
M  V30 47 1 16 43
M  V30 48 1 17 44
M  V30 49 1 17 45
M  V30 50 1 18 46
M  V30 51 1 18 47
M  V30 52 1 19 48
M  V30 53 1 23 49
M  V30 54 1 24 50
M  V30 55 1 24 51
M  V30 56 1 25 52
M  V30 57 1 25 53
M  V30 58 1 27 54
M  V30 59 1 27 55
M  V30 60 1 29 56
M  V30 61 1 30 57
M  V30 62 1 31 58
M  V30 63 1 32 59
M  V30 64 1 33 60
M  V30 65 1 34 61
M  V30 66 1 34 62
M  V30 67 1 35 63
M  V30 68 1 35 64
M  V30 END BOND
M  V30 END CTAB
M  END
>  <Dataset>  (942) 
ChEMBL_Kinases

>  <Ligand_Instance>  (942) 
nan

>  <PDB_ID>  (942) 
nan

>  <Standardized_SMILES>  (942) 
CNC(=O)c1sc(-c2ccnc(NC(=O)C3CC3)c2)nc1OC1CCN(Cc2ccccc2)CC1

>  <Name>  (942) 
nan

>  <Pocket>  (942) 
nan

>  <ATP_Site>  (942) 
nan

>  <Peripheral>  (942) 
nan

>  <Num_H_Atoms_ProtBoundConf>  (942) 
nan

>  <Num_Resolved_Atoms>  (942) 
nan

>  <Num_Not_Resolved_Atoms>  (942) 
nan

$$$$
CHEMBL4439067
     RDKit          3D

  0  0  0  0  0  0  0  0  0  0999 V3000
M  V30 BEGIN CTAB
M  V30 COUNTS 48 52 0 0 0
M  V30 BEGIN ATOM
M  V30 1 N -1.920245 -3.071905 -3.554056 0
M  V30 2 C -1.377626 -4.126609 -2.752523 0
M  V30 3 C -1.521028 -3.876231 -1.254043 0
M  V30 4 C -0.840125 -2.636065 -0.771524 0
M  V30 5 C -1.618504 -1.498209 -0.792714 0
M  V30 6 C -1.075205 -0.305503 -0.365529 0
M  V30 7 C 0.267462 -0.260263 0.087794 0
M  V30 8 C 1.042017 0.878640 0.488582 0
M  V30 9 C 1.625760 1.286911 -0.724450 0
M  V30 10 O 1.553246 0.800711 -2.031026 0
M  V30 11 C 2.473530 2.407329 -0.720992 0
M  V30 12 C 2.749494 3.115056 0.427965 0
M  V30 13 Cl 3.790298 4.514686 0.512251 0
M  V30 14 C 2.160487 2.685855 1.594747 0
M  V30 15 N 2.392991 3.336554 2.744658 0
M  V30 16 C 1.847023 2.964010 3.911316 0
M  V30 17 O 2.074070 3.582960 4.978603 0
M  V30 18 C 1.018296 1.862038 3.887300 0
M  V30 19 C 0.457766 1.477610 5.086546 0
M  V30 20 O 0.734703 2.188185 6.239440 0
M  V30 21 C -0.369011 0.376891 5.066293 0
M  V30 22 C -0.681258 -0.376485 3.926855 0
M  V30 23 C -0.061458 0.108673 2.801940 0
M  V30 24 C 0.759260 1.175332 2.734100 0
M  V30 25 C 1.339828 1.601603 1.593005 0
M  V30 26 C 1.013137 -1.464751 0.084323 0
M  V30 27 C 0.470891 -2.664347 -0.343940 0
M  V30 28 C -1.755907 -5.034202 -0.388067 0
M  V30 29 C -2.884399 -4.101318 -0.717656 0
M  V30 30 H -2.807330 -2.708601 -3.174121 0
M  V30 31 H -1.175396 -2.358619 -3.702747 0
M  V30 32 H -0.288829 -4.246293 -2.918539 0
M  V30 33 H -1.897259 -5.076594 -2.982377 0
M  V30 34 H -2.643934 -1.461325 -1.124100 0
M  V30 35 H -1.553621 0.663741 -0.322539 0
M  V30 36 H 1.053237 1.244762 -2.779685 0
M  V30 37 H 2.991364 2.836584 -1.572463 0
M  V30 38 H 3.025661 4.173439 2.748740 0
M  V30 39 H -0.022783 2.678818 6.710956 0
M  V30 40 H -0.778625 0.127830 6.049096 0
M  V30 41 H -1.338433 -1.182420 4.142323 0
M  V30 42 H -0.395833 -0.553796 2.075900 0
M  V30 43 H 2.041382 -1.525246 0.411751 0
M  V30 44 H 1.048207 -3.575111 -0.342098 0
M  V30 45 H -1.827752 -6.024470 -0.893372 0
M  V30 46 H -1.369751 -5.132044 0.641349 0
M  V30 47 H -3.707327 -4.423752 -1.401454 0
M  V30 48 H -3.274446 -3.571273 0.178906 0
M  V30 END ATOM
M  V30 BEGIN BOND
M  V30 1 1 1 2
M  V30 2 1 2 3
M  V30 3 1 3 4
M  V30 4 2 4 5
M  V30 5 1 5 6
M  V30 6 2 6 7
M  V30 7 1 7 8
M  V30 8 2 8 9
M  V30 9 1 9 10
M  V30 10 1 9 11
M  V30 11 2 11 12
M  V30 12 1 12 13
M  V30 13 1 12 14
M  V30 14 1 14 15
M  V30 15 1 15 16
M  V30 16 2 16 17
M  V30 17 1 16 18
M  V30 18 2 18 19
M  V30 19 1 19 20
M  V30 20 1 19 21
M  V30 21 2 21 22
M  V30 22 1 22 23
M  V30 23 2 23 24
M  V30 24 1 24 25
M  V30 25 1 7 26
M  V30 26 2 26 27
M  V30 27 1 3 28
M  V30 28 1 28 29
M  V30 29 1 29 3
M  V30 30 1 27 4
M  V30 31 1 25 8
M  V30 32 2 25 14
M  V30 33 1 24 18
M  V30 34 1 1 30
M  V30 35 1 1 31
M  V30 36 1 2 32
M  V30 37 1 2 33
M  V30 38 1 5 34
M  V30 39 1 6 35
M  V30 40 1 10 36
M  V30 41 1 11 37
M  V30 42 1 15 38
M  V30 43 1 20 39
M  V30 44 1 21 40
M  V30 45 1 22 41
M  V30 46 1 23 42
M  V30 47 1 26 43
M  V30 48 1 27 44
M  V30 49 1 28 45
M  V30 50 1 28 46
M  V30 51 1 29 47
M  V30 52 1 29 48
M  V30 END BOND
M  V30 END CTAB
M  END
>  <Dataset>  (943) 
ChEMBL_Kinases

>  <Ligand_Instance>  (943) 
nan

>  <PDB_ID>  (943) 
nan

>  <Standardized_SMILES>  (943) 
NCC1(c2ccc(-c3c(O)cc(Cl)c4[nH]c(=O)c5c(O)cccc5c34)cc2)CC1

>  <Name>  (943) 
nan

>  <Pocket>  (943) 
nan

>  <ATP_Site>  (943) 
nan

>  <Peripheral>  (943) 
nan

>  <Num_H_Atoms_ProtBoundConf>  (943) 
nan

>  <Num_Resolved_Atoms>  (943) 
nan

>  <Num_Not_Resolved_Atoms>  (943) 
nan

$$$$
CHEMBL4439028
     RDKit          3D

  0  0  0  0  0  0  0  0  0  0999 V3000
M  V30 BEGIN CTAB
M  V30 COUNTS 26 28 0 0 0
M  V30 BEGIN ATOM
M  V30 1 C 0.942136 0.793600 3.319695 0
M  V30 2 C 1.632604 -0.198191 2.484590 0
M  V30 3 N 2.810579 -0.829192 2.782500 0
M  V30 4 N 3.150858 -1.648548 1.824468 0
M  V30 5 C 2.184366 -1.559277 0.877946 0
M  V30 6 C 2.139831 -2.244335 -0.300864 0
M  V30 7 C 1.045305 -1.968234 -1.091401 0
M  V30 8 N 0.121118 -1.094469 -0.703561 0
M  V30 9 C 0.144764 -0.411300 0.448754 0
M  V30 10 N -0.871512 0.517036 0.817622 0
M  V30 11 C -2.000118 0.838283 -0.001530 0
M  V30 12 C -2.834562 -0.411623 -0.363348 0
M  V30 13 C -2.165615 0.449455 -1.395838 0
M  V30 14 C 1.211806 -0.656102 1.258832 0
M  V30 15 H 1.596058 0.941722 4.238675 0
M  V30 16 H 0.915879 1.812157 2.873465 0
M  V30 17 H -0.007913 0.462691 3.739714 0
M  V30 18 H 4.025353 -2.185598 1.933141 0
M  V30 19 H 2.896989 -2.947873 -0.598054 0
M  V30 20 H 0.940809 -2.480825 -2.054703 0
M  V30 21 H -0.881839 1.025107 1.695859 0
M  V30 22 H -2.597297 1.725822 0.332745 0
M  V30 23 H -2.391369 -1.401945 -0.204498 0
M  V30 24 H -3.912819 -0.332937 -0.172251 0
M  V30 25 H -2.921288 1.047372 -1.987170 0
M  V30 26 H -1.398165 0.020278 -2.036645 0
M  V30 END ATOM
M  V30 BEGIN BOND
M  V30 1 1 1 2
M  V30 2 2 2 3
M  V30 3 1 3 4
M  V30 4 1 4 5
M  V30 5 2 5 6
M  V30 6 1 6 7
M  V30 7 2 7 8
M  V30 8 1 8 9
M  V30 9 1 9 10
M  V30 10 1 10 11
M  V30 11 1 11 12
M  V30 12 1 12 13
M  V30 13 2 9 14
M  V30 14 1 14 2
M  V30 15 1 14 5
M  V30 16 1 13 11
M  V30 17 1 1 15
M  V30 18 1 1 16
M  V30 19 1 1 17
M  V30 20 1 4 18
M  V30 21 1 6 19
M  V30 22 1 7 20
M  V30 23 1 10 21
M  V30 24 1 11 22
M  V30 25 1 12 23
M  V30 26 1 12 24
M  V30 27 1 13 25
M  V30 28 1 13 26
M  V30 END BOND
M  V30 END CTAB
M  END
>  <Dataset>  (944) 
ChEMBL_Kinases

>  <Ligand_Instance>  (944) 
nan

>  <PDB_ID>  (944) 
nan

>  <Standardized_SMILES>  (944) 
Cc1n[nH]c2ccnc(NC3CC3)c12

>  <Name>  (944) 
nan

>  <Pocket>  (944) 
nan

>  <ATP_Site>  (944) 
nan

>  <Peripheral>  (944) 
nan

>  <Num_H_Atoms_ProtBoundConf>  (944) 
nan

>  <Num_Resolved_Atoms>  (944) 
nan

>  <Num_Not_Resolved_Atoms>  (944) 
nan

$$$$
CHEMBL4439021
     RDKit          3D

  0  0  0  0  0  0  0  0  0  0999 V3000
M  V30 BEGIN CTAB
M  V30 COUNTS 44 46 0 0 0
M  V30 BEGIN ATOM
M  V30 1 C 0.503341 -5.900783 -0.109740 0
M  V30 2 C -0.235987 -4.713480 -0.677647 0
M  V30 3 C -1.145056 -5.117616 -1.816594 0
M  V30 4 C 0.726337 -3.647815 -1.113982 0
M  V30 5 C 0.807873 -2.362116 -0.619651 0
M  V30 6 C 1.833884 -1.769554 -1.326409 0
M  V30 7 C 2.290069 -0.394602 -1.146609 0
M  V30 8 C 3.331558 0.060658 -1.928708 0
M  V30 9 C 3.744324 1.360037 -1.741528 0
M  V30 10 C 3.144209 2.172725 -0.813258 0
M  V30 11 C 2.105377 1.749244 -0.019559 0
M  V30 12 N 1.534763 2.646669 0.918492 0
M  V30 13 C 0.491310 2.467289 1.824884 0
M  V30 14 O -0.083999 1.354221 1.873938 0
M  V30 15 N 0.008196 3.456775 2.721163 0
M  V30 16 C -1.084412 2.980657 3.542189 0
M  V30 17 C -2.420992 3.095560 3.153647 0
M  V30 18 C -3.419290 2.617490 3.989785 0
M  V30 19 C -3.084051 2.035974 5.191217 0
M  V30 20 Cl -4.368733 1.432931 6.242853 0
M  V30 21 C -1.764089 1.927247 5.565447 0
M  V30 22 C -0.745509 2.397098 4.748139 0
M  V30 23 C 1.727844 0.444908 -0.242237 0
M  V30 24 N 2.350309 -2.631572 -2.197826 0
M  V30 25 N 1.673010 -3.778866 -2.067334 0
M  V30 26 H 0.273630 -6.832574 -0.702095 0
M  V30 27 H 1.609633 -5.740135 -0.092909 0
M  V30 28 H 0.196637 -6.093418 0.934691 0
M  V30 29 H -0.879083 -4.289401 0.120383 0
M  V30 30 H -1.960111 -4.379507 -1.965814 0
M  V30 31 H -0.530656 -5.209715 -2.729380 0
M  V30 32 H -1.587112 -6.109119 -1.587191 0
M  V30 33 H 0.206376 -1.900337 0.154326 0
M  V30 34 H 3.831848 -0.543861 -2.670134 0
M  V30 35 H 4.552183 1.764477 -2.325363 0
M  V30 36 H 3.507284 3.187446 -0.705624 0
M  V30 37 H 1.930377 3.615952 0.975392 0
M  V30 38 H 0.478053 4.399122 2.695854 0
M  V30 39 H -2.576154 3.571319 2.184875 0
M  V30 40 H -4.455950 2.732460 3.636789 0
M  V30 41 H -1.476228 1.469642 6.513759 0
M  V30 42 H 0.305441 2.310303 5.046553 0
M  V30 43 H 0.923262 0.026357 0.332258 0
M  V30 44 H 3.128169 -2.532909 -2.889453 0
M  V30 END ATOM
M  V30 BEGIN BOND
M  V30 1 1 1 2
M  V30 2 1 2 3
M  V30 3 1 2 4
M  V30 4 1 4 5
M  V30 5 2 5 6
M  V30 6 1 6 7
M  V30 7 2 7 8
M  V30 8 1 8 9
M  V30 9 2 9 10
M  V30 10 1 10 11
M  V30 11 1 11 12
M  V30 12 1 12 13
M  V30 13 2 13 14
M  V30 14 1 13 15
M  V30 15 1 15 16
M  V30 16 2 16 17
M  V30 17 1 17 18
M  V30 18 2 18 19
M  V30 19 1 19 20
M  V30 20 1 19 21
M  V30 21 2 21 22
M  V30 22 2 11 23
M  V30 23 1 6 24
M  V30 24 1 24 25
M  V30 25 2 25 4
M  V30 26 1 23 7
M  V30 27 1 22 16
M  V30 28 1 1 26
M  V30 29 1 1 27
M  V30 30 1 1 28
M  V30 31 1 2 29
M  V30 32 1 3 30
M  V30 33 1 3 31
M  V30 34 1 3 32
M  V30 35 1 5 33
M  V30 36 1 8 34
M  V30 37 1 9 35
M  V30 38 1 10 36
M  V30 39 1 12 37
M  V30 40 1 15 38
M  V30 41 1 17 39
M  V30 42 1 18 40
M  V30 43 1 21 41
M  V30 44 1 22 42
M  V30 45 1 23 43
M  V30 46 1 24 44
M  V30 END BOND
M  V30 END CTAB
M  END
>  <Dataset>  (945) 
ChEMBL_Kinases

>  <Ligand_Instance>  (945) 
nan

>  <PDB_ID>  (945) 
nan

>  <Standardized_SMILES>  (945) 
CC(C)c1cc(-c2cccc(NC(=O)Nc3ccc(Cl)cc3)c2)[nH]n1

>  <Name>  (945) 
nan

>  <Pocket>  (945) 
nan

>  <ATP_Site>  (945) 
nan

>  <Peripheral>  (945) 
nan

>  <Num_H_Atoms_ProtBoundConf>  (945) 
nan

>  <Num_Resolved_Atoms>  (945) 
nan

>  <Num_Not_Resolved_Atoms>  (945) 
nan

$$$$
CHEMBL4438995
     RDKit          3D

  0  0  0  0  0  0  0  0  0  0999 V3000
M  V30 BEGIN CTAB
M  V30 COUNTS 42 45 0 0 0
M  V30 BEGIN ATOM
M  V30 1 C 2.790097 -3.093168 1.470082 0
M  V30 2 N 2.374493 -2.811734 2.821562 0
M  V30 3 C 1.187562 -3.543857 3.112659 0
M  V30 4 C -0.080983 -2.905140 2.590136 0
M  V30 5 N 0.129964 -1.475444 2.276536 0
M  V30 6 C -0.298068 -0.651016 1.207196 0
M  V30 7 C 0.560992 -0.016849 0.334524 0
M  V30 8 C 0.169577 0.785230 -0.716311 0
M  V30 9 C 1.082173 1.452000 -1.634460 0
M  V30 10 C 0.553020 2.227477 -2.644967 0
M  V30 11 C 1.368601 2.893014 -3.558160 0
M  V30 12 N 2.709268 2.807548 -3.493199 0
M  V30 13 C 3.245183 2.056861 -2.515860 0
M  V30 14 C 2.458798 1.392099 -1.604762 0
M  V30 15 N -1.145447 0.975141 -0.921189 0
M  V30 16 C -2.073085 0.399826 -0.123765 0
M  V30 17 C -3.416005 0.614383 -0.357030 0
M  V30 18 N -4.356212 0.037334 0.446725 0
M  V30 19 C -3.960295 -0.755144 1.485258 0
M  V30 20 C -2.625786 -0.939287 1.678340 0
M  V30 21 C -1.619502 -0.391963 0.911206 0
M  V30 22 C 0.940657 -0.894502 3.330744 0
M  V30 23 C 2.340556 -1.441532 3.189544 0
M  V30 24 H 2.390644 -4.082661 1.113573 0
M  V30 25 H 3.894183 -3.150886 1.344434 0
M  V30 26 H 2.403510 -2.355031 0.740282 0
M  V30 27 H 1.294359 -4.539195 2.583731 0
M  V30 28 H 1.119205 -3.849417 4.185779 0
M  V30 29 H -0.412981 -3.454727 1.713270 0
M  V30 30 H -0.791878 -3.017102 3.462800 0
M  V30 31 H 1.629905 -0.122323 0.438399 0
M  V30 32 H -0.513400 2.354475 -2.775031 0
M  V30 33 H 0.908646 3.492925 -4.338091 0
M  V30 34 H 4.335467 1.966546 -2.435373 0
M  V30 35 H 2.913224 0.796087 -0.829881 0
M  V30 36 H -3.751106 1.239443 -1.175183 0
M  V30 37 H -4.730137 -1.198467 2.104712 0
M  V30 38 H -2.378158 -1.567573 2.508465 0
M  V30 39 H 0.507605 -1.150120 4.343192 0
M  V30 40 H 0.931305 0.207473 3.320935 0
M  V30 41 H 2.951089 -1.210600 4.094511 0
M  V30 42 H 2.827852 -0.872668 2.346385 0
M  V30 END ATOM
M  V30 BEGIN BOND
M  V30 1 1 1 2
M  V30 2 1 2 3
M  V30 3 1 3 4
M  V30 4 1 4 5
M  V30 5 1 5 6
M  V30 6 2 6 7
M  V30 7 1 7 8
M  V30 8 1 8 9
M  V30 9 2 9 10
M  V30 10 1 10 11
M  V30 11 2 11 12
M  V30 12 1 12 13
M  V30 13 2 13 14
M  V30 14 2 8 15
M  V30 15 1 15 16
M  V30 16 2 16 17
M  V30 17 1 17 18
M  V30 18 2 18 19
M  V30 19 1 19 20
M  V30 20 2 20 21
M  V30 21 1 5 22
M  V30 22 1 22 23
M  V30 23 1 23 2
M  V30 24 1 21 6
M  V30 25 1 14 9
M  V30 26 1 21 16
M  V30 27 1 1 24
M  V30 28 1 1 25
M  V30 29 1 1 26
M  V30 30 1 3 27
M  V30 31 1 3 28
M  V30 32 1 4 29
M  V30 33 1 4 30
M  V30 34 1 7 31
M  V30 35 1 10 32
M  V30 36 1 11 33
M  V30 37 1 13 34
M  V30 38 1 14 35
M  V30 39 1 17 36
M  V30 40 1 19 37
M  V30 41 1 20 38
M  V30 42 1 22 39
M  V30 43 1 22 40
M  V30 44 1 23 41
M  V30 45 1 23 42
M  V30 END BOND
M  V30 END CTAB
M  END
>  <Dataset>  (946) 
ChEMBL_Kinases

>  <Ligand_Instance>  (946) 
nan

>  <PDB_ID>  (946) 
nan

>  <Standardized_SMILES>  (946) 
CN1CCN(c2cc(-c3ccncc3)nc3cnccc23)CC1

>  <Name>  (946) 
nan

>  <Pocket>  (946) 
nan

>  <ATP_Site>  (946) 
nan

>  <Peripheral>  (946) 
nan

>  <Num_H_Atoms_ProtBoundConf>  (946) 
nan

>  <Num_Resolved_Atoms>  (946) 
nan

>  <Num_Not_Resolved_Atoms>  (946) 
nan

$$$$
CHEMBL4438979
     RDKit          3D

  0  0  0  0  0  0  0  0  0  0999 V3000
M  V30 BEGIN CTAB
M  V30 COUNTS 72 77 0 0 0
M  V30 BEGIN ATOM
M  V30 1 C 0.776851 -5.804417 0.611873 0
M  V30 2 C 1.675989 -4.737233 0.112564 0
M  V30 3 C 1.597589 -3.529265 0.784913 0
M  V30 4 C 2.416387 -2.500388 0.362561 0
M  V30 5 C 2.360372 -1.172373 1.022807 0
M  V30 6 C 3.294614 -0.275502 1.519304 0
M  V30 7 N 2.612856 0.784042 2.001024 0
M  V30 8 N 1.311687 0.633658 1.850597 0
M  V30 9 C 0.297505 1.450483 2.185365 0
M  V30 10 N 0.517987 2.678534 2.845513 0
M  V30 11 C -0.349506 3.778427 3.079097 0
M  V30 12 C -0.525887 4.717757 1.905977 0 CFG=1
M  V30 13 C 0.807862 5.374745 1.484212 0
M  V30 14 C 0.270152 5.335033 0.068711 0 CFG=2
M  V30 15 C 1.322457 5.024763 -0.977002 0
M  V30 16 O -0.535135 6.394932 -0.259810 0
M  V30 17 C -0.512539 4.088356 0.531403 0
M  V30 18 C -0.948590 0.965145 1.866556 0
M  V30 19 C -1.215911 -0.236805 1.261759 0
M  V30 20 N -2.457775 -0.814472 0.940062 0
M  V30 21 C -3.824031 -0.506242 1.061608 0
M  V30 22 C -4.313717 -0.180926 2.460731 0
M  V30 23 C -5.711719 0.324125 2.152857 0
M  V30 24 C -5.543084 1.159184 0.927459 0
M  V30 25 C -4.194753 0.743092 0.311817 0
M  V30 26 N -0.097941 -0.929508 0.993361 0
M  V30 27 C 1.150358 -0.538907 1.264344 0
M  V30 28 C 3.274119 -2.706302 -0.699904 0
M  V30 29 C 3.327298 -3.922091 -1.347118 0
M  V30 30 C 2.517168 -4.986056 -0.952477 0
M  V30 31 C 2.459823 -6.317344 -1.542102 0
M  V30 32 O 3.007196 -7.355557 -1.062274 0
M  V30 33 N 1.746307 -6.531811 -2.754073 0
M  V30 34 C 1.555927 -7.771845 -3.516717 0
M  V30 35 C 0.163455 -7.882528 -4.171165 0
M  V30 36 C 1.408188 -7.677343 -4.981664 0
M  V30 37 H 1.025319 -6.785481 0.144092 0
M  V30 38 H -0.285644 -5.569378 0.524823 0
M  V30 39 H 0.991053 -5.902647 1.717943 0
M  V30 40 H 0.917206 -3.379940 1.618882 0
M  V30 41 H 4.347247 -0.540933 1.449755 0
M  V30 42 H 1.498928 2.814570 3.240928 0
M  V30 43 H -1.399582 3.452789 3.346098 0
M  V30 44 H -0.035829 4.398511 3.942660 0
M  V30 45 H -1.261009 5.505406 2.073573 0
M  V30 46 H 0.890114 6.428715 1.797770 0
M  V30 47 H 1.693936 4.745240 1.627906 0
M  V30 48 H 0.798809 4.498436 -1.801120 0
M  V30 49 H 2.172017 4.471924 -0.564586 0
M  V30 50 H 1.676565 5.999683 -1.372375 0
M  V30 51 H -0.178053 6.809545 -1.111025 0
M  V30 52 H -1.477979 3.957026 0.036816 0
M  V30 53 H 0.170432 3.209267 0.527259 0
M  V30 54 H -1.813082 1.588556 2.105961 0
M  V30 55 H -2.392759 -1.767090 0.457934 0
M  V30 56 H -4.507986 -1.335578 0.717309 0
M  V30 57 H -4.414239 -1.115726 3.059538 0
M  V30 58 H -3.725047 0.578525 2.985822 0
M  V30 59 H -6.170334 0.875400 2.999651 0
M  V30 60 H -6.320300 -0.570997 1.895972 0
M  V30 61 H -6.305855 0.910782 0.143737 0
M  V30 62 H -5.519762 2.221826 1.165102 0
M  V30 63 H -4.299595 0.490673 -0.763347 0
M  V30 64 H -3.470832 1.561771 0.388510 0
M  V30 65 H 3.914594 -1.905202 -1.033159 0
M  V30 66 H 3.978115 -4.139578 -2.182892 0
M  V30 67 H 1.280990 -5.677121 -3.172619 0
M  V30 68 H 1.991679 -8.688550 -3.129707 0
M  V30 69 H -0.481771 -6.980714 -4.112458 0
M  V30 70 H -0.357770 -8.843377 -4.148175 0
M  V30 71 H 1.680335 -8.589044 -5.586957 0
M  V30 72 H 1.630800 -6.720785 -5.461154 0
M  V30 END ATOM
M  V30 BEGIN BOND
M  V30 1 1 1 2
M  V30 2 2 2 3
M  V30 3 1 3 4
M  V30 4 1 4 5
M  V30 5 1 5 6
M  V30 6 2 6 7
M  V30 7 1 7 8
M  V30 8 1 8 9
M  V30 9 1 9 10
M  V30 10 1 10 11
M  V30 11 1 11 12
M  V30 12 1 12 13
M  V30 13 1 13 14
M  V30 14 1 14 15
M  V30 15 1 14 16 CFG=3
M  V30 16 1 14 17
M  V30 17 2 9 18
M  V30 18 1 18 19
M  V30 19 1 19 20
M  V30 20 1 20 21
M  V30 21 1 21 22
M  V30 22 1 22 23
M  V30 23 1 23 24
M  V30 24 1 24 25
M  V30 25 2 19 26
M  V30 26 1 26 27
M  V30 27 2 4 28
M  V30 28 1 28 29
M  V30 29 2 29 30
M  V30 30 1 30 31
M  V30 31 2 31 32
M  V30 32 1 31 33
M  V30 33 1 33 34
M  V30 34 1 34 35
M  V30 35 1 35 36
M  V30 36 1 30 2
M  V30 37 1 36 34
M  V30 38 2 27 5
M  V30 39 1 27 8
M  V30 40 1 17 12
M  V30 41 1 25 21
M  V30 42 1 1 37
M  V30 43 1 1 38
M  V30 44 1 1 39
M  V30 45 1 3 40
M  V30 46 1 6 41
M  V30 47 1 10 42
M  V30 48 1 11 43
M  V30 49 1 11 44
M  V30 50 1 12 45 CFG=1
M  V30 51 1 13 46
M  V30 52 1 13 47
M  V30 53 1 15 48
M  V30 54 1 15 49
M  V30 55 1 15 50
M  V30 56 1 16 51
M  V30 57 1 17 52
M  V30 58 1 17 53
M  V30 59 1 18 54
M  V30 60 1 20 55
M  V30 61 1 21 56
M  V30 62 1 22 57
M  V30 63 1 22 58
M  V30 64 1 23 59
M  V30 65 1 23 60
M  V30 66 1 24 61
M  V30 67 1 24 62
M  V30 68 1 25 63
M  V30 69 1 25 64
M  V30 70 1 28 65
M  V30 71 1 29 66
M  V30 72 1 33 67
M  V30 73 1 34 68
M  V30 74 1 35 69
M  V30 75 1 35 70
M  V30 76 1 36 71
M  V30 77 1 36 72
M  V30 END BOND
M  V30 END CTAB
M  END
>  <Dataset>  (947) 
ChEMBL_Kinases

>  <Ligand_Instance>  (947) 
nan

>  <PDB_ID>  (947) 
nan

>  <Standardized_SMILES>  (947) 
Cc1cc(-c2cnn3c(NC[C@H]4C[C@](C)(O)C4)cc(NC4CCCC4)nc23)ccc1C(=O)NC1CC1

>  <Name>  (947) 
nan

>  <Pocket>  (947) 
nan

>  <ATP_Site>  (947) 
nan

>  <Peripheral>  (947) 
nan

>  <Num_H_Atoms_ProtBoundConf>  (947) 
nan

>  <Num_Resolved_Atoms>  (947) 
nan

>  <Num_Not_Resolved_Atoms>  (947) 
nan

$$$$
CHEMBL4438939
     RDKit          3D

  0  0  0  0  0  0  0  0  0  0999 V3000
M  V30 BEGIN CTAB
M  V30 COUNTS 52 56 0 0 0
M  V30 BEGIN ATOM
M  V30 1 O -0.529074 -1.571568 3.074178 0
M  V30 2 C -1.147486 -1.634302 1.976766 0
M  V30 3 N -0.702635 -0.581688 1.132059 0
M  V30 4 C 0.270294 0.361987 1.488785 0
M  V30 5 C 0.051964 1.575947 2.102982 0
M  V30 6 C 1.120835 2.392674 2.387491 0
M  V30 7 C 2.441260 2.046956 2.079194 0
M  V30 8 O 3.365984 3.005222 2.447316 0
M  V30 9 C 4.189057 3.684606 1.564275 0
M  V30 10 C 4.322536 3.696940 0.170981 0
M  V30 11 C 5.264293 4.508634 -0.396320 0
M  V30 12 N 6.076600 5.302907 0.318521 0
M  V30 13 C 5.980567 5.320602 1.659940 0
M  V30 14 C 5.036151 4.512762 2.306504 0
M  V30 15 C 2.620340 0.829280 1.468171 0
M  V30 16 C 3.934642 0.524482 1.188791 0
M  V30 17 C 4.223368 -0.677070 0.580328 0
M  V30 18 C 3.193613 -1.566949 0.255372 0
M  V30 19 C 1.892973 -1.180190 0.573633 0
M  V30 20 C 1.563029 0.003495 1.177865 0
M  V30 21 C -2.151984 -2.641720 1.662791 0
M  V30 22 C -2.387411 -3.557407 2.685705 0
M  V30 23 C -3.311931 -4.567090 2.526650 0
M  V30 24 C -4.046960 -4.732885 1.371717 0
M  V30 25 N -3.784133 -3.824997 0.414499 0
M  V30 26 C -4.490397 -3.896402 -0.836991 0
M  V30 27 C -3.682417 -4.332110 -1.872537 0
M  V30 28 C -4.222389 -4.450780 -3.135866 0
M  V30 29 C -5.543746 -4.140524 -3.361851 0
M  V30 30 F -6.092292 -4.252154 -4.604825 0
M  V30 31 C -6.342663 -3.705857 -2.319484 0
M  V30 32 C -5.821121 -3.577123 -1.031860 0
M  V30 33 C -2.892939 -2.835422 0.541540 0
M  V30 34 O -2.697642 -2.032201 -0.377376 0
M  V30 35 H -1.116553 -0.490104 0.180464 0
M  V30 36 H -0.973441 1.824417 2.332038 0
M  V30 37 H 0.821392 3.326246 2.873873 0
M  V30 38 H 3.609450 3.017225 -0.247150 0
M  V30 39 H 5.256580 4.415594 -1.494510 0
M  V30 40 H 6.670010 5.985167 2.146275 0
M  V30 41 H 5.098097 4.652628 3.376221 0
M  V30 42 H 4.755856 1.171509 1.425729 0
M  V30 43 H 5.215502 -1.040444 0.304561 0
M  V30 44 H 3.370223 -2.536349 -0.230265 0
M  V30 45 H 1.119212 -1.884587 0.312342 0
M  V30 46 H -1.859848 -3.513824 3.636350 0
M  V30 47 H -3.472758 -5.263353 3.339286 0
M  V30 48 H -4.772499 -5.494232 1.196777 0
M  V30 49 H -2.639778 -4.599370 -1.801749 0
M  V30 50 H -3.667639 -4.784359 -4.011575 0
M  V30 51 H -7.388023 -3.444107 -2.421006 0
M  V30 52 H -6.361724 -3.246652 -0.152916 0
M  V30 END ATOM
M  V30 BEGIN BOND
M  V30 1 2 1 2
M  V30 2 1 2 3
M  V30 3 1 3 4
M  V30 4 2 4 5
M  V30 5 1 5 6
M  V30 6 2 6 7
M  V30 7 1 7 8
M  V30 8 1 8 9
M  V30 9 2 9 10
M  V30 10 1 10 11
M  V30 11 2 11 12
M  V30 12 1 12 13
M  V30 13 2 13 14
M  V30 14 1 7 15
M  V30 15 2 15 16
M  V30 16 1 16 17
M  V30 17 2 17 18
M  V30 18 1 18 19
M  V30 19 2 19 20
M  V30 20 1 2 21
M  V30 21 2 21 22
M  V30 22 1 22 23
M  V30 23 2 23 24
M  V30 24 1 24 25
M  V30 25 1 25 26
M  V30 26 2 26 27
M  V30 27 1 27 28
M  V30 28 2 28 29
M  V30 29 1 29 30
M  V30 30 1 29 31
M  V30 31 2 31 32
M  V30 32 1 25 33
M  V30 33 2 33 34
M  V30 34 1 20 4
M  V30 35 1 33 21
M  V30 36 1 14 9
M  V30 37 1 20 15
M  V30 38 1 32 26
M  V30 39 1 3 35
M  V30 40 1 5 36
M  V30 41 1 6 37
M  V30 42 1 10 38
M  V30 43 1 11 39
M  V30 44 1 13 40
M  V30 45 1 14 41
M  V30 46 1 16 42
M  V30 47 1 17 43
M  V30 48 1 18 44
M  V30 49 1 19 45
M  V30 50 1 22 46
M  V30 51 1 23 47
M  V30 52 1 24 48
M  V30 53 1 27 49
M  V30 54 1 28 50
M  V30 55 1 31 51
M  V30 56 1 32 52
M  V30 END BOND
M  V30 END CTAB
M  END
>  <Dataset>  (948) 
ChEMBL_Kinases

>  <Ligand_Instance>  (948) 
nan

>  <PDB_ID>  (948) 
nan

>  <Standardized_SMILES>  (948) 
O=C(Nc1ccc(Oc2ccncc2)c2ccccc12)c1cccn(-c2ccc(F)cc2)c1=O

>  <Name>  (948) 
nan

>  <Pocket>  (948) 
nan

>  <ATP_Site>  (948) 
nan

>  <Peripheral>  (948) 
nan

>  <Num_H_Atoms_ProtBoundConf>  (948) 
nan

>  <Num_Resolved_Atoms>  (948) 
nan

>  <Num_Not_Resolved_Atoms>  (948) 
nan

$$$$
CHEMBL4438877
     RDKit          3D

  0  0  0  0  0  0  0  0  0  0999 V3000
M  V30 BEGIN CTAB
M  V30 COUNTS 55 58 0 0 0
M  V30 BEGIN ATOM
M  V30 1 C 3.709407 -2.069661 2.665250 0
M  V30 2 N 3.674626 -2.254353 4.105399 0
M  V30 3 N 4.835376 -2.527119 4.717372 0
M  V30 4 C 4.632096 -2.663736 6.028851 0
M  V30 5 C 3.288370 -2.453519 6.138262 0
M  V30 6 Cl 2.651539 -2.556528 7.758227 0
M  V30 7 C 2.652993 -2.194996 4.955348 0
M  V30 8 C 1.273803 -1.917172 4.651842 0
M  V30 9 C 0.811288 -1.685810 3.386096 0
M  V30 10 C -0.563682 -1.425030 3.362137 0
M  V30 11 C -1.534485 -1.122083 2.324129 0
M  V30 12 O -2.742630 -0.920643 2.478895 0
M  V30 13 N -1.021444 -1.053527 1.013922 0
M  V30 14 C -1.567661 -0.784165 -0.327391 0 CFG=2
M  V30 15 C -1.453277 -2.004760 -1.163538 0
M  V30 16 N -0.515880 -1.861289 -2.231239 0
M  V30 17 C -0.941152 -0.735503 -3.047926 0 CFG=2
M  V30 18 C -0.051413 -0.725767 -4.265482 0
M  V30 19 C -0.271342 -2.032743 -4.964023 0
M  V30 20 N 0.641173 -3.057140 -5.387230 0
M  V30 21 O -1.522890 -2.187735 -5.186811 0
M  V30 22 C -0.744593 0.562810 -2.312113 0
M  V30 23 C -0.951621 0.469109 -0.849229 0 CFG=1
M  V30 24 C -1.681890 1.689670 -0.322116 0
M  V30 25 C -2.934419 1.946563 -0.878618 0
M  V30 26 C -3.661671 3.043376 -0.465952 0
M  V30 27 C -3.138506 3.892879 0.510871 0
M  V30 28 Cl -3.991112 5.306611 1.088756 0
M  V30 29 C -1.882141 3.645393 1.077709 0
M  V30 30 Cl -1.195437 4.695452 2.307392 0
M  V30 31 C -1.189922 2.544696 0.640952 0
M  V30 32 O -0.937905 -1.502100 4.635492 0
M  V30 33 C 0.117365 -1.784269 5.371889 0
M  V30 34 Cl -0.045195 -1.950863 7.092610 0
M  V30 35 H 4.771312 -2.138878 2.281177 0
M  V30 36 H 3.418530 -1.035576 2.424156 0
M  V30 37 H 3.175610 -2.843108 2.121742 0
M  V30 38 H 5.444504 -2.885500 6.676148 0
M  V30 39 H 1.202791 -1.645625 2.400341 0
M  V30 40 H -0.003359 -1.216423 0.795733 0
M  V30 41 H -2.671598 -0.551025 -0.235227 0
M  V30 42 H -2.466514 -2.319115 -1.522523 0
M  V30 43 H -1.087386 -2.844740 -0.508665 0
M  V30 44 H -0.570325 -2.709947 -2.836693 0
M  V30 45 H -1.964213 -0.926907 -3.368833 0
M  V30 46 H 1.002622 -0.543841 -4.037668 0
M  V30 47 H -0.465233 0.073768 -4.952572 0
M  V30 48 H 0.283336 -4.008261 -5.074974 0
M  V30 49 H 1.483414 -3.412302 -5.846417 0
M  V30 50 H -1.416835 1.322914 -2.760552 0
M  V30 51 H 0.293444 0.914893 -2.550533 0
M  V30 52 H 0.041933 0.554153 -0.352955 0
M  V30 53 H -3.425257 1.330355 -1.656106 0
M  V30 54 H -4.651651 3.311305 -0.855598 0
M  V30 55 H -0.197808 2.306877 1.057540 0
M  V30 END ATOM
M  V30 BEGIN BOND
M  V30 1 1 1 2
M  V30 2 1 2 3
M  V30 3 2 3 4
M  V30 4 1 4 5
M  V30 5 1 5 6
M  V30 6 2 5 7
M  V30 7 1 7 8
M  V30 8 1 8 9
M  V30 9 2 9 10
M  V30 10 1 10 11
M  V30 11 2 11 12
M  V30 12 1 11 13
M  V30 13 1 13 14
M  V30 14 1 14 15
M  V30 15 1 15 16
M  V30 16 1 16 17
M  V30 17 1 17 18
M  V30 18 1 18 19
M  V30 19 1 19 20
M  V30 20 2 19 21
M  V30 21 1 17 22
M  V30 22 1 22 23
M  V30 23 1 23 24
M  V30 24 2 24 25
M  V30 25 1 25 26
M  V30 26 2 26 27
M  V30 27 1 27 28
M  V30 28 1 27 29
M  V30 29 1 29 30
M  V30 30 2 29 31
M  V30 31 1 10 32
M  V30 32 1 32 33
M  V30 33 1 33 34
M  V30 34 1 7 2
M  V30 35 2 33 8
M  V30 36 1 23 14
M  V30 37 1 31 24
M  V30 38 1 1 35
M  V30 39 1 1 36
M  V30 40 1 1 37
M  V30 41 1 4 38
M  V30 42 1 9 39
M  V30 43 1 13 40
M  V30 44 1 14 41 CFG=1
M  V30 45 1 15 42
M  V30 46 1 15 43
M  V30 47 1 16 44
M  V30 48 1 17 45 CFG=3
M  V30 49 1 18 46
M  V30 50 1 18 47
M  V30 51 1 20 48
M  V30 52 1 20 49
M  V30 53 1 22 50
M  V30 54 1 22 51
M  V30 55 1 23 52 CFG=1
M  V30 56 1 25 53
M  V30 57 1 26 54
M  V30 58 1 31 55
M  V30 END BOND
M  V30 END CTAB
M  END
>  <Dataset>  (949) 
ChEMBL_Kinases

>  <Ligand_Instance>  (949) 
nan

>  <PDB_ID>  (949) 
nan

>  <Standardized_SMILES>  (949) 
Cn1ncc(Cl)c1-c1cc(C(=O)N[C@@H]2CN[C@H](CC(N)=O)C[C@H]2c2ccc(Cl)c(Cl)c2)oc1Cl

>  <Name>  (949) 
nan

>  <Pocket>  (949) 
nan

>  <ATP_Site>  (949) 
nan

>  <Peripheral>  (949) 
nan

>  <Num_H_Atoms_ProtBoundConf>  (949) 
nan

>  <Num_Resolved_Atoms>  (949) 
nan

>  <Num_Not_Resolved_Atoms>  (949) 
nan

$$$$
CHEMBL4752353
     RDKit          3D

  0  0  0  0  0  0  0  0  0  0999 V3000
M  V30 BEGIN CTAB
M  V30 COUNTS 65 69 0 0 0
M  V30 BEGIN ATOM
M  V30 1 O 0.383722 -3.819492 6.147524 0
M  V30 2 S 1.026276 -2.945766 5.097016 0
M  V30 3 O 2.500302 -3.253554 5.113033 0
M  V30 4 N 0.427203 -3.355967 3.572253 0
M  V30 5 C -0.965967 -3.139569 3.356280 0
M  V30 6 C -1.223918 -3.592878 1.913632 0
M  V30 7 C -2.656525 -3.440063 1.502782 0
M  V30 8 N -2.833766 -3.879924 0.135867 0
M  V30 9 C -2.331075 -3.247375 -1.033087 0
M  V30 10 C -1.701451 -2.034250 -1.061767 0
M  V30 11 C -1.194530 -1.421353 -2.187784 0
M  V30 12 C -0.536063 -0.119984 -2.154503 0
M  V30 13 N -1.388242 0.874271 -1.775701 0
M  V30 14 C -0.703263 2.049566 -1.773915 0
M  V30 15 C -1.110218 3.419797 -1.455060 0
M  V30 16 C -0.290217 4.524571 -1.498322 0
M  V30 17 C -0.764659 5.760739 -1.183992 0
M  V30 18 C -2.094205 5.959743 -0.806845 0
M  V30 19 C -2.931588 4.880779 -0.755234 0
M  V30 20 C -2.439860 3.619862 -1.077765 0
M  V30 21 N 0.558218 1.771641 -2.149329 0
M  V30 22 C 0.699874 0.456247 -2.390696 0
M  V30 23 C 1.750792 -0.453231 -2.807446 0
M  V30 24 C 2.305045 -0.232913 -4.048512 0
M  V30 25 C 3.303844 -1.065308 -4.488672 0
M  V30 26 C 3.732155 -2.105835 -3.678864 0
M  V30 27 C 3.160017 -2.304013 -2.440529 0
M  V30 28 O 3.607171 -3.349305 -1.654930 0
M  V30 29 C 2.156408 -1.486935 -1.969854 0
M  V30 30 C -1.321907 -2.070319 -3.408099 0
M  V30 31 C -1.958891 -3.291483 -3.363884 0
M  V30 32 N -2.432721 -3.839680 -2.235239 0
M  V30 33 C 0.852986 -1.257641 5.488952 0
M  V30 34 C 1.865254 -0.377248 5.158648 0
M  V30 35 Cl 3.297195 -0.967984 4.355437 0
M  V30 36 C 1.806048 0.971898 5.433553 0
M  V30 37 C 0.680998 1.471719 6.070821 0
M  V30 38 C -0.335358 0.600973 6.404974 0
M  V30 39 C -0.260085 -0.743481 6.122899 0
M  V30 40 Cl -1.537645 -1.881684 6.536018 0
M  V30 41 H 0.872462 -4.119736 3.067188 0
M  V30 42 H -1.271325 -2.077898 3.448581 0
M  V30 43 H -1.548426 -3.721822 4.085792 0
M  V30 44 H -0.557328 -2.995934 1.274539 0
M  V30 45 H -0.893977 -4.660939 1.900744 0
M  V30 46 H -3.311370 -4.062638 2.144513 0
M  V30 47 H -3.024727 -2.397605 1.650544 0
M  V30 48 H -3.391283 -4.760770 -0.034438 0
M  V30 49 H -1.571208 -1.465127 -0.171605 0
M  V30 50 H -2.407971 0.970581 -1.492174 0
M  V30 51 H 0.737511 4.304220 -1.800315 0
M  V30 52 H -0.046294 6.586266 -1.243925 0
M  V30 53 H -2.370694 6.994701 -0.575237 0
M  V30 54 H -3.954928 5.046545 -0.462855 0
M  V30 55 H -3.163625 2.803171 -1.015158 0
M  V30 56 H 1.971083 0.569525 -4.666658 0
M  V30 57 H 3.746030 -0.896735 -5.468309 0
M  V30 58 H 4.522515 -2.773863 -4.011833 0
M  V30 59 H 3.184376 -3.643218 -0.805620 0
M  V30 60 H 1.714290 -1.650301 -0.998335 0
M  V30 61 H -0.938868 -1.622608 -4.302581 0
M  V30 62 H -2.077451 -3.824865 -4.289538 0
M  V30 63 H 2.616663 1.653497 5.165482 0
M  V30 64 H 0.605671 2.532276 6.301567 0
M  V30 65 H -1.223541 0.920899 6.894764 0
M  V30 END ATOM
M  V30 BEGIN BOND
M  V30 1 2 1 2
M  V30 2 2 2 3
M  V30 3 1 2 4
M  V30 4 1 4 5
M  V30 5 1 5 6
M  V30 6 1 6 7
M  V30 7 1 7 8
M  V30 8 1 8 9
M  V30 9 2 9 10
M  V30 10 1 10 11
M  V30 11 1 11 12
M  V30 12 1 12 13
M  V30 13 1 13 14
M  V30 14 1 14 15
M  V30 15 2 15 16
M  V30 16 1 16 17
M  V30 17 2 17 18
M  V30 18 1 18 19
M  V30 19 2 19 20
M  V30 20 2 14 21
M  V30 21 1 21 22
M  V30 22 1 22 23
M  V30 23 2 23 24
M  V30 24 1 24 25
M  V30 25 2 25 26
M  V30 26 1 26 27
M  V30 27 1 27 28
M  V30 28 2 27 29
M  V30 29 2 11 30
M  V30 30 1 30 31
M  V30 31 2 31 32
M  V30 32 1 2 33
M  V30 33 2 33 34
M  V30 34 1 34 35
M  V30 35 1 34 36
M  V30 36 2 36 37
M  V30 37 1 37 38
M  V30 38 2 38 39
M  V30 39 1 39 40
M  V30 40 1 32 9
M  V30 41 1 39 33
M  V30 42 2 22 12
M  V30 43 1 29 23
M  V30 44 1 20 15
M  V30 45 1 4 41
M  V30 46 1 5 42
M  V30 47 1 5 43
M  V30 48 1 6 44
M  V30 49 1 6 45
M  V30 50 1 7 46
M  V30 51 1 7 47
M  V30 52 1 8 48
M  V30 53 1 10 49
M  V30 54 1 13 50
M  V30 55 1 16 51
M  V30 56 1 17 52
M  V30 57 1 18 53
M  V30 58 1 19 54
M  V30 59 1 20 55
M  V30 60 1 24 56
M  V30 61 1 25 57
M  V30 62 1 26 58
M  V30 63 1 28 59
M  V30 64 1 29 60
M  V30 65 1 30 61
M  V30 66 1 31 62
M  V30 67 1 36 63
M  V30 68 1 37 64
M  V30 69 1 38 65
M  V30 END BOND
M  V30 END CTAB
M  END
>  <Dataset>  (950) 
ChEMBL_Kinases

>  <Ligand_Instance>  (950) 
nan

>  <PDB_ID>  (950) 
nan

>  <Standardized_SMILES>  (950) 
O=S(=O)(NCCCNc1cc(-c2[nH]c(-c3ccccc3)nc2-c2cccc(O)c2)ccn1)c1c(Cl)cccc1Cl

>  <Name>  (950) 
nan

>  <Pocket>  (950) 
nan

>  <ATP_Site>  (950) 
nan

>  <Peripheral>  (950) 
nan

>  <Num_H_Atoms_ProtBoundConf>  (950) 
nan

>  <Num_Resolved_Atoms>  (950) 
nan

>  <Num_Not_Resolved_Atoms>  (950) 
nan

$$$$
CHEMBL4752410
     RDKit          3D

  0  0  0  0  0  0  0  0  0  0999 V3000
M  V30 BEGIN CTAB
M  V30 COUNTS 51 55 0 0 0
M  V30 BEGIN ATOM
M  V30 1 O 4.591193 0.727273 2.635609 0
M  V30 2 C 3.351804 0.905365 2.628528 0
M  V30 3 N 2.852965 1.659883 3.720859 0
M  V30 4 C 3.408139 2.278259 4.844349 0
M  V30 5 C 3.605648 1.729514 6.093110 0
M  V30 6 C 4.161768 2.406282 7.157069 0
M  V30 7 C 4.533341 3.728754 6.908328 0
M  V30 8 C 4.354040 4.315418 5.677620 0
M  V30 9 C 3.792021 3.605640 4.629993 0
M  V30 10 C 2.489535 0.380362 1.582137 0
M  V30 11 C 3.164902 -0.319987 0.593625 0
M  V30 12 C 2.393554 -0.849028 -0.440086 0
M  V30 13 C 1.025168 -0.687701 -0.483897 0
M  V30 14 C 0.309795 -1.279604 -1.607076 0
M  V30 15 C -1.055315 -1.205567 -1.784765 0
M  V30 16 C -1.673410 -1.786610 -2.861716 0
M  V30 17 C -3.112885 -1.741556 -3.090492 0
M  V30 18 C -3.583454 -1.064320 -4.196827 0
M  V30 19 N -4.920509 -1.171713 -4.173232 0
M  V30 20 N -5.320188 -1.879280 -3.113392 0
M  V30 21 C -4.215815 -2.247146 -2.421124 0
M  V30 22 C -4.007624 -3.019986 -1.197405 0
M  V30 23 C -4.441993 -4.327632 -1.294452 0
M  V30 24 C -4.285128 -5.137545 -0.183838 0
M  V30 25 C -3.711468 -4.634284 0.971108 0
M  V30 26 C -3.285199 -3.315564 1.037066 0
M  V30 27 N -3.453777 -2.557843 -0.062121 0
M  V30 28 C -0.929251 -2.467277 -3.803541 0
M  V30 29 C 0.434079 -2.528868 -3.606498 0
M  V30 30 N 0.998090 -1.945318 -2.537054 0
M  V30 31 C 0.424918 0.021895 0.536659 0
M  V30 32 C 1.126530 0.574740 1.593502 0
M  V30 33 H 1.837447 1.873441 3.822059 0
M  V30 34 H 3.278721 0.699779 6.164072 0
M  V30 35 H 4.292580 1.922704 8.116724 0
M  V30 36 H 4.977356 4.285741 7.741640 0
M  V30 37 H 4.676139 5.340264 5.595553 0
M  V30 38 H 3.702063 4.172852 3.711603 0
M  V30 39 H 4.235573 -0.471236 0.587507 0
M  V30 40 H 2.914053 -1.396602 -1.214275 0
M  V30 41 H -1.646323 -0.672987 -1.052570 0
M  V30 42 H -3.158484 -0.506091 -5.020858 0
M  V30 43 H -5.667695 -0.810605 -4.816140 0
M  V30 44 H -4.897383 -4.776044 -2.170424 0
M  V30 45 H -4.579621 -6.178489 -0.122437 0
M  V30 46 H -3.559416 -5.214564 1.874603 0
M  V30 47 H -2.826421 -2.828657 1.889142 0
M  V30 48 H -1.371859 -2.944559 -4.673895 0
M  V30 49 H 1.034398 -3.066472 -4.348507 0
M  V30 50 H -0.646180 0.155550 0.513948 0
M  V30 51 H 0.631283 1.122713 2.374869 0
M  V30 END ATOM
M  V30 BEGIN BOND
M  V30 1 2 1 2
M  V30 2 1 2 3
M  V30 3 1 3 4
M  V30 4 2 4 5
M  V30 5 1 5 6
M  V30 6 2 6 7
M  V30 7 1 7 8
M  V30 8 2 8 9
M  V30 9 1 2 10
M  V30 10 2 10 11
M  V30 11 1 11 12
M  V30 12 2 12 13
M  V30 13 1 13 14
M  V30 14 2 14 15
M  V30 15 1 15 16
M  V30 16 1 16 17
M  V30 17 2 17 18
M  V30 18 1 18 19
M  V30 19 1 19 20
M  V30 20 2 20 21
M  V30 21 1 21 22
M  V30 22 2 22 23
M  V30 23 1 23 24
M  V30 24 2 24 25
M  V30 25 1 25 26
M  V30 26 2 26 27
M  V30 27 2 16 28
M  V30 28 1 28 29
M  V30 29 2 29 30
M  V30 30 1 13 31
M  V30 31 2 31 32
M  V30 32 1 9 4
M  V30 33 1 32 10
M  V30 34 1 30 14
M  V30 35 1 21 17
M  V30 36 1 27 22
M  V30 37 1 3 33
M  V30 38 1 5 34
M  V30 39 1 6 35
M  V30 40 1 7 36
M  V30 41 1 8 37
M  V30 42 1 9 38
M  V30 43 1 11 39
M  V30 44 1 12 40
M  V30 45 1 15 41
M  V30 46 1 18 42
M  V30 47 1 19 43
M  V30 48 1 23 44
M  V30 49 1 24 45
M  V30 50 1 25 46
M  V30 51 1 26 47
M  V30 52 1 28 48
M  V30 53 1 29 49
M  V30 54 1 31 50
M  V30 55 1 32 51
M  V30 END BOND
M  V30 END CTAB
M  END
>  <Dataset>  (951) 
ChEMBL_Kinases

>  <Ligand_Instance>  (951) 
nan

>  <PDB_ID>  (951) 
nan

>  <Standardized_SMILES>  (951) 
O=C(Nc1ccccc1)c1ccc(-c2cc(-c3c[nH]nc3-c3ccccn3)ccn2)cc1

>  <Name>  (951) 
nan

>  <Pocket>  (951) 
nan

>  <ATP_Site>  (951) 
nan

>  <Peripheral>  (951) 
nan

>  <Num_H_Atoms_ProtBoundConf>  (951) 
nan

>  <Num_Resolved_Atoms>  (951) 
nan

>  <Num_Not_Resolved_Atoms>  (951) 
nan

$$$$
CHEMBL4438785
     RDKit          3D

  0  0  0  0  0  0  0  0  0  0999 V3000
M  V30 BEGIN CTAB
M  V30 COUNTS 50 52 0 0 0
M  V30 BEGIN ATOM
M  V30 1 C 2.372497 -6.111226 2.203284 0
M  V30 2 O 2.154688 -4.749164 2.407544 0
M  V30 3 C 2.096869 -3.809253 1.386557 0
M  V30 4 C 2.253882 -4.168636 0.082575 0
M  V30 5 C 2.190074 -3.207383 -0.903024 0
M  V30 6 C 1.967613 -1.894925 -0.549008 0
M  V30 7 C 1.868823 -0.798769 -1.339624 0
M  V30 8 C 1.948202 -0.551810 -2.692290 0
M  V30 9 C 1.804847 0.734161 -3.164868 0
M  V30 10 N 1.593278 1.703557 -2.294456 0
M  V30 11 C 1.501849 1.542195 -0.940816 0
M  V30 12 C 1.286894 2.692890 -0.049553 0
M  V30 13 C 1.645959 0.245614 -0.472106 0
M  V30 14 N 1.593726 -0.118558 0.837783 0
M  V30 15 C 1.357902 0.488216 2.085682 0
M  V30 16 C 0.026962 0.420425 2.726071 0
M  V30 17 C -1.197029 0.949152 2.154816 0
M  V30 18 C -1.673297 0.377818 0.855279 0
M  V30 19 N -2.951186 1.032031 0.463133 0
M  V30 20 C -2.937457 2.239838 -0.355605 0
M  V30 21 C -4.276795 0.583738 0.819825 0
M  V30 22 C -4.535046 -0.622778 1.647539 0
M  V30 23 O -5.390295 1.110123 0.507717 0
M  V30 24 C 1.803788 -1.474171 0.726108 0
M  V30 25 C 1.876142 -2.484351 1.695591 0
M  V30 26 H 3.116100 -6.310677 1.390713 0
M  V30 27 H 1.413814 -6.633404 1.944348 0
M  V30 28 H 2.757816 -6.593481 3.124037 0
M  V30 29 H 2.428084 -5.204532 -0.179369 0
M  V30 30 H 2.312919 -3.482076 -1.935024 0
M  V30 31 H 2.124041 -1.386559 -3.362547 0
M  V30 32 H 1.872351 0.888049 -4.224900 0
M  V30 33 H 0.394217 2.686336 0.559922 0
M  V30 34 H 2.220151 3.036353 0.445300 0
M  V30 35 H 1.093576 3.584495 -0.727239 0
M  V30 36 H 1.849157 1.487349 2.212617 0
M  V30 37 H 2.019235 -0.076936 2.840677 0
M  V30 38 H 0.193726 0.847241 3.784764 0
M  V30 39 H -0.219579 -0.671942 3.022850 0
M  V30 40 H -1.278403 2.063597 2.124629 0
M  V30 41 H -2.033747 0.682733 2.891800 0
M  V30 42 H -1.885940 -0.707997 0.953605 0
M  V30 43 H -1.043779 0.530254 -0.011107 0
M  V30 44 H -3.750254 2.147267 -1.109938 0
M  V30 45 H -3.065188 3.155078 0.257169 0
M  V30 46 H -1.988291 2.264660 -0.958775 0
M  V30 47 H -4.920472 -1.443873 0.988417 0
M  V30 48 H -5.276087 -0.416270 2.466598 0
M  V30 49 H -3.570167 -0.975083 2.072709 0
M  V30 50 H 1.755351 -2.240757 2.759858 0
M  V30 END ATOM
M  V30 BEGIN BOND
M  V30 1 1 1 2
M  V30 2 1 2 3
M  V30 3 2 3 4
M  V30 4 1 4 5
M  V30 5 2 5 6
M  V30 6 1 6 7
M  V30 7 2 7 8
M  V30 8 1 8 9
M  V30 9 2 9 10
M  V30 10 1 10 11
M  V30 11 1 11 12
M  V30 12 2 11 13
M  V30 13 1 13 14
M  V30 14 1 14 15
M  V30 15 1 15 16
M  V30 16 1 16 17
M  V30 17 1 17 18
M  V30 18 1 18 19
M  V30 19 1 19 20
M  V30 20 1 19 21
M  V30 21 1 21 22
M  V30 22 2 21 23
M  V30 23 1 14 24
M  V30 24 2 24 25
M  V30 25 1 25 3
M  V30 26 1 24 6
M  V30 27 1 13 7
M  V30 28 1 1 26
M  V30 29 1 1 27
M  V30 30 1 1 28
M  V30 31 1 4 29
M  V30 32 1 5 30
M  V30 33 1 8 31
M  V30 34 1 9 32
M  V30 35 1 12 33
M  V30 36 1 12 34
M  V30 37 1 12 35
M  V30 38 1 15 36
M  V30 39 1 15 37
M  V30 40 1 16 38
M  V30 41 1 16 39
M  V30 42 1 17 40
M  V30 43 1 17 41
M  V30 44 1 18 42
M  V30 45 1 18 43
M  V30 46 1 20 44
M  V30 47 1 20 45
M  V30 48 1 20 46
M  V30 49 1 22 47
M  V30 50 1 22 48
M  V30 51 1 22 49
M  V30 52 1 25 50
M  V30 END BOND
M  V30 END CTAB
M  END
>  <Dataset>  (952) 
ChEMBL_Kinases

>  <Ligand_Instance>  (952) 
nan

>  <PDB_ID>  (952) 
nan

>  <Standardized_SMILES>  (952) 
COc1ccc2c3ccnc(C)c3n(CCCCN(C)C(C)=O)c2c1

>  <Name>  (952) 
nan

>  <Pocket>  (952) 
nan

>  <ATP_Site>  (952) 
nan

>  <Peripheral>  (952) 
nan

>  <Num_H_Atoms_ProtBoundConf>  (952) 
nan

>  <Num_Resolved_Atoms>  (952) 
nan

>  <Num_Not_Resolved_Atoms>  (952) 
nan

$$$$
CHEMBL4438062
     RDKit          3D

  0  0  0  0  0  0  0  0  0  0999 V3000
M  V30 BEGIN CTAB
M  V30 COUNTS 51 54 0 0 0
M  V30 BEGIN ATOM
M  V30 1 C 2.057844 0.619884 -1.117875 0
M  V30 2 C 0.758155 0.263676 -0.437199 0
M  V30 3 C -0.360087 1.014212 -1.172475 0
M  V30 4 C 0.748995 0.719396 0.955890 0
M  V30 5 C 1.730657 0.216621 1.925799 0
M  V30 6 C 3.160672 0.445087 1.658237 0
M  V30 7 C 3.630633 1.681671 2.109154 0
M  V30 8 C 4.938355 2.084676 1.982185 0
M  V30 9 C 5.857719 1.263552 1.390606 0
M  V30 10 C 5.425078 0.036109 0.934990 0
M  V30 11 C 4.112113 -0.358696 1.066930 0
M  V30 12 N 0.483862 -1.140833 -0.630453 0
M  V30 13 C -0.716270 -1.769775 -0.166872 0
M  V30 14 N -1.676292 -1.080234 0.471155 0
M  V30 15 C -2.826573 -1.601275 0.925009 0
M  V30 16 C -3.810836 -0.768196 1.607940 0
M  V30 17 C -4.983297 -1.336565 2.062557 0
M  V30 18 C -5.919855 -0.565407 2.707463 0
M  V30 19 N -5.669079 0.743699 2.883330 0
M  V30 20 C -4.522440 1.274398 2.432945 0
M  V30 21 C -3.533873 0.571094 1.777677 0
M  V30 22 N -3.067366 -2.926826 0.739567 0
M  V30 23 C -2.157364 -3.711741 0.104552 0
M  V30 24 C -2.391944 -5.056494 -0.087854 0
M  V30 25 N -1.470143 -5.823591 -0.724032 0
M  V30 26 C -0.309415 -5.267991 -1.175029 0
M  V30 27 C -0.110667 -3.919257 -0.963843 0
M  V30 28 C -0.997926 -3.109511 -0.335144 0
M  V30 29 H 2.613841 1.405744 -0.592271 0
M  V30 30 H 2.653069 -0.279490 -1.376660 0
M  V30 31 H 1.846391 1.081390 -2.139439 0
M  V30 32 H -0.498003 0.585155 -2.173022 0
M  V30 33 H -1.286837 1.039190 -0.590283 0
M  V30 34 H -0.019630 2.075422 -1.303282 0
M  V30 35 H -0.274786 0.539578 1.403156 0
M  V30 36 H 0.815355 1.842649 0.961360 0
M  V30 37 H 1.442232 0.677739 2.925116 0
M  V30 38 H 1.639083 -0.876979 2.144580 0
M  V30 39 H 2.999139 2.415040 2.592541 0
M  V30 40 H 5.300585 3.042170 2.331727 0
M  V30 41 H 6.905738 1.490179 1.245029 0
M  V30 42 H 6.043850 -0.728671 0.440364 0
M  V30 43 H 3.682892 -1.315462 0.733626 0
M  V30 44 H 1.215512 -1.683358 -1.132512 0
M  V30 45 H -5.198977 -2.401580 1.925279 0
M  V30 46 H -6.871361 -0.925708 3.099623 0
M  V30 47 H -4.378828 2.336552 2.605534 0
M  V30 48 H -2.622026 1.036852 1.429526 0
M  V30 49 H -3.322435 -5.447147 0.286275 0
M  V30 50 H 0.364810 -5.958532 -1.670097 0
M  V30 51 H 0.817432 -3.575123 -1.346721 0
M  V30 END ATOM
M  V30 BEGIN BOND
M  V30 1 1 1 2
M  V30 2 1 2 3
M  V30 3 1 2 4
M  V30 4 1 4 5
M  V30 5 1 5 6
M  V30 6 2 6 7
M  V30 7 1 7 8
M  V30 8 2 8 9
M  V30 9 1 9 10
M  V30 10 2 10 11
M  V30 11 1 2 12
M  V30 12 1 12 13
M  V30 13 2 13 14
M  V30 14 1 14 15
M  V30 15 1 15 16
M  V30 16 2 16 17
M  V30 17 1 17 18
M  V30 18 2 18 19
M  V30 19 1 19 20
M  V30 20 2 20 21
M  V30 21 2 15 22
M  V30 22 1 22 23
M  V30 23 2 23 24
M  V30 24 1 24 25
M  V30 25 2 25 26
M  V30 26 1 26 27
M  V30 27 2 27 28
M  V30 28 1 11 6
M  V30 29 1 28 13
M  V30 30 1 21 16
M  V30 31 1 28 23
M  V30 32 1 1 29
M  V30 33 1 1 30
M  V30 34 1 1 31
M  V30 35 1 3 32
M  V30 36 1 3 33
M  V30 37 1 3 34
M  V30 38 1 4 35
M  V30 39 1 4 36
M  V30 40 1 5 37
M  V30 41 1 5 38
M  V30 42 1 7 39
M  V30 43 1 8 40
M  V30 44 1 9 41
M  V30 45 1 10 42
M  V30 46 1 11 43
M  V30 47 1 12 44
M  V30 48 1 17 45
M  V30 49 1 18 46
M  V30 50 1 20 47
M  V30 51 1 21 48
M  V30 52 1 24 49
M  V30 53 1 26 50
M  V30 54 1 27 51
M  V30 END BOND
M  V30 END CTAB
M  END
>  <Dataset>  (953) 
ChEMBL_Kinases

>  <Ligand_Instance>  (953) 
nan

>  <PDB_ID>  (953) 
nan

>  <Standardized_SMILES>  (953) 
CC(C)(CCc1ccccc1)Nc1nc(-c2ccncc2)nc2cnccc12

>  <Name>  (953) 
nan

>  <Pocket>  (953) 
nan

>  <ATP_Site>  (953) 
nan

>  <Peripheral>  (953) 
nan

>  <Num_H_Atoms_ProtBoundConf>  (953) 
nan

>  <Num_Resolved_Atoms>  (953) 
nan

>  <Num_Not_Resolved_Atoms>  (953) 
nan

$$$$
CHEMBL4438584
     RDKit          3D

  0  0  0  0  0  0  0  0  0  0999 V3000
M  V30 BEGIN CTAB
M  V30 COUNTS 70 75 0 0 0
M  V30 BEGIN ATOM
M  V30 1 C 1.503812 -1.579564 5.340076 0
M  V30 2 N 1.281686 -3.010650 5.271218 0
M  V30 3 C 2.481359 -3.763595 5.118496 0
M  V30 4 C 2.390967 -4.794532 4.030498 0
M  V30 5 N 1.900538 -4.312044 2.788529 0
M  V30 6 C 2.852677 -4.193168 1.732446 0
M  V30 7 C 2.261538 -3.621730 0.486121 0
M  V30 8 O 1.741783 -2.320155 0.651272 0
M  V30 9 C 1.162437 -1.651780 -0.417945 0
M  V30 10 C 1.097794 -2.285145 -1.666529 0
M  V30 11 C 0.511508 -1.598671 -2.731553 0
M  V30 12 N 0.444234 -2.182423 -3.956359 0
M  V30 13 C -0.114771 -1.529959 -5.015555 0
M  V30 14 N -0.619944 -0.283785 -4.882477 0
M  V30 15 C -0.581717 0.355454 -3.675658 0
M  V30 16 N -1.051695 1.645823 -3.370541 0
M  V30 17 C -2.455985 1.558098 -3.538915 0
M  V30 18 C -3.023147 1.965704 -4.735367 0
M  V30 19 Cl -1.986355 2.592651 -6.018646 0
M  V30 20 C -4.373238 1.904863 -4.972579 0
M  V30 21 C -5.218089 1.422577 -3.997053 0
M  V30 22 C -4.715232 1.002974 -2.789578 0
M  V30 23 C -3.352261 1.086358 -2.605663 0
M  V30 24 O -3.129860 0.599404 -1.312714 0
M  V30 25 C -4.247576 -0.232910 -0.967361 0
M  V30 26 O -5.303169 0.476702 -1.630123 0
M  V30 27 C -0.009801 -0.319585 -2.608935 0
M  V30 28 C 0.087809 0.250079 -1.340419 0
M  V30 29 C 0.654625 -0.370917 -0.245408 0
M  V30 30 O 0.774556 0.137079 0.998905 0
M  V30 31 C 0.410247 1.342466 1.568102 0
M  V30 32 C -1.075945 1.536059 1.576929 0
M  V30 33 C -1.560211 2.898266 1.207582 0
M  V30 34 O -0.688965 3.657820 0.441614 0
M  V30 35 C 0.484581 3.820810 1.189778 0
M  V30 36 C 1.213662 2.517171 1.105454 0
M  V30 37 C 0.962061 -3.260907 2.939740 0
M  V30 38 C 0.264786 -3.297691 4.295521 0
M  V30 39 H 1.608100 -1.221247 6.382737 0
M  V30 40 H 0.613198 -1.080192 4.874748 0
M  V30 41 H 2.368668 -1.236180 4.771823 0
M  V30 42 H 3.379465 -3.127084 4.950415 0
M  V30 43 H 2.622243 -4.338031 6.082060 0
M  V30 44 H 1.683382 -5.608930 4.357088 0
M  V30 45 H 3.379394 -5.298772 3.926425 0
M  V30 46 H 3.783076 -3.664829 2.041295 0
M  V30 47 H 3.197459 -5.235588 1.475695 0
M  V30 48 H 2.983874 -3.587251 -0.364483 0
M  V30 49 H 1.443086 -4.292022 0.114929 0
M  V30 50 H 1.499332 -3.292738 -1.794567 0
M  V30 51 H -0.182467 -1.970540 -6.005945 0
M  V30 52 H -0.429907 2.434055 -3.089320 0
M  V30 53 H -4.804600 2.235613 -5.929562 0
M  V30 54 H -6.264511 1.390202 -4.213037 0
M  V30 55 H -4.455836 -0.225763 0.098129 0
M  V30 56 H -4.185554 -1.228927 -1.445245 0
M  V30 57 H -0.310823 1.267435 -1.188689 0
M  V30 58 H 0.673702 1.214641 2.667011 0
M  V30 59 H -1.554835 1.278587 2.558007 0
M  V30 60 H -1.523591 0.800844 0.874600 0
M  V30 61 H -1.758887 3.504945 2.136005 0
M  V30 62 H -2.527645 2.882678 0.662824 0
M  V30 63 H 1.112614 4.575928 0.649547 0
M  V30 64 H 0.316539 4.202738 2.206188 0
M  V30 65 H 2.176584 2.633398 1.660786 0
M  V30 66 H 1.489878 2.345505 0.047132 0
M  V30 67 H 1.518360 -2.293759 2.957691 0
M  V30 68 H 0.194261 -3.212894 2.116285 0
M  V30 69 H -0.289151 -4.214661 4.480648 0
M  V30 70 H -0.448338 -2.432635 4.294384 0
M  V30 END ATOM
M  V30 BEGIN BOND
M  V30 1 1 1 2
M  V30 2 1 2 3
M  V30 3 1 3 4
M  V30 4 1 4 5
M  V30 5 1 5 6
M  V30 6 1 6 7
M  V30 7 1 7 8
M  V30 8 1 8 9
M  V30 9 2 9 10
M  V30 10 1 10 11
M  V30 11 2 11 12
M  V30 12 1 12 13
M  V30 13 2 13 14
M  V30 14 1 14 15
M  V30 15 1 15 16
M  V30 16 1 16 17
M  V30 17 2 17 18
M  V30 18 1 18 19
M  V30 19 1 18 20
M  V30 20 2 20 21
M  V30 21 1 21 22
M  V30 22 2 22 23
M  V30 23 1 23 24
M  V30 24 1 24 25
M  V30 25 1 25 26
M  V30 26 2 15 27
M  V30 27 1 27 28
M  V30 28 2 28 29
M  V30 29 1 29 30
M  V30 30 1 30 31
M  V30 31 1 31 32
M  V30 32 1 32 33
M  V30 33 1 33 34
M  V30 34 1 34 35
M  V30 35 1 35 36
M  V30 36 1 5 37
M  V30 37 1 37 38
M  V30 38 1 38 2
M  V30 39 1 29 9
M  V30 40 1 36 31
M  V30 41 1 27 11
M  V30 42 1 23 17
M  V30 43 1 26 22
M  V30 44 1 1 39
M  V30 45 1 1 40
M  V30 46 1 1 41
M  V30 47 1 3 42
M  V30 48 1 3 43
M  V30 49 1 4 44
M  V30 50 1 4 45
M  V30 51 1 6 46
M  V30 52 1 6 47
M  V30 53 1 7 48
M  V30 54 1 7 49
M  V30 55 1 10 50
M  V30 56 1 13 51
M  V30 57 1 16 52
M  V30 58 1 20 53
M  V30 59 1 21 54
M  V30 60 1 25 55
M  V30 61 1 25 56
M  V30 62 1 28 57
M  V30 63 1 31 58
M  V30 64 1 32 59
M  V30 65 1 32 60
M  V30 66 1 33 61
M  V30 67 1 33 62
M  V30 68 1 35 63
M  V30 69 1 35 64
M  V30 70 1 36 65
M  V30 71 1 36 66
M  V30 72 1 37 67
M  V30 73 1 37 68
M  V30 74 1 38 69
M  V30 75 1 38 70
M  V30 END BOND
M  V30 END CTAB
M  END
>  <Dataset>  (954) 
ChEMBL_Kinases

>  <Ligand_Instance>  (954) 
nan

>  <PDB_ID>  (954) 
nan

>  <Standardized_SMILES>  (954) 
CN1CCN(CCOc2cc3ncnc(Nc4c(Cl)ccc5c4OCO5)c3cc2OC2CCOCC2)CC1

>  <Name>  (954) 
nan

>  <Pocket>  (954) 
nan

>  <ATP_Site>  (954) 
nan

>  <Peripheral>  (954) 
nan

>  <Num_H_Atoms_ProtBoundConf>  (954) 
nan

>  <Num_Resolved_Atoms>  (954) 
nan

>  <Num_Not_Resolved_Atoms>  (954) 
nan

$$$$
CHEMBL4438486
     RDKit          3D

  0  0  0  0  0  0  0  0  0  0999 V3000
M  V30 BEGIN CTAB
M  V30 COUNTS 49 52 0 0 0
M  V30 BEGIN ATOM
M  V30 1 C -2.900340 -3.856751 1.515140 0
M  V30 2 C -1.744849 -4.084439 0.550451 0 CFG=2
M  V30 3 C -0.989799 -2.824387 0.438488 0
M  V30 4 C -1.274740 -1.746572 -0.340992 0
M  V30 5 C -0.548145 -0.583119 -0.425077 0
M  V30 6 C 0.611404 -0.517631 0.389657 0
M  V30 7 C 1.512802 0.593878 0.348101 0
M  V30 8 C 2.421443 0.219157 -0.655244 0
M  V30 9 O 2.528811 -0.912893 -1.470282 0
M  V30 10 C 3.470890 1.095070 -0.976142 0
M  V30 11 C 3.633038 2.305630 -0.337283 0
M  V30 12 Cl 4.915176 3.443191 -0.686372 0
M  V30 13 C 2.721935 2.638618 0.641606 0
M  V30 14 N 2.846384 3.810302 1.287247 0
M  V30 15 C 1.987585 4.184322 2.248735 0
M  V30 16 O 2.104396 5.279322 2.851508 0
M  V30 17 C 0.957687 3.313125 2.556927 0
M  V30 18 C 0.096596 3.710999 3.538645 0
M  V30 19 C -0.928051 2.839862 3.845644 0
M  V30 20 C -1.145505 1.596675 3.233042 0
M  V30 21 C -0.207378 1.324386 2.266628 0
M  V30 22 C 0.819681 2.119584 1.908652 0
M  V30 23 C 1.701963 1.785142 0.952284 0
M  V30 24 C 0.990462 -1.590106 1.235198 0
M  V30 25 C 0.166303 -2.695580 1.217026 0
M  V30 26 N -2.149379 -4.696147 -0.661859 0
M  V30 27 C -3.182261 -4.076941 -1.416520 0
M  V30 28 C -1.072446 -5.218455 -1.439831 0
M  V30 29 H -3.716927 -4.579320 1.363534 0
M  V30 30 H -2.540011 -3.958776 2.560993 0
M  V30 31 H -3.282837 -2.800930 1.439113 0
M  V30 32 H -1.096149 -4.849580 1.075889 0
M  V30 33 H -2.134594 -1.759920 -0.959319 0
M  V30 34 H -0.806914 0.246208 -1.054014 0
M  V30 35 H 3.254872 -1.578162 -1.209517 0
M  V30 36 H 4.240506 0.940456 -1.721709 0
M  V30 37 H 3.626627 4.466474 1.051464 0
M  V30 38 H 0.219417 4.641034 4.030625 0
M  V30 39 H -1.596225 3.202299 4.641672 0
M  V30 40 H -2.000995 1.087424 3.629147 0
M  V30 41 H -0.518198 0.390366 1.934703 0
M  V30 42 H 1.876156 -1.515079 1.844113 0
M  V30 43 H 0.467287 -3.522003 1.875156 0
M  V30 44 H -2.741300 -3.594022 -2.321302 0
M  V30 45 H -3.869740 -4.870074 -1.856191 0
M  V30 46 H -3.825005 -3.401151 -0.830096 0
M  V30 47 H -0.103406 -4.936987 -0.969133 0
M  V30 48 H -1.117968 -6.331849 -1.402716 0
M  V30 49 H -1.085359 -4.840104 -2.492193 0
M  V30 END ATOM
M  V30 BEGIN BOND
M  V30 1 1 1 2
M  V30 2 1 2 3
M  V30 3 2 3 4
M  V30 4 1 4 5
M  V30 5 2 5 6
M  V30 6 1 6 7
M  V30 7 2 7 8
M  V30 8 1 8 9
M  V30 9 1 8 10
M  V30 10 2 10 11
M  V30 11 1 11 12
M  V30 12 1 11 13
M  V30 13 1 13 14
M  V30 14 1 14 15
M  V30 15 2 15 16
M  V30 16 1 15 17
M  V30 17 2 17 18
M  V30 18 1 18 19
M  V30 19 2 19 20
M  V30 20 1 20 21
M  V30 21 2 21 22
M  V30 22 1 22 23
M  V30 23 1 6 24
M  V30 24 2 24 25
M  V30 25 1 2 26
M  V30 26 1 26 27
M  V30 27 1 26 28
M  V30 28 1 25 3
M  V30 29 1 23 7
M  V30 30 2 23 13
M  V30 31 1 22 17
M  V30 32 1 1 29
M  V30 33 1 1 30
M  V30 34 1 1 31
M  V30 35 1 2 32 CFG=1
M  V30 36 1 4 33
M  V30 37 1 5 34
M  V30 38 1 9 35
M  V30 39 1 10 36
M  V30 40 1 14 37
M  V30 41 1 18 38
M  V30 42 1 19 39
M  V30 43 1 20 40
M  V30 44 1 21 41
M  V30 45 1 24 42
M  V30 46 1 25 43
M  V30 47 1 27 44
M  V30 48 1 27 45
M  V30 49 1 27 46
M  V30 50 1 28 47
M  V30 51 1 28 48
M  V30 52 1 28 49
M  V30 END BOND
M  V30 END CTAB
M  END
>  <Dataset>  (955) 
ChEMBL_Kinases

>  <Ligand_Instance>  (955) 
nan

>  <PDB_ID>  (955) 
nan

>  <Standardized_SMILES>  (955) 
C[C@H](c1ccc(-c2c(O)cc(Cl)c3[nH]c(=O)c4ccccc4c23)cc1)N(C)C

>  <Name>  (955) 
nan

>  <Pocket>  (955) 
nan

>  <ATP_Site>  (955) 
nan

>  <Peripheral>  (955) 
nan

>  <Num_H_Atoms_ProtBoundConf>  (955) 
nan

>  <Num_Resolved_Atoms>  (955) 
nan

>  <Num_Not_Resolved_Atoms>  (955) 
nan

$$$$
CHEMBL4438469
     RDKit          3D

  0  0  0  0  0  0  0  0  0  0999 V3000
M  V30 BEGIN CTAB
M  V30 COUNTS 50 54 0 0 0
M  V30 BEGIN ATOM
M  V30 1 N 4.435854 -3.748453 1.412794 0
M  V30 2 C 4.342194 -2.405910 0.955930 0
M  V30 3 O 5.511091 -1.987684 0.784105 0
M  V30 4 C 3.196186 -1.568764 0.697870 0
M  V30 5 C 3.503433 -0.298224 0.256711 0
M  V30 6 C 2.433072 0.563844 -0.011575 0
M  V30 7 C 2.741094 1.928572 -0.485047 0
M  V30 8 C 1.919168 2.993350 -0.185615 0
M  V30 9 C 2.214148 4.276907 -0.634162 0
M  V30 10 C 3.368900 4.368614 -1.379982 0
M  V30 11 C 4.242748 3.358234 -1.723261 0
M  V30 12 C 3.886598 2.094077 -1.240150 0
M  V30 13 C 1.118737 0.173711 0.153508 0
M  V30 14 C 0.929677 -1.119830 0.599658 0
M  V30 15 C -0.271980 -1.758928 0.847018 0
M  V30 16 C -1.708666 -1.300873 0.725626 0 CFG=2
M  V30 17 C -2.148748 -0.704887 1.990423 0
M  V30 18 C -3.532431 -0.952444 2.461695 0 CFG=1
M  V30 19 C -4.475019 -0.262803 1.505457 0
M  V30 20 C -4.671950 -1.107546 0.308745 0
M  V30 21 C -3.962520 -2.419807 0.443880 0 CFG=1
M  V30 22 C -2.553898 -2.231737 -0.026514 0
M  V30 23 S -4.057168 -2.639670 2.208048 0
M  V30 24 O -3.125497 -3.641196 2.733285 0
M  V30 25 O -5.466966 -2.811784 2.615745 0
M  V30 26 C 0.022979 -3.056687 1.282917 0
M  V30 27 N 1.382463 -3.193601 1.296632 0
M  V30 28 C 1.915103 -2.042532 0.890718 0
M  V30 29 H 4.235057 -4.358894 2.230700 0
M  V30 30 H 4.836773 -4.506390 0.798388 0
M  V30 31 H 4.497869 0.064346 0.108823 0
M  V30 32 H 1.024121 2.861584 0.404919 0
M  V30 33 H 1.626642 5.142253 -0.441460 0
M  V30 34 H 3.629869 5.365416 -1.748466 0
M  V30 35 H 5.117588 3.567053 -2.316839 0
M  V30 36 H 4.584585 1.294414 -1.515853 0
M  V30 37 H 0.294256 0.820563 -0.047373 0
M  V30 38 H -1.578875 -0.417045 0.023163 0
M  V30 39 H -1.999854 0.408763 2.076572 0
M  V30 40 H -1.482056 -1.094368 2.817635 0
M  V30 41 H -3.659507 -0.644459 3.495294 0
M  V30 42 H -5.413020 -0.051117 2.061095 0
M  V30 43 H -4.027647 0.714616 1.237570 0
M  V30 44 H -4.407992 -0.553461 -0.639140 0
M  V30 45 H -5.761489 -1.316657 0.201479 0
M  V30 46 H -4.454998 -3.219231 -0.106215 0
M  V30 47 H -2.081901 -3.259294 0.015821 0
M  V30 48 H -2.643766 -2.037312 -1.123721 0
M  V30 49 H -0.577243 -3.904747 1.587071 0
M  V30 50 H 1.954509 -4.021420 1.565344 0
M  V30 END ATOM
M  V30 BEGIN BOND
M  V30 1 1 1 2
M  V30 2 2 2 3
M  V30 3 1 2 4
M  V30 4 2 4 5
M  V30 5 1 5 6
M  V30 6 1 6 7
M  V30 7 2 7 8
M  V30 8 1 8 9
M  V30 9 2 9 10
M  V30 10 1 10 11
M  V30 11 2 11 12
M  V30 12 2 6 13
M  V30 13 1 13 14
M  V30 14 1 14 15
M  V30 15 1 15 16
M  V30 16 1 16 17
M  V30 17 1 17 18
M  V30 18 1 18 19
M  V30 19 1 19 20
M  V30 20 1 20 21
M  V30 21 1 21 22
M  V30 22 1 21 23
M  V30 23 2 23 24
M  V30 24 2 23 25
M  V30 25 2 15 26
M  V30 26 1 26 27
M  V30 27 1 27 28
M  V30 28 1 28 4
M  V30 29 1 12 7
M  V30 30 2 28 14
M  V30 31 1 22 16
M  V30 32 1 23 18
M  V30 33 1 1 29
M  V30 34 1 1 30
M  V30 35 1 5 31
M  V30 36 1 8 32
M  V30 37 1 9 33
M  V30 38 1 10 34
M  V30 39 1 11 35
M  V30 40 1 12 36
M  V30 41 1 13 37
M  V30 42 1 16 38 CFG=3
M  V30 43 1 17 39
M  V30 44 1 17 40
M  V30 45 1 18 41 CFG=1
M  V30 46 1 19 42
M  V30 47 1 19 43
M  V30 48 1 20 44
M  V30 49 1 20 45
M  V30 50 1 21 46 CFG=3
M  V30 51 1 22 47
M  V30 52 1 22 48
M  V30 53 1 26 49
M  V30 54 1 27 50
M  V30 END BOND
M  V30 END CTAB
M  END
>  <Dataset>  (956) 
ChEMBL_Kinases

>  <Ligand_Instance>  (956) 
nan

>  <PDB_ID>  (956) 
nan

>  <Standardized_SMILES>  (956) 
NC(=O)c1cc(-c2ccccc2)cc2c([C@@H]3C[C@H]4CC[C@@H](C3)S4(=O)=O)c[nH]c12

>  <Name>  (956) 
nan

>  <Pocket>  (956) 
nan

>  <ATP_Site>  (956) 
nan

>  <Peripheral>  (956) 
nan

>  <Num_H_Atoms_ProtBoundConf>  (956) 
nan

>  <Num_Resolved_Atoms>  (956) 
nan

>  <Num_Not_Resolved_Atoms>  (956) 
nan

$$$$
CHEMBL4752592
     RDKit          3D

  0  0  0  0  0  0  0  0  0  0999 V3000
M  V30 BEGIN CTAB
M  V30 COUNTS 65 69 0 0 0
M  V30 BEGIN ATOM
M  V30 1 O 2.086610 1.568196 7.344178 0
M  V30 2 S 1.632651 2.614863 6.367697 0
M  V30 3 O 0.715072 3.603572 7.025910 0
M  V30 4 N 0.773773 1.805117 5.081001 0
M  V30 5 C 1.678689 0.812313 4.542387 0
M  V30 6 C 1.089203 0.013454 3.409785 0
M  V30 7 C -0.143525 -0.747533 3.792404 0
M  V30 8 N -0.625867 -1.479417 2.628758 0
M  V30 9 C -1.045732 -0.833924 1.434696 0
M  V30 10 C -1.469490 -1.577269 0.360460 0
M  V30 11 C -1.886487 -0.979075 -0.810523 0
M  V30 12 C -2.342695 -1.726341 -1.980301 0
M  V30 13 N -3.528075 -1.774380 -2.612612 0
M  V30 14 C -3.396856 -2.631571 -3.643230 0
M  V30 15 C -4.447148 -2.987780 -4.600955 0
M  V30 16 C -4.170991 -3.888221 -5.622931 0
M  V30 17 C -5.153540 -4.236625 -6.537494 0
M  V30 18 C -6.411926 -3.682575 -6.427202 0
M  V30 19 C -6.670081 -2.781236 -5.395584 0
M  V30 20 C -5.701515 -2.425212 -4.478161 0
M  V30 21 N -2.138266 -3.108608 -3.646220 0
M  V30 22 C -1.423086 -2.570210 -2.614813 0
M  V30 23 C -0.030326 -2.876551 -2.331639 0
M  V30 24 C 0.159537 -4.238177 -2.075870 0
M  V30 25 C 1.429158 -4.711832 -1.783957 0
M  V30 26 C 2.500820 -3.847728 -1.745282 0
M  V30 27 C 2.313337 -2.484784 -2.000841 0
M  V30 28 O 3.356864 -1.570835 -1.975240 0
M  V30 29 C 1.051980 -2.023508 -2.289302 0
M  V30 30 C -1.891607 0.403223 -0.942181 0
M  V30 31 C -1.452298 1.087903 0.178873 0
M  V30 32 N -1.043344 0.493820 1.327530 0
M  V30 33 C 3.064128 3.412972 5.715919 0
M  V30 34 C 4.293305 2.755430 5.639788 0
M  V30 35 C 5.402170 3.429808 5.114604 0
M  V30 36 C 5.256378 4.748598 4.676600 0
M  V30 37 Br 6.750385 5.703233 3.951887 0
M  V30 38 C 4.008844 5.352193 4.776660 0
M  V30 39 C 2.894835 4.717207 5.289220 0
M  V30 40 H 0.501170 2.510449 4.360292 0
M  V30 41 H 2.611407 1.289815 4.126839 0
M  V30 42 H 2.000571 0.185015 5.404858 0
M  V30 43 H 1.871644 -0.754907 3.140107 0
M  V30 44 H 0.970985 0.670868 2.545810 0
M  V30 45 H -0.931561 0.004028 4.083081 0
M  V30 46 H 0.042709 -1.450270 4.628002 0
M  V30 47 H -0.662852 -2.532320 2.682677 0
M  V30 48 H -1.482615 -2.676221 0.420991 0
M  V30 49 H -4.351773 -1.224337 -2.307256 0
M  V30 50 H -3.180896 -4.301460 -5.681600 0
M  V30 51 H -4.886982 -4.950075 -7.324359 0
M  V30 52 H -7.162873 -3.976945 -7.161177 0
M  V30 53 H -7.679320 -2.353716 -5.329153 0
M  V30 54 H -5.922343 -1.712965 -3.672239 0
M  V30 55 H -0.615885 -5.000681 -2.081530 0
M  V30 56 H 1.685978 -5.746293 -1.570612 0
M  V30 57 H 3.521843 -4.179121 -1.518251 0
M  V30 58 H 3.627494 -1.217024 -1.051385 0
M  V30 59 H 0.786857 -0.996877 -2.502971 0
M  V30 60 H -2.189499 0.991490 -1.792416 0
M  V30 61 H -1.383861 2.182085 0.269071 0
M  V30 62 H 4.383219 1.728708 5.987388 0
M  V30 63 H 6.369901 2.951107 5.041423 0
M  V30 64 H 3.966823 6.378409 4.418197 0
M  V30 65 H 1.943909 5.234921 5.344986 0
M  V30 END ATOM
M  V30 BEGIN BOND
M  V30 1 2 1 2
M  V30 2 2 2 3
M  V30 3 1 2 4
M  V30 4 1 4 5
M  V30 5 1 5 6
M  V30 6 1 6 7
M  V30 7 1 7 8
M  V30 8 1 8 9
M  V30 9 2 9 10
M  V30 10 1 10 11
M  V30 11 1 11 12
M  V30 12 1 12 13
M  V30 13 1 13 14
M  V30 14 1 14 15
M  V30 15 2 15 16
M  V30 16 1 16 17
M  V30 17 2 17 18
M  V30 18 1 18 19
M  V30 19 2 19 20
M  V30 20 2 14 21
M  V30 21 1 21 22
M  V30 22 1 22 23
M  V30 23 2 23 24
M  V30 24 1 24 25
M  V30 25 2 25 26
M  V30 26 1 26 27
M  V30 27 1 27 28
M  V30 28 2 27 29
M  V30 29 2 11 30
M  V30 30 1 30 31
M  V30 31 2 31 32
M  V30 32 1 2 33
M  V30 33 2 33 34
M  V30 34 1 34 35
M  V30 35 2 35 36
M  V30 36 1 36 37
M  V30 37 1 36 38
M  V30 38 2 38 39
M  V30 39 1 32 9
M  V30 40 1 39 33
M  V30 41 2 22 12
M  V30 42 1 29 23
M  V30 43 1 20 15
M  V30 44 1 4 40
M  V30 45 1 5 41
M  V30 46 1 5 42
M  V30 47 1 6 43
M  V30 48 1 6 44
M  V30 49 1 7 45
M  V30 50 1 7 46
M  V30 51 1 8 47
M  V30 52 1 10 48
M  V30 53 1 13 49
M  V30 54 1 16 50
M  V30 55 1 17 51
M  V30 56 1 18 52
M  V30 57 1 19 53
M  V30 58 1 20 54
M  V30 59 1 24 55
M  V30 60 1 25 56
M  V30 61 1 26 57
M  V30 62 1 28 58
M  V30 63 1 29 59
M  V30 64 1 30 60
M  V30 65 1 31 61
M  V30 66 1 34 62
M  V30 67 1 35 63
M  V30 68 1 38 64
M  V30 69 1 39 65
M  V30 END BOND
M  V30 END CTAB
M  END
>  <Dataset>  (957) 
ChEMBL_Kinases

>  <Ligand_Instance>  (957) 
nan

>  <PDB_ID>  (957) 
nan

>  <Standardized_SMILES>  (957) 
O=S(=O)(NCCCNc1cc(-c2[nH]c(-c3ccccc3)nc2-c2cccc(O)c2)ccn1)c1ccc(Br)cc1

>  <Name>  (957) 
nan

>  <Pocket>  (957) 
nan

>  <ATP_Site>  (957) 
nan

>  <Peripheral>  (957) 
nan

>  <Num_H_Atoms_ProtBoundConf>  (957) 
nan

>  <Num_Resolved_Atoms>  (957) 
nan

>  <Num_Not_Resolved_Atoms>  (957) 
nan

$$$$
CHEMBL4438392
     RDKit          3D

  0  0  0  0  0  0  0  0  0  0999 V3000
M  V30 BEGIN CTAB
M  V30 COUNTS 59 64 0 0 0
M  V30 BEGIN ATOM
M  V30 1 C 4.166272 -1.208592 -0.279326 0
M  V30 2 N 3.825455 0.018123 -0.927608 0
M  V30 3 C 4.741994 0.553459 -1.926837 0
M  V30 4 C 4.735131 2.051513 -1.960970 0
M  V30 5 O 3.414307 2.586883 -1.954570 0
M  V30 6 C 2.437899 2.019407 -1.151381 0
M  V30 7 C 2.687433 0.774413 -0.681831 0
M  V30 8 C 1.694680 0.266576 0.099321 0
M  V30 9 N 0.626535 0.967754 0.334867 0
M  V30 10 N 0.212156 2.175164 -0.026658 0
M  V30 11 C -0.869446 3.159676 0.106597 0
M  V30 12 C -1.642662 2.304337 0.941717 0
M  V30 13 C -2.588249 3.298773 1.336733 0
M  V30 14 C -3.639477 2.983623 2.238659 0
M  V30 15 C -3.789284 1.723883 2.757744 0
M  V30 16 C -2.847069 0.840158 2.327482 0
M  V30 17 C -2.847260 -0.561506 2.689659 0
M  V30 18 C -3.764618 -1.063260 3.580673 0
M  V30 19 C -3.843405 -2.388360 3.912299 0
M  V30 20 C -2.981313 -3.362071 3.363599 0
M  V30 21 C -2.048867 -2.830903 2.449715 0
M  V30 22 N -1.288758 -3.954582 2.013470 0
M  V30 23 C -0.417634 -3.375381 0.969293 0
M  V30 24 C -1.282911 -2.954170 -0.214386 0
M  V30 25 C -1.308221 -4.007135 -1.307694 0
M  V30 26 N -0.005286 -4.188251 -1.915577 0
M  V30 27 C 1.053504 -3.928709 -0.955750 0
M  V30 28 C 0.604180 -4.316794 0.421360 0
M  V30 29 C -2.035323 -1.523852 2.180843 0
M  V30 30 N -1.841693 1.068223 1.492286 0
M  V30 31 N -0.221966 4.000464 -0.638657 0
M  V30 32 N 0.913860 3.802202 -1.166604 0
M  V30 33 C 1.277758 2.549467 -0.781778 0
M  V30 34 H 3.454132 -1.606240 0.443732 0
M  V30 35 H 5.106804 -1.003244 0.318508 0
M  V30 36 H 4.511302 -1.991002 -1.014563 0
M  V30 37 H 5.749692 0.178455 -1.708989 0
M  V30 38 H 4.424763 0.107952 -2.903579 0
M  V30 39 H 5.219684 2.444808 -2.865773 0
M  V30 40 H 5.301190 2.458526 -1.085438 0
M  V30 41 H 1.701930 -0.722108 0.577963 0
M  V30 42 H -2.779572 4.361163 1.139193 0
M  V30 43 H -4.438242 3.649624 2.629560 0
M  V30 44 H -4.567290 1.423824 3.433580 0
M  V30 45 H -4.460882 -0.392604 4.044028 0
M  V30 46 H -4.618013 -2.665914 4.641727 0
M  V30 47 H -3.177029 -4.348393 3.732617 0
M  V30 48 H -0.730359 -4.620822 1.640738 0
M  V30 49 H 0.178863 -2.510019 1.389884 0
M  V30 50 H -0.963294 -2.022319 -0.691503 0
M  V30 51 H -2.341483 -2.835505 0.105704 0
M  V30 52 H -1.738748 -4.934220 -0.933191 0
M  V30 53 H -1.966619 -3.590165 -2.109857 0
M  V30 54 H 0.125020 -3.643008 -2.781783 0
M  V30 55 H 1.288632 -2.855187 -1.015918 0
M  V30 56 H 1.940337 -4.501426 -1.255854 0
M  V30 57 H 0.113433 -5.320328 0.379194 0
M  V30 58 H 1.476316 -4.341584 1.087784 0
M  V30 59 H -1.269422 -1.215732 1.485096 0
M  V30 END ATOM
M  V30 BEGIN BOND
M  V30 1 1 1 2
M  V30 2 1 2 3
M  V30 3 1 3 4
M  V30 4 1 4 5
M  V30 5 1 5 6
M  V30 6 2 6 7
M  V30 7 1 7 8
M  V30 8 2 8 9
M  V30 9 1 9 10
M  V30 10 1 10 11
M  V30 11 1 11 12
M  V30 12 2 12 13
M  V30 13 1 13 14
M  V30 14 2 14 15
M  V30 15 1 15 16
M  V30 16 1 16 17
M  V30 17 2 17 18
M  V30 18 1 18 19
M  V30 19 2 19 20
M  V30 20 1 20 21
M  V30 21 1 21 22
M  V30 22 1 22 23
M  V30 23 1 23 24
M  V30 24 1 24 25
M  V30 25 1 25 26
M  V30 26 1 26 27
M  V30 27 1 27 28
M  V30 28 2 21 29
M  V30 29 2 16 30
M  V30 30 2 11 31
M  V30 31 1 31 32
M  V30 32 2 32 33
M  V30 33 1 7 2
M  V30 34 1 33 10
M  V30 35 1 33 6
M  V30 36 1 30 12
M  V30 37 1 29 17
M  V30 38 1 28 23
M  V30 39 1 1 34
M  V30 40 1 1 35
M  V30 41 1 1 36
M  V30 42 1 3 37
M  V30 43 1 3 38
M  V30 44 1 4 39
M  V30 45 1 4 40
M  V30 46 1 8 41
M  V30 47 1 13 42
M  V30 48 1 14 43
M  V30 49 1 15 44
M  V30 50 1 18 45
M  V30 51 1 19 46
M  V30 52 1 20 47
M  V30 53 1 22 48
M  V30 54 1 23 49
M  V30 55 1 24 50
M  V30 56 1 24 51
M  V30 57 1 25 52
M  V30 58 1 25 53
M  V30 59 1 26 54
M  V30 60 1 27 55
M  V30 61 1 27 56
M  V30 62 1 28 57
M  V30 63 1 28 58
M  V30 64 1 29 59
M  V30 END BOND
M  V30 END CTAB
M  END
>  <Dataset>  (958) 
ChEMBL_Kinases

>  <Ligand_Instance>  (958) 
nan

>  <PDB_ID>  (958) 
nan

>  <Standardized_SMILES>  (958) 
CN1CCOc2c1cnn1c(-c3cccc(-c4cccc(NC5CCNCC5)c4)n3)nnc21

>  <Name>  (958) 
nan

>  <Pocket>  (958) 
nan

>  <ATP_Site>  (958) 
nan

>  <Peripheral>  (958) 
nan

>  <Num_H_Atoms_ProtBoundConf>  (958) 
nan

>  <Num_Resolved_Atoms>  (958) 
nan

>  <Num_Not_Resolved_Atoms>  (958) 
nan

$$$$
CHEMBL4438389
     RDKit          3D

  0  0  0  0  0  0  0  0  0  0999 V3000
M  V30 BEGIN CTAB
M  V30 COUNTS 57 61 0 0 0
M  V30 BEGIN ATOM
M  V30 1 C 6.202426 -6.003793 0.762713 0
M  V30 2 C 5.382503 -4.896994 0.155317 0
M  V30 3 N 4.718448 -4.931437 -1.024261 0
M  V30 4 O 4.124986 -3.783824 -1.203021 0
M  V30 5 C 4.361461 -2.982123 -0.197594 0
M  V30 6 C 3.873147 -1.599383 -0.016136 0
M  V30 7 C 4.241575 -0.885580 1.101350 0
M  V30 8 C 3.780184 0.423868 1.291158 0
M  V30 9 C 2.959454 0.868367 0.269701 0
M  V30 10 N 2.363835 2.097425 0.196366 0
M  V30 11 C 1.637972 2.154499 -0.939840 0
M  V30 12 N 0.902646 3.339865 -1.244710 0
M  V30 13 C -0.336701 3.342114 -0.526169 0
M  V30 14 C -0.730603 2.345917 0.351674 0
M  V30 15 C -1.916711 2.249281 1.093917 0
M  V30 16 C -2.082692 1.069268 1.957323 0
M  V30 17 N -2.711371 -0.058787 1.316835 0
M  V30 18 C -4.084088 0.169956 0.918681 0
M  V30 19 C -4.704466 -1.238392 0.918024 0
M  V30 20 N -3.924183 -2.082333 0.127254 0
M  V30 21 C -4.083883 -3.489066 0.224867 0
M  V30 22 C -3.643971 -4.143720 1.482623 0
M  V30 23 F -3.905861 -5.516410 1.318447 0
M  V30 24 F -2.282404 -4.070538 1.693729 0
M  V30 25 F -4.366381 -3.769914 2.599824 0
M  V30 26 C -2.756797 -1.620929 -0.498767 0
M  V30 27 C -1.958284 -0.560014 0.194525 0
M  V30 28 C -2.771669 3.322791 0.880904 0
M  V30 29 C -2.410437 4.314550 0.024850 0
M  V30 30 N -1.246044 4.332629 -0.654055 0
M  V30 31 N 1.760658 1.000032 -1.580645 0
M  V30 32 C 2.562034 0.194464 -0.866477 0
M  V30 33 C 3.047780 -1.091107 -0.999481 0
M  V30 34 N 5.158601 -3.672137 0.674502 0
M  V30 35 H 6.442191 -5.730463 1.808224 0
M  V30 36 H 7.172195 -6.104014 0.225300 0
M  V30 37 H 5.684239 -6.980902 0.703988 0
M  V30 38 H 4.892693 -1.295789 1.869287 0
M  V30 39 H 4.019962 1.049983 2.131237 0
M  V30 40 H 1.082816 4.149708 -1.852000 0
M  V30 41 H -0.021089 1.516079 0.504381 0
M  V30 42 H -2.621609 1.315898 2.909714 0
M  V30 43 H -1.072064 0.743621 2.285103 0
M  V30 44 H -4.642367 0.724469 1.670145 0
M  V30 45 H -4.113889 0.581816 -0.103439 0
M  V30 46 H -4.799655 -1.510906 1.986506 0
M  V30 47 H -5.741810 -1.116939 0.507644 0
M  V30 48 H -3.570473 -3.963143 -0.631212 0
M  V30 49 H -5.176450 -3.752202 0.100790 0
M  V30 50 H -2.095392 -2.503844 -0.686146 0
M  V30 51 H -3.019227 -1.278526 -1.547549 0
M  V30 52 H -1.019080 -1.010093 0.564733 0
M  V30 53 H -1.728389 0.270013 -0.541400 0
M  V30 54 H -3.695283 3.256102 1.453250 0
M  V30 55 H -3.122913 5.143764 -0.111350 0
M  V30 56 H 1.313513 0.769822 -2.469479 0
M  V30 57 H 2.732928 -1.616752 -1.890062 0
M  V30 END ATOM
M  V30 BEGIN BOND
M  V30 1 1 1 2
M  V30 2 2 2 3
M  V30 3 1 3 4
M  V30 4 1 4 5
M  V30 5 1 5 6
M  V30 6 2 6 7
M  V30 7 1 7 8
M  V30 8 2 8 9
M  V30 9 1 9 10
M  V30 10 2 10 11
M  V30 11 1 11 12
M  V30 12 1 12 13
M  V30 13 2 13 14
M  V30 14 1 14 15
M  V30 15 1 15 16
M  V30 16 1 16 17
M  V30 17 1 17 18
M  V30 18 1 18 19
M  V30 19 1 19 20
M  V30 20 1 20 21
M  V30 21 1 21 22
M  V30 22 1 22 23
M  V30 23 1 22 24
M  V30 24 1 22 25
M  V30 25 1 20 26
M  V30 26 1 26 27
M  V30 27 2 15 28
M  V30 28 1 28 29
M  V30 29 2 29 30
M  V30 30 1 11 31
M  V30 31 1 31 32
M  V30 32 2 32 33
M  V30 33 2 5 34
M  V30 34 1 34 2
M  V30 35 1 33 6
M  V30 36 1 32 9
M  V30 37 1 30 13
M  V30 38 1 27 17
M  V30 39 1 1 35
M  V30 40 1 1 36
M  V30 41 1 1 37
M  V30 42 1 7 38
M  V30 43 1 8 39
M  V30 44 1 12 40
M  V30 45 1 14 41
M  V30 46 1 16 42
M  V30 47 1 16 43
M  V30 48 1 18 44
M  V30 49 1 18 45
M  V30 50 1 19 46
M  V30 51 1 19 47
M  V30 52 1 21 48
M  V30 53 1 21 49
M  V30 54 1 26 50
M  V30 55 1 26 51
M  V30 56 1 27 52
M  V30 57 1 27 53
M  V30 58 1 28 54
M  V30 59 1 29 55
M  V30 60 1 31 56
M  V30 61 1 33 57
M  V30 END BOND
M  V30 END CTAB
M  END
>  <Dataset>  (959) 
ChEMBL_Kinases

>  <Ligand_Instance>  (959) 
nan

>  <PDB_ID>  (959) 
nan

>  <Standardized_SMILES>  (959) 
Cc1noc(-c2ccc3nc(Nc4cc(CN5CCN(CC(F)(F)F)CC5)ccn4)[nH]c3c2)n1

>  <Name>  (959) 
nan

>  <Pocket>  (959) 
nan

>  <ATP_Site>  (959) 
nan

>  <Peripheral>  (959) 
nan

>  <Num_H_Atoms_ProtBoundConf>  (959) 
nan

>  <Num_Resolved_Atoms>  (959) 
nan

>  <Num_Not_Resolved_Atoms>  (959) 
nan

$$$$
CHEMBL4438379
     RDKit          3D

  0  0  0  0  0  0  0  0  0  0999 V3000
M  V30 BEGIN CTAB
M  V30 COUNTS 59 63 0 0 0
M  V30 BEGIN ATOM
M  V30 1 O 0.819726 -0.067394 3.326791 0
M  V30 2 C 1.456426 0.153597 2.262346 0
M  V30 3 C 2.347691 -0.776270 1.583455 0
M  V30 4 C 3.647197 -0.320765 1.677828 0
M  V30 5 C 4.713029 -1.012339 1.117367 0
M  V30 6 C 4.437942 -2.201934 0.443095 0
M  V30 7 O 5.339631 -3.051239 -0.188274 0
M  V30 8 C 5.639330 -2.831132 -1.568626 0
M  V30 9 F 4.515332 -2.923531 -2.365447 0
M  V30 10 F 6.549945 -3.792046 -1.959613 0
M  V30 11 F 6.228360 -1.571961 -1.693083 0
M  V30 12 C 3.134792 -2.643804 0.357275 0
M  V30 13 C 2.079825 -1.955750 0.913852 0
M  V30 14 N 1.034471 1.484234 1.998823 0
M  V30 15 C 0.118810 1.913203 3.061558 0
M  V30 16 C -0.409424 3.271755 2.639250 0
M  V30 17 C -0.990241 3.192487 1.227799 0
M  V30 18 C -2.080830 2.209583 1.160759 0
M  V30 19 N -3.194973 2.709955 1.774082 0
M  V30 20 C -4.318666 2.006452 1.883357 0
M  V30 21 N -4.425430 0.752581 1.393234 0
M  V30 22 C -3.362481 0.166506 0.762165 0
M  V30 23 C -3.342123 -1.094916 0.217110 0
M  V30 24 C -2.207274 -1.566873 -0.399548 0
M  V30 25 N -2.291688 -2.877718 -0.931331 0
M  V30 26 C -1.367141 -3.512358 -1.840253 0
M  V30 27 C -0.802739 -4.798533 -1.325719 0
M  V30 28 O -1.609936 -5.476944 -0.457222 0
M  V30 29 C -2.961056 -5.230348 -0.593474 0
M  V30 30 C -3.365520 -3.800369 -0.620021 0
M  V30 31 C -1.087242 -0.772276 -0.469782 0
M  V30 32 N -1.166742 0.442385 0.077963 0
M  V30 33 C -2.238849 0.941746 0.682793 0
M  V30 34 C 0.143038 2.965816 0.283277 0
M  V30 35 C 1.367513 2.361548 0.908565 0
M  V30 36 H 4.020488 0.578581 2.166429 0
M  V30 37 H 5.756685 -0.781782 1.112049 0
M  V30 38 H 2.829906 -3.555161 -0.147759 0
M  V30 39 H 1.021709 -2.176463 0.925802 0
M  V30 40 H 0.727899 2.061908 3.965453 0
M  V30 41 H -0.688479 1.196823 3.232445 0
M  V30 42 H 0.414011 3.988417 2.646971 0
M  V30 43 H -1.172330 3.579223 3.377680 0
M  V30 44 H -1.392276 4.236471 1.025265 0
M  V30 45 H -5.247554 2.308305 2.346629 0
M  V30 46 H -4.314408 -1.576480 0.364141 0
M  V30 47 H -0.532976 -2.835160 -2.101573 0
M  V30 48 H -1.942477 -3.746853 -2.781844 0
M  V30 49 H -0.622477 -5.466153 -2.194365 0
M  V30 50 H 0.192409 -4.610053 -0.868019 0
M  V30 51 H -3.463494 -5.709543 0.296212 0
M  V30 52 H -3.427940 -5.783620 -1.459673 0
M  V30 53 H -4.162593 -3.664578 -1.380681 0
M  V30 54 H -3.753299 -3.510516 0.366093 0
M  V30 55 H -0.198858 -1.152590 -0.958114 0
M  V30 56 H 0.489255 3.971267 -0.139214 0
M  V30 57 H -0.176256 2.358272 -0.558582 0
M  V30 58 H 2.027869 3.167463 1.317388 0
M  V30 59 H 1.933350 1.813936 0.116461 0
M  V30 END ATOM
M  V30 BEGIN BOND
M  V30 1 2 1 2
M  V30 2 1 2 3
M  V30 3 2 3 4
M  V30 4 1 4 5
M  V30 5 2 5 6
M  V30 6 1 6 7
M  V30 7 1 7 8
M  V30 8 1 8 9
M  V30 9 1 8 10
M  V30 10 1 8 11
M  V30 11 1 6 12
M  V30 12 2 12 13
M  V30 13 1 2 14
M  V30 14 1 14 15
M  V30 15 1 15 16
M  V30 16 1 16 17
M  V30 17 1 17 18
M  V30 18 2 18 19
M  V30 19 1 19 20
M  V30 20 2 20 21
M  V30 21 1 21 22
M  V30 22 2 22 23
M  V30 23 1 23 24
M  V30 24 1 24 25
M  V30 25 1 25 26
M  V30 26 1 26 27
M  V30 27 1 27 28
M  V30 28 1 28 29
M  V30 29 1 29 30
M  V30 30 2 24 31
M  V30 31 1 31 32
M  V30 32 2 32 33
M  V30 33 1 17 34
M  V30 34 1 34 35
M  V30 35 1 13 3
M  V30 36 1 35 14
M  V30 37 1 33 18
M  V30 38 1 33 22
M  V30 39 1 30 25
M  V30 40 1 4 36
M  V30 41 1 5 37
M  V30 42 1 12 38
M  V30 43 1 13 39
M  V30 44 1 15 40
M  V30 45 1 15 41
M  V30 46 1 16 42
M  V30 47 1 16 43
M  V30 48 1 17 44
M  V30 49 1 20 45
M  V30 50 1 23 46
M  V30 51 1 26 47
M  V30 52 1 26 48
M  V30 53 1 27 49
M  V30 54 1 27 50
M  V30 55 1 29 51
M  V30 56 1 29 52
M  V30 57 1 30 53
M  V30 58 1 30 54
M  V30 59 1 31 55
M  V30 60 1 34 56
M  V30 61 1 34 57
M  V30 62 1 35 58
M  V30 63 1 35 59
M  V30 END BOND
M  V30 END CTAB
M  END
>  <Dataset>  (960) 
ChEMBL_Kinases

>  <Ligand_Instance>  (960) 
nan

>  <PDB_ID>  (960) 
nan

>  <Standardized_SMILES>  (960) 
O=C(c1ccc(OC(F)(F)F)cc1)N1CCC(c2ncnc3cc(N4CCOCC4)cnc23)CC1

>  <Name>  (960) 
nan

>  <Pocket>  (960) 
nan

>  <ATP_Site>  (960) 
nan

>  <Peripheral>  (960) 
nan

>  <Num_H_Atoms_ProtBoundConf>  (960) 
nan

>  <Num_Resolved_Atoms>  (960) 
nan

>  <Num_Not_Resolved_Atoms>  (960) 
nan

$$$$
CHEMBL4752690
     RDKit          3D

  0  0  0  0  0  0  0  0  0  0999 V3000
M  V30 BEGIN CTAB
M  V30 COUNTS 36 38 0 0 0
M  V30 BEGIN ATOM
M  V30 1 C 0.019144 -3.615501 3.207001 0
M  V30 2 C 1.516073 -3.486881 2.959432 0
M  V30 3 O 1.725436 -2.456460 2.040749 0
M  V30 4 C 2.991642 -2.087056 1.603771 0
M  V30 5 O 3.978378 -2.717045 2.064712 0
M  V30 6 C 3.135252 -0.999182 0.640865 0
M  V30 7 C 4.382843 -0.622093 0.198873 0
M  V30 8 N 4.505326 0.390178 -0.696091 0
M  V30 9 C 3.402233 1.041598 -1.165229 0
M  V30 10 N 3.573553 2.100006 -2.104866 0
M  V30 11 N 2.176691 0.673929 -0.733455 0
M  V30 12 N 0.971401 1.144486 -1.035433 0
M  V30 13 C 0.031749 0.453135 -0.346860 0
M  V30 14 C -1.425379 0.538231 -0.289502 0
M  V30 15 C -1.950650 1.385814 0.689964 0
M  V30 16 C -3.323858 1.522801 0.810700 0
M  V30 17 O -3.897947 2.364865 1.782263 0
M  V30 18 C -4.138189 0.806267 -0.054021 0
M  V30 19 C -3.645288 -0.044148 -1.037757 0
M  V30 20 O -4.483594 -0.750224 -1.890893 0
M  V30 21 C -2.274729 -0.169013 -1.144342 0
M  V30 22 N 0.695961 -0.459209 0.389768 0
M  V30 23 C 2.024469 -0.335151 0.161410 0
M  V30 24 H -0.331981 -2.789950 3.871562 0
M  V30 25 H -0.117835 -4.537977 3.820015 0
M  V30 26 H -0.560200 -3.691133 2.279991 0
M  V30 27 H 1.886269 -4.423476 2.526366 0
M  V30 28 H 1.958956 -3.224985 3.944128 0
M  V30 29 H 5.273279 -1.142288 0.572641 0
M  V30 30 H 3.375633 1.732808 -3.061175 0
M  V30 31 H 3.843537 3.100704 -1.993189 0
M  V30 32 H -1.279906 1.938163 1.357801 0
M  V30 33 H -4.603083 1.879211 2.355306 0
M  V30 34 H -5.221453 0.888406 0.010783 0
M  V30 35 H -4.200074 -1.727841 -2.060004 0
M  V30 36 H -1.799993 -0.807860 -1.880300 0
M  V30 END ATOM
M  V30 BEGIN BOND
M  V30 1 1 1 2
M  V30 2 1 2 3
M  V30 3 1 3 4
M  V30 4 2 4 5
M  V30 5 1 4 6
M  V30 6 2 6 7
M  V30 7 1 7 8
M  V30 8 2 8 9
M  V30 9 1 9 10
M  V30 10 1 9 11
M  V30 11 1 11 12
M  V30 12 2 12 13
M  V30 13 1 13 14
M  V30 14 2 14 15
M  V30 15 1 15 16
M  V30 16 1 16 17
M  V30 17 2 16 18
M  V30 18 1 18 19
M  V30 19 1 19 20
M  V30 20 2 19 21
M  V30 21 1 13 22
M  V30 22 2 22 23
M  V30 23 1 23 6
M  V30 24 1 23 11
M  V30 25 1 21 14
M  V30 26 1 1 24
M  V30 27 1 1 25
M  V30 28 1 1 26
M  V30 29 1 2 27
M  V30 30 1 2 28
M  V30 31 1 7 29
M  V30 32 1 10 30
M  V30 33 1 10 31
M  V30 34 1 15 32
M  V30 35 1 17 33
M  V30 36 1 18 34
M  V30 37 1 20 35
M  V30 38 1 21 36
M  V30 END BOND
M  V30 END CTAB
M  END
>  <Dataset>  (961) 
ChEMBL_Kinases

>  <Ligand_Instance>  (961) 
nan

>  <PDB_ID>  (961) 
nan

>  <Standardized_SMILES>  (961) 
CCOC(=O)c1cnc(N)n2nc(-c3cc(O)cc(O)c3)nc12

>  <Name>  (961) 
nan

>  <Pocket>  (961) 
nan

>  <ATP_Site>  (961) 
nan

>  <Peripheral>  (961) 
nan

>  <Num_H_Atoms_ProtBoundConf>  (961) 
nan

>  <Num_Resolved_Atoms>  (961) 
nan

>  <Num_Not_Resolved_Atoms>  (961) 
nan

$$$$
CHEMBL4438248
     RDKit          3D

  0  0  0  0  0  0  0  0  0  0999 V3000
M  V30 BEGIN CTAB
M  V30 COUNTS 48 51 0 0 0
M  V30 BEGIN ATOM
M  V30 1 C 2.992416 -2.780440 4.055485 0
M  V30 2 N 3.811809 -3.732344 3.333929 0
M  V30 3 N 4.604658 -4.677300 3.863725 0
M  V30 4 C 5.207247 -5.368748 2.890341 0
M  V30 5 C 4.790586 -4.853806 1.668143 0
M  V30 6 C 3.925211 -3.840058 1.997875 0
M  V30 7 C 3.203129 -2.970758 1.069081 0
M  V30 8 C 3.229097 -2.975335 -0.271312 0
M  V30 9 C 2.487068 -2.086529 -0.993848 0
M  V30 10 C 1.709788 -1.184862 -0.238893 0
M  V30 11 C 0.814203 -0.118344 -0.790655 0
M  V30 12 O 0.557019 0.207410 -1.952023 0
M  V30 13 N 0.177499 0.612070 0.248913 0
M  V30 14 C -0.740673 1.700318 -0.050119 0 CFG=2
M  V30 15 C -0.224231 2.940557 0.607166 0
M  V30 16 N -0.566992 2.913977 2.000957 0
M  V30 17 C -1.986675 3.167864 2.168433 0
M  V30 18 C -2.793243 2.637933 1.009694 0
M  V30 19 C -2.093083 1.376936 0.547845 0 CFG=1
M  V30 20 C -2.922498 0.512615 -0.302492 0
M  V30 21 C -3.366764 -0.750298 0.105906 0
M  V30 22 C -4.135364 -1.472081 -0.767601 0
M  V30 23 C -4.477076 -0.993413 -2.019424 0
M  V30 24 Cl -5.467500 -1.994701 -3.068153 0
M  V30 25 C -4.021479 0.260374 -2.393595 0
M  V30 26 C -3.240443 1.022466 -1.536875 0
M  V30 27 S 2.090100 -1.667089 1.505349 0
M  V30 28 H 3.398303 -1.748996 3.942073 0
M  V30 29 H 1.921812 -2.822770 3.772123 0
M  V30 30 H 3.015088 -3.013809 5.139787 0
M  V30 31 H 5.911841 -6.200833 2.965648 0
M  V30 32 H 5.054666 -5.145204 0.643834 0
M  V30 33 H 3.860529 -3.709444 -0.800660 0
M  V30 34 H 2.440788 -2.011012 -2.073081 0
M  V30 35 H 0.263831 0.490095 1.288227 0
M  V30 36 H -0.784999 1.774107 -1.156018 0
M  V30 37 H 0.888996 3.035992 0.532804 0
M  V30 38 H -0.617199 3.871081 0.181881 0
M  V30 39 H -0.266762 2.050995 2.501119 0
M  V30 40 H -2.113240 4.253456 2.331778 0
M  V30 41 H -2.294820 2.593242 3.071280 0
M  V30 42 H -3.789623 2.352507 1.400500 0
M  V30 43 H -2.951602 3.378344 0.206043 0
M  V30 44 H -1.938888 0.796349 1.505989 0
M  V30 45 H -3.067594 -1.073185 1.098008 0
M  V30 46 H -4.467103 -2.447462 -0.427707 0
M  V30 47 H -4.332938 0.554425 -3.380995 0
M  V30 48 H -2.950869 1.968494 -1.935756 0
M  V30 END ATOM
M  V30 BEGIN BOND
M  V30 1 1 1 2
M  V30 2 1 2 3
M  V30 3 2 3 4
M  V30 4 1 4 5
M  V30 5 2 5 6
M  V30 6 1 6 7
M  V30 7 2 7 8
M  V30 8 1 8 9
M  V30 9 2 9 10
M  V30 10 1 10 11
M  V30 11 2 11 12
M  V30 12 1 11 13
M  V30 13 1 13 14
M  V30 14 1 14 15
M  V30 15 1 15 16
M  V30 16 1 16 17
M  V30 17 1 17 18
M  V30 18 1 18 19
M  V30 19 1 19 20
M  V30 20 2 20 21
M  V30 21 1 21 22
M  V30 22 2 22 23
M  V30 23 1 23 24
M  V30 24 1 23 25
M  V30 25 2 25 26
M  V30 26 1 10 27
M  V30 27 1 6 2
M  V30 28 1 27 7
M  V30 29 1 19 14
M  V30 30 1 26 20
M  V30 31 1 1 28
M  V30 32 1 1 29
M  V30 33 1 1 30
M  V30 34 1 4 31
M  V30 35 1 5 32
M  V30 36 1 8 33
M  V30 37 1 9 34
M  V30 38 1 13 35
M  V30 39 1 14 36 CFG=3
M  V30 40 1 15 37
M  V30 41 1 15 38
M  V30 42 1 16 39
M  V30 43 1 17 40
M  V30 44 1 17 41
M  V30 45 1 18 42
M  V30 46 1 18 43
M  V30 47 1 19 44 CFG=1
M  V30 48 1 21 45
M  V30 49 1 22 46
M  V30 50 1 25 47
M  V30 51 1 26 48
M  V30 END BOND
M  V30 END CTAB
M  END
>  <Dataset>  (962) 
ChEMBL_Kinases

>  <Ligand_Instance>  (962) 
nan

>  <PDB_ID>  (962) 
nan

>  <Standardized_SMILES>  (962) 
Cn1nccc1-c1ccc(C(=O)N[C@@H]2CNCC[C@H]2c2ccc(Cl)cc2)s1

>  <Name>  (962) 
nan

>  <Pocket>  (962) 
nan

>  <ATP_Site>  (962) 
nan

>  <Peripheral>  (962) 
nan

>  <Num_H_Atoms_ProtBoundConf>  (962) 
nan

>  <Num_Resolved_Atoms>  (962) 
nan

>  <Num_Not_Resolved_Atoms>  (962) 
nan

$$$$
CHEMBL4438236
     RDKit          3D

  0  0  0  0  0  0  0  0  0  0999 V3000
M  V30 BEGIN CTAB
M  V30 COUNTS 55 59 0 0 0
M  V30 BEGIN ATOM
M  V30 1 C 0.832522 -4.272673 2.019507 0
M  V30 2 C 1.413477 -2.918028 1.812971 0
M  V30 3 C 2.731279 -2.673397 2.223689 0
M  V30 4 C 3.160914 -1.384703 1.985681 0
M  V30 5 C 2.445926 -0.358227 1.406381 0
M  V30 6 C 3.015708 0.967729 1.208690 0
M  V30 7 O 4.238277 1.066744 1.586213 0
M  V30 8 N 2.260498 2.023167 0.647609 0
M  V30 9 C 2.967632 3.250022 0.524746 0
M  V30 10 C 3.719325 3.743655 -0.519898 0
M  V30 11 C 4.327077 4.975667 -0.424370 0
M  V30 12 C 4.208914 5.757342 0.711091 0
M  V30 13 Cl 5.006657 7.322447 0.779954 0
M  V30 14 C 3.453276 5.283290 1.790085 0
M  V30 15 C 3.340777 6.124279 3.014196 0
M  V30 16 F 4.578070 6.372077 3.574153 0
M  V30 17 F 2.537129 5.431099 3.930351 0
M  V30 18 F 2.653783 7.283834 2.710231 0
M  V30 19 C 2.855897 4.047178 1.665748 0
M  V30 20 C 1.154401 -0.712861 1.039974 0
M  V30 21 C 0.600223 -1.958592 1.218743 0
M  V30 22 N -0.711682 -2.290028 0.838943 0
M  V30 23 C -2.022662 -2.343769 1.219621 0
M  V30 24 O -2.129497 -1.917376 2.430100 0
M  V30 25 C -3.242025 -2.782967 0.507763 0
M  V30 26 C -3.005070 -3.257113 -0.855129 0
M  V30 27 N -1.872021 -3.357793 -1.549018 0
M  V30 28 C -1.641678 -3.778957 -2.759355 0
M  V30 29 N -2.687308 -4.211349 -3.520709 0
M  V30 30 C -3.903958 -4.170177 -2.953959 0
M  V30 31 N -5.071831 -4.539567 -3.504310 0
M  V30 32 C -6.060602 -4.341748 -2.608240 0
M  V30 33 C -5.434752 -3.837251 -1.495110 0
M  V30 34 C -4.073332 -3.702181 -1.642393 0
M  V30 35 C -4.251866 -3.366425 1.421119 0
M  V30 36 C -4.444222 -2.024793 0.917299 0
M  V30 37 H 0.006853 -4.484306 1.346316 0
M  V30 38 H 1.656649 -5.004887 1.824485 0
M  V30 39 H 0.524609 -4.428544 3.079410 0
M  V30 40 H 3.357029 -3.424824 2.682528 0
M  V30 41 H 4.177087 -1.203294 2.302695 0
M  V30 42 H 1.263955 1.900335 0.349310 0
M  V30 43 H 3.755319 3.061809 -1.366417 0
M  V30 44 H 4.904894 5.310231 -1.271123 0
M  V30 45 H 2.295289 3.768949 2.548315 0
M  V30 46 H 0.523666 0.025226 0.582028 0
M  V30 47 H -0.402554 -2.587043 -0.104809 0
M  V30 48 H -0.567386 -3.705598 -2.960243 0
M  V30 49 H -5.232080 -4.918060 -4.458219 0
M  V30 50 H -7.129785 -4.531497 -2.715628 0
M  V30 51 H -5.961689 -3.579835 -0.614248 0
M  V30 52 H -4.784005 -4.298006 1.178428 0
M  V30 53 H -3.987260 -3.458074 2.529366 0
M  V30 54 H -5.059685 -1.631661 0.119416 0
M  V30 55 H -4.345079 -1.200412 1.703271 0
M  V30 END ATOM
M  V30 BEGIN BOND
M  V30 1 1 1 2
M  V30 2 2 2 3
M  V30 3 1 3 4
M  V30 4 2 4 5
M  V30 5 1 5 6
M  V30 6 2 6 7
M  V30 7 1 6 8
M  V30 8 1 8 9
M  V30 9 2 9 10
M  V30 10 1 10 11
M  V30 11 2 11 12
M  V30 12 1 12 13
M  V30 13 1 12 14
M  V30 14 1 14 15
M  V30 15 1 15 16
M  V30 16 1 15 17
M  V30 17 1 15 18
M  V30 18 2 14 19
M  V30 19 1 5 20
M  V30 20 2 20 21
M  V30 21 1 21 22
M  V30 22 1 22 23
M  V30 23 2 23 24
M  V30 24 1 23 25
M  V30 25 1 25 26
M  V30 26 2 26 27
M  V30 27 1 27 28
M  V30 28 2 28 29
M  V30 29 1 29 30
M  V30 30 1 30 31
M  V30 31 1 31 32
M  V30 32 2 32 33
M  V30 33 1 33 34
M  V30 34 1 25 35
M  V30 35 1 35 36
M  V30 36 1 21 2
M  V30 37 1 36 25
M  V30 38 1 19 9
M  V30 39 1 34 26
M  V30 40 2 34 30
M  V30 41 1 1 37
M  V30 42 1 1 38
M  V30 43 1 1 39
M  V30 44 1 3 40
M  V30 45 1 4 41
M  V30 46 1 8 42
M  V30 47 1 10 43
M  V30 48 1 11 44
M  V30 49 1 19 45
M  V30 50 1 20 46
M  V30 51 1 22 47
M  V30 52 1 28 48
M  V30 53 1 31 49
M  V30 54 1 32 50
M  V30 55 1 33 51
M  V30 56 1 35 52
M  V30 57 1 35 53
M  V30 58 1 36 54
M  V30 59 1 36 55
M  V30 END BOND
M  V30 END CTAB
M  END
>  <Dataset>  (963) 
ChEMBL_Kinases

>  <Ligand_Instance>  (963) 
nan

>  <PDB_ID>  (963) 
nan

>  <Standardized_SMILES>  (963) 
Cc1ccc(C(=O)Nc2ccc(Cl)c(C(F)(F)F)c2)cc1NC(=O)C1(c2ncnc3[nH]ccc23)CC1

>  <Name>  (963) 
nan

>  <Pocket>  (963) 
nan

>  <ATP_Site>  (963) 
nan

>  <Peripheral>  (963) 
nan

>  <Num_H_Atoms_ProtBoundConf>  (963) 
nan

>  <Num_Resolved_Atoms>  (963) 
nan

>  <Num_Not_Resolved_Atoms>  (963) 
nan

$$$$
CHEMBL4438227
     RDKit          3D

  0  0  0  0  0  0  0  0  0  0999 V3000
M  V30 BEGIN CTAB
M  V30 COUNTS 56 60 0 0 0
M  V30 BEGIN ATOM
M  V30 1 O 3.056715 2.403930 2.205696 0
M  V30 2 C 1.968374 2.404482 2.808355 0
M  V30 3 C 2.077920 2.749472 4.241644 0
M  V30 4 C 3.524820 2.994422 4.511017 0
M  V30 5 C 4.393700 1.980319 4.914258 0
M  V30 6 C 5.728089 2.263314 5.152032 0
M  V30 7 C 6.245892 3.532833 5.003867 0
M  V30 8 F 7.552044 3.779541 5.242660 0
M  V30 9 C 5.378206 4.526523 4.605180 0
M  V30 10 C 5.911692 5.889980 4.440777 0
M  V30 11 F 6.914035 5.907333 3.487203 0
M  V30 12 F 4.922730 6.774057 4.036429 0
M  V30 13 F 6.411398 6.317285 5.651699 0
M  V30 14 C 4.045778 4.279069 4.360467 0
M  V30 15 N 0.823922 2.089694 2.074654 0
M  V30 16 C 0.547408 1.748532 0.737812 0
M  V30 17 C -0.767321 1.484966 0.441710 0
M  V30 18 C -1.130043 1.148514 -0.839569 0
M  V30 19 O -2.467434 0.888453 -1.103641 0
M  V30 20 C -2.955480 -0.404270 -1.007331 0
M  V30 21 C -3.487289 -1.046892 0.087478 0
M  V30 22 C -3.959755 -2.339596 0.127651 0
M  V30 23 C -3.901126 -3.089588 -1.054458 0
M  V30 24 N -4.302582 -4.336327 -1.212920 0
M  V30 25 C -4.285429 -4.991678 -2.122775 0
M  V30 26 N -4.558083 -6.287574 -2.809325 0
M  V30 27 C -3.522499 -7.231124 -2.780506 0
M  V30 28 O -2.363881 -7.243576 -2.288717 0
M  V30 29 C -3.556074 -8.584176 -3.391578 0
M  V30 30 C -3.975667 -8.652389 -4.867706 0
M  V30 31 C -4.796119 -9.262503 -3.777679 0
M  V30 32 S -3.499593 -3.764986 -3.382298 0
M  V30 33 C -3.378745 -2.465708 -2.139346 0
M  V30 34 C -2.901703 -1.157624 -2.175760 0
M  V30 35 C -0.218163 1.060372 -1.865969 0
M  V30 36 C 1.106265 1.319704 -1.595037 0
M  V30 37 C 1.427625 1.651210 -0.308319 0
M  V30 38 F 2.733285 1.889729 -0.123003 0
M  V30 39 H 1.514000 3.671243 4.495700 0
M  V30 40 H 1.765597 1.883051 4.831542 0
M  V30 41 H 3.972711 0.987801 5.026443 0
M  V30 42 H 6.371949 1.454725 5.462908 0
M  V30 43 H 3.406349 5.098774 4.048413 0
M  V30 44 H 0.022508 2.147154 2.770194 0
M  V30 45 H -1.572545 1.528815 1.193393 0
M  V30 46 H -3.508317 -0.415172 0.980737 0
M  V30 47 H -4.336091 -2.648148 1.092456 0
M  V30 48 H -5.432983 -6.544845 -3.297023 0
M  V30 49 H -2.602066 -9.137660 -3.223231 0
M  V30 50 H -3.406267 -9.257412 -5.570544 0
M  V30 51 H -4.454563 -7.763522 -5.323834 0
M  V30 52 H -4.792167 -10.373485 -3.794156 0
M  V30 53 H -5.763041 -8.832442 -3.484597 0
M  V30 54 H -2.535348 -0.871748 -3.132261 0
M  V30 55 H -0.578036 0.792235 -2.839525 0
M  V30 56 H 1.808903 1.249048 -2.398426 0
M  V30 END ATOM
M  V30 BEGIN BOND
M  V30 1 2 1 2
M  V30 2 1 2 3
M  V30 3 1 3 4
M  V30 4 2 4 5
M  V30 5 1 5 6
M  V30 6 2 6 7
M  V30 7 1 7 8
M  V30 8 1 7 9
M  V30 9 1 9 10
M  V30 10 1 10 11
M  V30 11 1 10 12
M  V30 12 1 10 13
M  V30 13 2 9 14
M  V30 14 1 2 15
M  V30 15 1 15 16
M  V30 16 2 16 17
M  V30 17 1 17 18
M  V30 18 1 18 19
M  V30 19 1 19 20
M  V30 20 2 20 21
M  V30 21 1 21 22
M  V30 22 2 22 23
M  V30 23 1 23 24
M  V30 24 2 24 25
M  V30 25 1 25 26
M  V30 26 1 26 27
M  V30 27 2 27 28
M  V30 28 1 27 29
M  V30 29 1 29 30
M  V30 30 1 30 31
M  V30 31 1 25 32
M  V30 32 1 32 33
M  V30 33 2 33 34
M  V30 34 2 18 35
M  V30 35 1 35 36
M  V30 36 2 36 37
M  V30 37 1 37 38
M  V30 38 1 14 4
M  V30 39 1 37 16
M  V30 40 1 34 20
M  V30 41 1 33 23
M  V30 42 1 31 29
M  V30 43 1 3 39
M  V30 44 1 3 40
M  V30 45 1 5 41
M  V30 46 1 6 42
M  V30 47 1 14 43
M  V30 48 1 15 44
M  V30 49 1 17 45
M  V30 50 1 21 46
M  V30 51 1 22 47
M  V30 52 1 26 48
M  V30 53 1 29 49
M  V30 54 1 30 50
M  V30 55 1 30 51
M  V30 56 1 31 52
M  V30 57 1 31 53
M  V30 58 1 34 54
M  V30 59 1 35 55
M  V30 60 1 36 56
M  V30 END BOND
M  V30 END CTAB
M  END
>  <Dataset>  (964) 
ChEMBL_Kinases

>  <Ligand_Instance>  (964) 
nan

>  <PDB_ID>  (964) 
nan

>  <Standardized_SMILES>  (964) 
O=C(Cc1ccc(F)c(C(F)(F)F)c1)Nc1cc(Oc2ccc3nc(NC(=O)C4CC4)sc3c2)ccc1F

>  <Name>  (964) 
nan

>  <Pocket>  (964) 
nan

>  <ATP_Site>  (964) 
nan

>  <Peripheral>  (964) 
nan

>  <Num_H_Atoms_ProtBoundConf>  (964) 
nan

>  <Num_Resolved_Atoms>  (964) 
nan

>  <Num_Not_Resolved_Atoms>  (964) 
nan

$$$$
CHEMBL4438081
     RDKit          3D

  0  0  0  0  0  0  0  0  0  0999 V3000
M  V30 BEGIN CTAB
M  V30 COUNTS 38 40 0 0 0
M  V30 BEGIN ATOM
M  V30 1 C 1.720367 -2.626595 1.643971 0
M  V30 2 C 0.438369 -3.009389 0.982096 0
M  V30 3 C 0.097300 -4.448413 1.339827 0
M  V30 4 C 0.649681 -3.000039 -0.519884 0
M  V30 5 N -0.670181 -2.180596 1.400569 0
M  V30 6 C -0.674751 -0.775909 1.179961 0
M  V30 7 C 0.369317 -0.129124 0.554821 0
M  V30 8 C 0.404748 1.212250 0.322180 0
M  V30 9 C 1.484043 1.941773 -0.333745 0
M  V30 10 C 2.630682 1.342618 -0.810373 0
M  V30 11 C 3.675967 1.988210 -1.435851 0
M  V30 12 N 3.561037 3.331976 -1.593790 0
M  V30 13 C 2.452000 3.942010 -1.137684 0
M  V30 14 N 1.456441 3.270923 -0.532953 0
M  V30 15 N -0.654579 1.973601 0.729244 0
M  V30 16 C -1.717359 1.430572 1.347052 0
M  V30 17 C -2.776428 2.215512 1.750218 0
M  V30 18 N -3.854456 1.664255 2.377001 0
M  V30 19 C -3.861777 0.335311 2.593642 0
M  V30 20 C -2.803002 -0.445600 2.189976 0
M  V30 21 C -1.697370 0.069137 1.555257 0
M  V30 22 H 1.660401 -1.723082 2.289194 0
M  V30 23 H 2.032572 -3.449670 2.348794 0
M  V30 24 H 2.556986 -2.481228 0.949444 0
M  V30 25 H -0.288344 -4.567075 2.358309 0
M  V30 26 H -0.698141 -4.811597 0.633990 0
M  V30 27 H 0.998684 -5.093058 1.211018 0
M  V30 28 H 1.686404 -2.762124 -0.798300 0
M  V30 29 H -0.089112 -2.272913 -0.941885 0
M  V30 30 H 0.425893 -3.995653 -0.993610 0
M  V30 31 H -1.469087 -2.639391 1.869877 0
M  V30 32 H 1.227547 -0.643413 0.207349 0
M  V30 33 H 2.772620 0.276196 -0.710362 0
M  V30 34 H 4.553878 1.467490 -1.790838 0
M  V30 35 H 2.245489 5.010931 -1.205845 0
M  V30 36 H -2.691654 3.278906 1.537449 0
M  V30 37 H -4.756135 -0.043877 3.101112 0
M  V30 38 H -2.923329 -1.474061 2.414947 0
M  V30 END ATOM
M  V30 BEGIN BOND
M  V30 1 1 1 2
M  V30 2 1 2 3
M  V30 3 1 2 4
M  V30 4 1 2 5
M  V30 5 1 5 6
M  V30 6 2 6 7
M  V30 7 1 7 8
M  V30 8 1 8 9
M  V30 9 2 9 10
M  V30 10 1 10 11
M  V30 11 2 11 12
M  V30 12 1 12 13
M  V30 13 2 13 14
M  V30 14 2 8 15
M  V30 15 1 15 16
M  V30 16 2 16 17
M  V30 17 1 17 18
M  V30 18 2 18 19
M  V30 19 1 19 20
M  V30 20 2 20 21
M  V30 21 1 21 6
M  V30 22 1 14 9
M  V30 23 1 21 16
M  V30 24 1 1 22
M  V30 25 1 1 23
M  V30 26 1 1 24
M  V30 27 1 3 25
M  V30 28 1 3 26
M  V30 29 1 3 27
M  V30 30 1 4 28
M  V30 31 1 4 29
M  V30 32 1 4 30
M  V30 33 1 5 31
M  V30 34 1 7 32
M  V30 35 1 10 33
M  V30 36 1 11 34
M  V30 37 1 13 35
M  V30 38 1 17 36
M  V30 39 1 19 37
M  V30 40 1 20 38
M  V30 END BOND
M  V30 END CTAB
M  END
>  <Dataset>  (965) 
ChEMBL_Kinases

>  <Ligand_Instance>  (965) 
nan

>  <PDB_ID>  (965) 
nan

>  <Standardized_SMILES>  (965) 
CC(C)(C)Nc1cc(-c2ccncn2)nc2cnccc12

>  <Name>  (965) 
nan

>  <Pocket>  (965) 
nan

>  <ATP_Site>  (965) 
nan

>  <Peripheral>  (965) 
nan

>  <Num_H_Atoms_ProtBoundConf>  (965) 
nan

>  <Num_Resolved_Atoms>  (965) 
nan

>  <Num_Not_Resolved_Atoms>  (965) 
nan

$$$$
CHEMBL4752512
     RDKit          3D

  0  0  0  0  0  0  0  0  0  0999 V3000
M  V30 BEGIN CTAB
M  V30 COUNTS 36 39 0 0 0
M  V30 BEGIN ATOM
M  V30 1 O 2.979066 -6.161558 2.011828 0
M  V30 2 C 2.325284 -5.410746 1.226873 0
M  V30 3 O 1.799955 -6.331533 0.330385 0
M  V30 4 C 2.172034 -3.965075 1.264273 0
M  V30 5 C 1.420976 -3.278385 0.331810 0
M  V30 6 C 1.362088 -1.902007 0.489350 0
M  V30 7 C 2.008945 -1.231005 1.512612 0
M  V30 8 N 1.932360 0.192960 1.653659 0
M  V30 9 C 2.830179 0.944336 2.326400 0
M  V30 10 N 2.437816 2.237602 2.248640 0
M  V30 11 C 1.302103 2.306653 1.533592 0
M  V30 12 C 0.441019 3.302727 1.117287 0
M  V30 13 C -0.689726 3.055739 0.363258 0
M  V30 14 C -0.955526 1.748118 0.019387 0
M  V30 15 C -2.115748 1.358843 -0.772391 0
M  V30 16 C -2.304372 0.025958 -1.070407 0
M  V30 17 C -3.362544 -0.464627 -1.810593 0
M  V30 18 N -4.288017 0.414900 -2.283463 0
M  V30 19 C -4.104490 1.709056 -1.993865 0
M  V30 20 C -3.066314 2.227825 -1.262670 0
M  V30 21 N -0.125802 0.767007 0.417689 0
M  V30 22 C 0.974353 1.012204 1.151971 0
M  V30 23 C 2.745758 -1.970839 2.415852 0
M  V30 24 C 2.843215 -3.363626 2.309485 0
M  V30 25 H 1.146056 -7.061500 0.608833 0
M  V30 26 H 0.915879 -3.804320 -0.467559 0
M  V30 27 H 0.783334 -1.338400 -0.223180 0
M  V30 28 H 3.737237 0.628116 2.862675 0
M  V30 29 H 0.684462 4.315924 1.407637 0
M  V30 30 H -1.348656 3.850773 0.049065 0
M  V30 31 H -1.603820 -0.747950 -0.726889 0
M  V30 32 H -3.496892 -1.508947 -2.035526 0
M  V30 33 H -4.880684 2.358388 -2.402240 0
M  V30 34 H -2.957127 3.269447 -1.054157 0
M  V30 35 H 3.240655 -1.418920 3.205451 0
M  V30 36 H 3.430611 -3.894008 3.039910 0
M  V30 END ATOM
M  V30 BEGIN BOND
M  V30 1 2 1 2
M  V30 2 1 2 3
M  V30 3 1 2 4
M  V30 4 2 4 5
M  V30 5 1 5 6
M  V30 6 2 6 7
M  V30 7 1 7 8
M  V30 8 1 8 9
M  V30 9 2 9 10
M  V30 10 1 10 11
M  V30 11 2 11 12
M  V30 12 1 12 13
M  V30 13 2 13 14
M  V30 14 1 14 15
M  V30 15 2 15 16
M  V30 16 1 16 17
M  V30 17 2 17 18
M  V30 18 1 18 19
M  V30 19 2 19 20
M  V30 20 1 14 21
M  V30 21 2 21 22
M  V30 22 1 7 23
M  V30 23 2 23 24
M  V30 24 1 24 4
M  V30 25 1 22 8
M  V30 26 1 22 11
M  V30 27 1 20 15
M  V30 28 1 3 25
M  V30 29 1 5 26
M  V30 30 1 6 27
M  V30 31 1 9 28
M  V30 32 1 12 29
M  V30 33 1 13 30
M  V30 34 1 16 31
M  V30 35 1 17 32
M  V30 36 1 19 33
M  V30 37 1 20 34
M  V30 38 1 23 35
M  V30 39 1 24 36
M  V30 END BOND
M  V30 END CTAB
M  END
>  <Dataset>  (966) 
ChEMBL_Kinases

>  <Ligand_Instance>  (966) 
nan

>  <PDB_ID>  (966) 
nan

>  <Standardized_SMILES>  (966) 
O=C(O)c1ccc(-n2cnc3ccc(-c4ccncc4)nc32)cc1

>  <Name>  (966) 
nan

>  <Pocket>  (966) 
nan

>  <ATP_Site>  (966) 
nan

>  <Peripheral>  (966) 
nan

>  <Num_H_Atoms_ProtBoundConf>  (966) 
nan

>  <Num_Resolved_Atoms>  (966) 
nan

>  <Num_Not_Resolved_Atoms>  (966) 
nan

$$$$
CHEMBL4755602
     RDKit          3D

  0  0  0  0  0  0  0  0  0  0999 V3000
M  V30 BEGIN CTAB
M  V30 COUNTS 35 37 0 0 0
M  V30 BEGIN ATOM
M  V30 1 O 3.300432 -3.802590 3.003856 0
M  V30 2 C 2.119223 -3.941038 2.263518 0
M  V30 3 C 1.629732 -5.205861 2.055166 0
M  V30 4 C 0.471058 -5.382745 1.332305 0
M  V30 5 C -0.205925 -4.299969 0.813256 0
M  V30 6 C 0.341183 -3.059930 1.060289 0
M  V30 7 C 1.482223 -2.809126 1.765902 0
M  V30 8 N 2.025564 -1.528291 2.007215 0
M  V30 9 C 1.578270 -0.238442 1.617407 0
M  V30 10 N 2.229714 0.885005 1.940562 0
M  V30 11 C 1.819698 2.080024 1.582598 0
M  V30 12 C 0.667134 2.200277 0.839545 0
M  V30 13 C 0.177142 3.535327 0.454152 0
M  V30 14 F 1.130174 4.475283 0.897056 0
M  V30 15 F -0.946504 3.887303 1.222075 0
M  V30 16 F 0.005775 3.729207 -0.877583 0
M  V30 17 C -0.052373 1.086218 0.471110 0
M  V30 18 N -1.236038 1.058237 -0.313617 0
M  V30 19 C -2.128957 1.917545 -0.992998 0
M  V30 20 C -3.244099 1.277066 -1.818270 0
M  V30 21 C -2.096380 1.836811 -2.531881 0
M  V30 22 N 0.473485 -0.064828 0.899824 0
M  V30 23 H 3.267837 -3.637455 3.995234 0
M  V30 24 H 2.171682 -6.045334 2.468456 0
M  V30 25 H 0.118361 -6.392750 1.190209 0
M  V30 26 H -1.109962 -4.463756 0.251357 0
M  V30 27 H -0.223341 -2.263591 0.636136 0
M  V30 28 H 2.921125 -1.505550 2.575184 0
M  V30 29 H 2.394263 2.941656 1.878126 0
M  V30 30 H -1.598517 0.065687 -0.450735 0
M  V30 31 H -2.503348 2.874852 -0.560386 0
M  V30 32 H -4.219584 1.775185 -1.909770 0
M  V30 33 H -3.345371 0.178226 -1.707266 0
M  V30 34 H -2.149071 2.815861 -3.038715 0
M  V30 35 H -1.370443 1.150029 -2.990028 0
M  V30 END ATOM
M  V30 BEGIN BOND
M  V30 1 1 1 2
M  V30 2 2 2 3
M  V30 3 1 3 4
M  V30 4 2 4 5
M  V30 5 1 5 6
M  V30 6 2 6 7
M  V30 7 1 7 8
M  V30 8 1 8 9
M  V30 9 2 9 10
M  V30 10 1 10 11
M  V30 11 2 11 12
M  V30 12 1 12 13
M  V30 13 1 13 14
M  V30 14 1 13 15
M  V30 15 1 13 16
M  V30 16 1 12 17
M  V30 17 1 17 18
M  V30 18 1 18 19
M  V30 19 1 19 20
M  V30 20 1 20 21
M  V30 21 2 17 22
M  V30 22 1 7 2
M  V30 23 1 22 9
M  V30 24 1 21 19
M  V30 25 1 1 23
M  V30 26 1 3 24
M  V30 27 1 4 25
M  V30 28 1 5 26
M  V30 29 1 6 27
M  V30 30 1 8 28
M  V30 31 1 11 29
M  V30 32 1 18 30
M  V30 33 1 19 31
M  V30 34 1 20 32
M  V30 35 1 20 33
M  V30 36 1 21 34
M  V30 37 1 21 35
M  V30 END BOND
M  V30 END CTAB
M  END
>  <Dataset>  (967) 
ChEMBL_Kinases

>  <Ligand_Instance>  (967) 
nan

>  <PDB_ID>  (967) 
nan

>  <Standardized_SMILES>  (967) 
Oc1ccccc1Nc1ncc(C(F)(F)F)c(NC2CC2)n1

>  <Name>  (967) 
nan

>  <Pocket>  (967) 
nan

>  <ATP_Site>  (967) 
nan

>  <Peripheral>  (967) 
nan

>  <Num_H_Atoms_ProtBoundConf>  (967) 
nan

>  <Num_Resolved_Atoms>  (967) 
nan

>  <Num_Not_Resolved_Atoms>  (967) 
nan

$$$$
CHEMBL4294411
     RDKit          3D

  0  0  0  0  0  0  0  0  0  0999 V3000
M  V30 BEGIN CTAB
M  V30 COUNTS 56 59 0 0 0
M  V30 BEGIN ATOM
M  V30 1 C 3.057725 -1.871827 6.711966 0
M  V30 2 C 3.618315 -2.749272 5.608670 0
M  V30 3 O 3.125482 -2.265311 4.348601 0
M  V30 4 C 1.766982 -2.213651 4.077922 0
M  V30 5 O 1.058244 -2.633387 5.052551 0
M  V30 6 C 1.202882 -1.733105 2.818690 0
M  V30 7 C 1.978715 -1.279230 1.765332 0
M  V30 8 C 1.347987 -0.843433 0.609896 0
M  V30 9 C -0.037506 -0.884902 0.568420 0
M  V30 10 C -0.673318 -0.415922 -0.669190 0
M  V30 11 C -0.585495 0.888899 -1.149415 0
M  V30 12 C 0.164748 1.961500 -0.463065 0
M  V30 13 C 1.188402 2.499856 -1.224738 0
M  V30 14 C 1.932691 3.506811 -0.646643 0
M  V30 15 C 1.677052 3.965344 0.634077 0
M  V30 16 C 0.639556 3.374832 1.323622 0
M  V30 17 C 0.364778 3.865569 2.698775 0
M  V30 18 N -0.123176 2.376374 0.792609 0
M  V30 19 N -1.296544 0.908946 -2.294457 0
M  V30 20 N -1.797833 -0.277178 -2.531036 0
M  V30 21 C -1.444191 -1.135424 -1.558100 0
M  V30 22 C -2.015675 -2.479858 -1.830946 0
M  V30 23 C -3.310042 -2.698681 -1.093056 0
M  V30 24 C -2.340554 -2.412747 -3.315622 0
M  V30 25 C -3.548873 -3.205063 -3.698960 0
M  V30 26 C -1.176571 -2.922281 -4.137406 0
M  V30 27 C -2.616823 -0.946207 -3.521474 0
M  V30 28 C -0.843889 -1.328296 1.592383 0
M  V30 29 C -0.179242 -1.753141 2.724128 0
M  V30 30 H 2.205639 -2.399301 7.229037 0
M  V30 31 H 2.548706 -0.970662 6.259983 0
M  V30 32 H 3.807772 -1.463427 7.389593 0
M  V30 33 H 3.244550 -3.788641 5.766121 0
M  V30 34 H 4.711078 -2.659245 5.633576 0
M  V30 35 H 3.047497 -1.279970 1.878853 0
M  V30 36 H 1.945693 -0.487984 -0.216443 0
M  V30 37 H 1.416559 2.166227 -2.228692 0
M  V30 38 H 2.750591 3.949920 -1.231157 0
M  V30 39 H 2.254818 4.758942 1.104564 0
M  V30 40 H 0.329113 4.986933 2.643857 0
M  V30 41 H -0.542601 3.420289 3.136489 0
M  V30 42 H 1.248483 3.646152 3.366138 0
M  V30 43 H -1.297458 -3.302366 -1.697955 0
M  V30 44 H -3.458865 -1.903154 -0.313861 0
M  V30 45 H -3.353430 -3.679189 -0.580653 0
M  V30 46 H -4.204687 -2.640585 -1.749361 0
M  V30 47 H -3.703434 -4.114890 -3.067471 0
M  V30 48 H -4.477305 -2.573506 -3.769072 0
M  V30 49 H -3.437157 -3.598799 -4.751844 0
M  V30 50 H -0.289547 -2.280494 -4.107635 0
M  V30 51 H -1.556504 -3.099599 -5.179432 0
M  V30 52 H -0.931688 -3.937424 -3.737530 0
M  V30 53 H -3.697825 -0.753782 -3.355985 0
M  V30 54 H -2.338384 -0.647932 -4.558204 0
M  V30 55 H -1.916881 -1.345403 1.523109 0
M  V30 56 H -0.815055 -2.107188 3.543283 0
M  V30 END ATOM
M  V30 BEGIN BOND
M  V30 1 1 1 2
M  V30 2 1 2 3
M  V30 3 1 3 4
M  V30 4 2 4 5
M  V30 5 1 4 6
M  V30 6 2 6 7
M  V30 7 1 7 8
M  V30 8 2 8 9
M  V30 9 1 9 10
M  V30 10 1 10 11
M  V30 11 1 11 12
M  V30 12 2 12 13
M  V30 13 1 13 14
M  V30 14 2 14 15
M  V30 15 1 15 16
M  V30 16 1 16 17
M  V30 17 2 16 18
M  V30 18 2 11 19
M  V30 19 1 19 20
M  V30 20 1 20 21
M  V30 21 1 21 22
M  V30 22 1 22 23
M  V30 23 1 22 24
M  V30 24 1 24 25
M  V30 25 1 24 26
M  V30 26 1 24 27
M  V30 27 1 9 28
M  V30 28 2 28 29
M  V30 29 1 29 6
M  V30 30 2 21 10
M  V30 31 1 18 12
M  V30 32 1 27 20
M  V30 33 1 1 30
M  V30 34 1 1 31
M  V30 35 1 1 32
M  V30 36 1 2 33
M  V30 37 1 2 34
M  V30 38 1 7 35
M  V30 39 1 8 36
M  V30 40 1 13 37
M  V30 41 1 14 38
M  V30 42 1 15 39
M  V30 43 1 17 40
M  V30 44 1 17 41
M  V30 45 1 17 42
M  V30 46 1 22 43
M  V30 47 1 23 44
M  V30 48 1 23 45
M  V30 49 1 23 46
M  V30 50 1 25 47
M  V30 51 1 25 48
M  V30 52 1 25 49
M  V30 53 1 26 50
M  V30 54 1 26 51
M  V30 55 1 26 52
M  V30 56 1 27 53
M  V30 57 1 27 54
M  V30 58 1 28 55
M  V30 59 1 29 56
M  V30 END BOND
M  V30 END CTAB
M  END
>  <Dataset>  (968) 
ChEMBL_Kinases

>  <Ligand_Instance>  (968) 
nan

>  <PDB_ID>  (968) 
nan

>  <Standardized_SMILES>  (968) 
CCOC(=O)c1ccc(-c2c(-c3cccc(C)n3)nn3c2C(C)C(C)(C)C3)cc1

>  <Name>  (968) 
nan

>  <Pocket>  (968) 
nan

>  <ATP_Site>  (968) 
nan

>  <Peripheral>  (968) 
nan

>  <Num_H_Atoms_ProtBoundConf>  (968) 
nan

>  <Num_Resolved_Atoms>  (968) 
nan

>  <Num_Not_Resolved_Atoms>  (968) 
nan

$$$$
CHEMBL4755663
     RDKit          3D

  0  0  0  0  0  0  0  0  0  0999 V3000
M  V30 BEGIN CTAB
M  V30 COUNTS 53 56 0 0 0
M  V30 BEGIN ATOM
M  V30 1 C 2.265713 -2.749984 6.516746 0
M  V30 2 C 2.665395 -1.434568 5.856553 0
M  V30 3 C 1.881067 -0.342120 6.552198 0
M  V30 4 C 4.139132 -1.228122 6.138895 0
M  V30 5 C 2.450114 -1.482622 4.402820 0
M  V30 6 C 2.769312 -0.351420 3.652115 0
M  V30 7 C 2.579563 -0.363392 2.286017 0
M  V30 8 C 2.085765 -1.437825 1.593284 0
M  V30 9 C 1.868234 -1.495991 0.151981 0
M  V30 10 O 1.404314 -2.550348 -0.384646 0
M  V30 11 N 2.142020 -0.429211 -0.743647 0
M  V30 12 C 1.956882 -0.403306 -2.166686 0
M  V30 13 C 0.534011 -0.231807 -2.580465 0
M  V30 14 C 0.056514 1.071745 -2.737759 0
M  V30 15 C -1.242506 1.266252 -3.117907 0
M  V30 16 C -2.138956 0.258338 -3.363987 0
M  V30 17 C -3.497716 0.605153 -3.765364 0
M  V30 18 N -3.592366 1.568080 -4.717202 0
M  V30 19 C -4.789871 1.984811 -5.179858 0
M  V30 20 N -5.935826 1.440503 -4.694280 0
M  V30 21 C -5.897909 0.473077 -3.740375 0
M  V30 22 N -6.821239 -0.232706 -3.085306 0
M  V30 23 C -6.199827 -1.071074 -2.232318 0
M  V30 24 C -4.826528 -0.904305 -2.336712 0
M  V30 25 C -4.661045 0.064413 -3.283962 0
M  V30 26 C -1.661797 -1.025484 -3.207136 0
M  V30 27 C -0.357452 -1.254282 -2.824997 0
M  V30 28 C 1.775118 -2.548740 2.351430 0
M  V30 29 C 1.951861 -2.572354 3.719295 0
M  V30 30 H 2.941706 -3.564352 6.184559 0
M  V30 31 H 1.188700 -2.970051 6.325421 0
M  V30 32 H 2.357600 -2.670915 7.616207 0
M  V30 33 H 0.843409 -0.673581 6.761232 0
M  V30 34 H 2.342791 -0.096514 7.514695 0
M  V30 35 H 1.814764 0.578362 5.937142 0
M  V30 36 H 4.418523 -1.484122 7.181672 0
M  V30 37 H 4.367347 -0.174759 5.886964 0
M  V30 38 H 4.698431 -1.849861 5.406605 0
M  V30 39 H 3.164966 0.531444 4.145584 0
M  V30 40 H 2.834518 0.517717 1.747245 0
M  V30 41 H 2.528518 0.431180 -0.251298 0
M  V30 42 H 2.518690 0.454615 -2.579553 0
M  V30 43 H 2.317335 -1.333347 -2.662545 0
M  V30 44 H 0.696224 1.944250 -2.564332 0
M  V30 45 H -1.584929 2.297212 -3.232142 0
M  V30 46 H -4.871420 2.754579 -5.941183 0
M  V30 47 H -7.842657 -0.104511 -3.256058 0
M  V30 48 H -6.709719 -1.769586 -1.566523 0
M  V30 49 H -4.073674 -1.422918 -1.792330 0
M  V30 50 H -2.341971 -1.841637 -3.393756 0
M  V30 51 H -0.004311 -2.261718 -2.710335 0
M  V30 52 H 1.370399 -3.485437 1.937116 0
M  V30 53 H 1.708848 -3.442742 4.314488 0
M  V30 END ATOM
M  V30 BEGIN BOND
M  V30 1 1 1 2
M  V30 2 1 2 3
M  V30 3 1 2 4
M  V30 4 1 2 5
M  V30 5 2 5 6
M  V30 6 1 6 7
M  V30 7 2 7 8
M  V30 8 1 8 9
M  V30 9 2 9 10
M  V30 10 1 9 11
M  V30 11 1 11 12
M  V30 12 1 12 13
M  V30 13 2 13 14
M  V30 14 1 14 15
M  V30 15 2 15 16
M  V30 16 1 16 17
M  V30 17 2 17 18
M  V30 18 1 18 19
M  V30 19 2 19 20
M  V30 20 1 20 21
M  V30 21 1 21 22
M  V30 22 1 22 23
M  V30 23 2 23 24
M  V30 24 1 24 25
M  V30 25 1 16 26
M  V30 26 2 26 27
M  V30 27 1 8 28
M  V30 28 2 28 29
M  V30 29 1 29 5
M  V30 30 1 27 13
M  V30 31 1 25 17
M  V30 32 2 25 21
M  V30 33 1 1 30
M  V30 34 1 1 31
M  V30 35 1 1 32
M  V30 36 1 3 33
M  V30 37 1 3 34
M  V30 38 1 3 35
M  V30 39 1 4 36
M  V30 40 1 4 37
M  V30 41 1 4 38
M  V30 42 1 6 39
M  V30 43 1 7 40
M  V30 44 1 11 41
M  V30 45 1 12 42
M  V30 46 1 12 43
M  V30 47 1 14 44
M  V30 48 1 15 45
M  V30 49 1 19 46
M  V30 50 1 22 47
M  V30 51 1 23 48
M  V30 52 1 24 49
M  V30 53 1 26 50
M  V30 54 1 27 51
M  V30 55 1 28 52
M  V30 56 1 29 53
M  V30 END BOND
M  V30 END CTAB
M  END
>  <Dataset>  (969) 
ChEMBL_Kinases

>  <Ligand_Instance>  (969) 
nan

>  <PDB_ID>  (969) 
nan

>  <Standardized_SMILES>  (969) 
CC(C)(C)c1ccc(C(=O)NCc2ccc(-c3ncnc4[nH]ccc34)cc2)cc1

>  <Name>  (969) 
nan

>  <Pocket>  (969) 
nan

>  <ATP_Site>  (969) 
nan

>  <Peripheral>  (969) 
nan

>  <Num_H_Atoms_ProtBoundConf>  (969) 
nan

>  <Num_Resolved_Atoms>  (969) 
nan

>  <Num_Not_Resolved_Atoms>  (969) 
nan

$$$$
CHEMBL4294341
     RDKit          3D

  0  0  0  0  0  0  0  0  0  0999 V3000
M  V30 BEGIN CTAB
M  V30 COUNTS 64 69 0 0 0
M  V30 BEGIN ATOM
M  V30 1 N 1.668202 -3.889131 -4.252563 0
M  V30 2 C 1.952953 -3.206370 -3.374821 0
M  V30 3 C 2.293821 -2.356592 -2.267570 0
M  V30 4 C 3.596430 -2.288019 -1.901556 0
M  V30 5 N 3.927292 -1.485412 -0.852511 0
M  V30 6 C 2.971207 -0.783889 -0.206005 0
M  V30 7 N 3.507509 -0.017952 0.842462 0
M  V30 8 C 3.980112 1.310652 0.593449 0
M  V30 9 C 2.926582 2.213294 0.102714 0
M  V30 10 C 2.822182 2.573880 -1.223045 0
M  V30 11 C 1.815329 3.418677 -1.638701 0
M  V30 12 C 0.900607 3.912229 -0.729820 0
M  V30 13 C 1.036499 3.528399 0.594476 0
M  V30 14 C 2.033118 2.678992 1.068563 0
M  V30 15 C 2.162581 2.290370 2.483353 0
M  V30 16 C 1.481920 1.029742 2.952307 0
M  V30 17 C 0.883280 2.327402 3.285380 0
M  V30 18 N 1.696050 -0.881319 -0.601273 0
M  V30 19 C 1.278085 -1.644437 -1.620921 0
M  V30 20 N -0.057102 -1.733304 -2.060228 0
M  V30 21 C -1.303727 -1.173669 -1.638496 0
M  V30 22 C -1.927748 -1.749104 -0.418299 0 CFG=2
M  V30 23 C -2.183523 -3.230043 -0.702158 0
M  V30 24 C -2.988947 -3.838346 0.432721 0 CFG=2
M  V30 25 C -4.303205 -3.082039 0.654306 0
M  V30 26 C -3.995362 -1.655736 0.980484 0 CFG=2
M  V30 27 C -3.264939 -1.033121 -0.169474 0
M  V30 28 C -3.143868 -1.551030 2.229357 0 CFG=1
M  V30 29 N -3.852060 -2.098602 3.350960 0
M  V30 30 C -1.889455 -2.311824 1.980163 0 CFG=1
M  V30 31 C -2.160977 -3.765635 1.689008 0
M  V30 32 C -1.127554 -1.657088 0.831291 0
M  V30 33 H 4.335238 -2.855570 -2.431962 0
M  V30 34 H 3.417507 -0.690613 1.643276 0
M  V30 35 H 4.408215 1.736676 1.537059 0
M  V30 36 H 4.814690 1.313884 -0.135785 0
M  V30 37 H 3.524476 2.201869 -1.953346 0
M  V30 38 H 1.710002 3.715500 -2.660052 0
M  V30 39 H 0.124993 4.565079 -1.059992 0
M  V30 40 H 0.307446 3.930146 1.283319 0
M  V30 41 H 3.100729 2.605735 3.004262 0
M  V30 42 H 1.938072 0.482690 3.819449 0
M  V30 43 H 1.015065 0.380533 2.179724 0
M  V30 44 H -0.072082 2.602078 2.776175 0
M  V30 45 H 0.974903 2.738578 4.326126 0
M  V30 46 H -0.205886 -2.365805 -2.908186 0
M  V30 47 H -2.054532 -1.144716 -2.473188 0
M  V30 48 H -1.102122 -0.072467 -1.454758 0
M  V30 49 H -2.692622 -3.335466 -1.667037 0
M  V30 50 H -1.191173 -3.727668 -0.656725 0
M  V30 51 H -3.231353 -4.882626 0.132602 0
M  V30 52 H -4.777600 -3.584098 1.524688 0
M  V30 53 H -4.929280 -3.146793 -0.239794 0
M  V30 54 H -4.927998 -1.086979 1.130418 0
M  V30 55 H -3.022099 0.012768 0.040083 0
M  V30 56 H -3.909540 -1.110934 -1.076812 0
M  V30 57 H -2.931829 -0.479385 2.367683 0
M  V30 58 H -3.249393 -2.164379 4.200828 0
M  V30 59 H -4.626634 -1.434586 3.618268 0
M  V30 60 H -1.183212 -2.285563 2.847541 0
M  V30 61 H -2.786178 -4.131214 2.539089 0
M  V30 62 H -1.238921 -4.336208 1.544185 0
M  V30 63 H -0.880067 -0.639214 1.131976 0
M  V30 64 H -0.183642 -2.247605 0.791046 0
M  V30 END ATOM
M  V30 BEGIN BOND
M  V30 1 3 1 2
M  V30 2 1 2 3
M  V30 3 2 3 4
M  V30 4 1 4 5
M  V30 5 2 5 6
M  V30 6 1 6 7
M  V30 7 1 7 8
M  V30 8 1 8 9
M  V30 9 2 9 10
M  V30 10 1 10 11
M  V30 11 2 11 12
M  V30 12 1 12 13
M  V30 13 2 13 14
M  V30 14 1 14 15
M  V30 15 1 15 16
M  V30 16 1 16 17
M  V30 17 1 6 18
M  V30 18 2 18 19
M  V30 19 1 19 20
M  V30 20 1 20 21
M  V30 21 1 22 21 CFG=3
M  V30 22 1 22 23
M  V30 23 1 23 24
M  V30 24 1 24 25
M  V30 25 1 25 26
M  V30 26 1 26 27
M  V30 27 1 26 28
M  V30 28 1 28 29
M  V30 29 1 28 30
M  V30 30 1 30 31
M  V30 31 1 30 32
M  V30 32 1 19 3
M  V30 33 1 27 22
M  V30 34 1 14 9
M  V30 35 1 17 15
M  V30 36 1 32 22
M  V30 37 1 31 24
M  V30 38 1 4 33
M  V30 39 1 7 34
M  V30 40 1 8 35
M  V30 41 1 8 36
M  V30 42 1 10 37
M  V30 43 1 11 38
M  V30 44 1 12 39
M  V30 45 1 13 40
M  V30 46 1 15 41
M  V30 47 1 16 42
M  V30 48 1 16 43
M  V30 49 1 17 44
M  V30 50 1 17 45
M  V30 51 1 20 46
M  V30 52 1 21 47
M  V30 53 1 21 48
M  V30 54 1 23 49
M  V30 55 1 23 50
M  V30 56 1 24 51 CFG=3
M  V30 57 1 25 52
M  V30 58 1 25 53
M  V30 59 1 26 54 CFG=1
M  V30 60 1 27 55
M  V30 61 1 27 56
M  V30 62 1 28 57 CFG=1
M  V30 63 1 29 58
M  V30 64 1 29 59
M  V30 65 1 30 60 CFG=1
M  V30 66 1 31 61
M  V30 67 1 31 62
M  V30 68 1 32 63
M  V30 69 1 32 64
M  V30 END BOND
M  V30 END CTAB
M  END
>  <Dataset>  (970) 
ChEMBL_Kinases

>  <Ligand_Instance>  (970) 
nan

>  <PDB_ID>  (970) 
nan

>  <Standardized_SMILES>  (970) 
N#Cc1cnc(NCc2ccccc2C2CC2)nc1NC[C@]12C[C@@H]3C[C@H](C1)[C@@H](N)[C@@H](C3)C2

>  <Name>  (970) 
nan

>  <Pocket>  (970) 
nan

>  <ATP_Site>  (970) 
nan

>  <Peripheral>  (970) 
nan

>  <Num_H_Atoms_ProtBoundConf>  (970) 
nan

>  <Num_Resolved_Atoms>  (970) 
nan

>  <Num_Not_Resolved_Atoms>  (970) 
nan

$$$$
CHEMBL4294318
     RDKit          3D

  0  0  0  0  0  0  0  0  0  0999 V3000
M  V30 BEGIN CTAB
M  V30 COUNTS 51 53 0 0 0
M  V30 BEGIN ATOM
M  V30 1 C 1.847768 -2.667402 3.662286 0
M  V30 2 O 1.468615 -1.557129 2.900210 0
M  V30 3 C 2.335246 -0.648054 2.349893 0
M  V30 4 C 3.674646 -0.866153 2.578517 0
M  V30 5 C 4.588888 0.014465 2.050063 0
M  V30 6 C 6.035085 -0.173513 2.265435 0
M  V30 7 C 4.109991 1.075442 1.314713 0
M  V30 8 C 4.989160 2.071503 0.707690 0
M  V30 9 N 6.382739 1.970568 0.865606 0
M  V30 10 O 4.600411 3.050104 0.029946 0
M  V30 11 C 2.760366 1.251858 1.113170 0
M  V30 12 C 1.813241 0.394869 1.623867 0
M  V30 13 C 0.427013 0.670685 1.354039 0
M  V30 14 O 0.108488 1.681487 0.661999 0
M  V30 15 N -0.742023 -0.024303 1.743334 0
M  V30 16 C -2.032475 0.431775 1.359582 0
M  V30 17 C -2.851664 1.307505 2.044621 0
M  V30 18 C -4.087139 1.655458 1.536659 0
M  V30 19 C -4.455359 1.098716 0.338974 0
M  V30 20 C -3.659509 0.222268 -0.367214 0
M  V30 21 C -4.097005 -0.343278 -1.638293 0
M  V30 22 N -4.738112 0.162651 -2.707502 0
M  V30 23 N -4.884272 -0.820394 -3.604302 0
M  V30 24 C -4.330265 -1.941212 -3.086804 0
M  V30 25 N -3.842506 -1.647972 -1.870145 0
M  V30 26 C -3.194150 -2.693258 -1.106096 0
M  V30 27 C -4.073317 -3.909272 -1.122025 0
M  V30 28 C -1.866853 -3.071752 -1.739685 0
M  V30 29 N -2.471866 -0.069010 0.189529 0
M  V30 30 H 2.354701 -3.439965 3.037912 0
M  V30 31 H 0.987123 -3.170969 4.144246 0
M  V30 32 H 2.561633 -2.292645 4.452669 0
M  V30 33 H 4.024220 -1.706986 3.159253 0
M  V30 34 H 6.516172 0.660085 2.840175 0
M  V30 35 H 6.617314 -0.341317 1.341861 0
M  V30 36 H 6.209659 -1.081142 2.903525 0
M  V30 37 H 7.404434 1.945490 1.019616 0
M  V30 38 H 7.252134 2.365678 1.321677 0
M  V30 39 H 2.452981 2.107661 0.525195 0
M  V30 40 H -0.605482 -0.879695 2.320691 0
M  V30 41 H -2.427510 1.664698 2.974137 0
M  V30 42 H -4.633131 2.336897 2.148114 0
M  V30 43 H -5.441542 1.400132 -0.029015 0
M  V30 44 H -4.400285 -2.805207 -3.750135 0
M  V30 45 H -3.028992 -2.376475 -0.049053 0
M  V30 46 H -3.442861 -4.802653 -0.875587 0
M  V30 47 H -4.905505 -3.812369 -0.375221 0
M  V30 48 H -4.436568 -4.060770 -2.141114 0
M  V30 49 H -1.933252 -4.024380 -2.289277 0
M  V30 50 H -1.591440 -2.257674 -2.458529 0
M  V30 51 H -1.101241 -3.181753 -0.944547 0
M  V30 END ATOM
M  V30 BEGIN BOND
M  V30 1 1 1 2
M  V30 2 1 2 3
M  V30 3 2 3 4
M  V30 4 1 4 5
M  V30 5 1 5 6
M  V30 6 2 5 7
M  V30 7 1 7 8
M  V30 8 1 8 9
M  V30 9 2 8 10
M  V30 10 1 7 11
M  V30 11 2 11 12
M  V30 12 1 12 13
M  V30 13 2 13 14
M  V30 14 1 13 15
M  V30 15 1 15 16
M  V30 16 2 16 17
M  V30 17 1 17 18
M  V30 18 2 18 19
M  V30 19 1 19 20
M  V30 20 1 20 21
M  V30 21 2 21 22
M  V30 22 1 22 23
M  V30 23 2 23 24
M  V30 24 1 24 25
M  V30 25 1 25 26
M  V30 26 1 26 27
M  V30 27 1 26 28
M  V30 28 2 20 29
M  V30 29 1 12 3
M  V30 30 1 29 16
M  V30 31 1 25 21
M  V30 32 1 1 30
M  V30 33 1 1 31
M  V30 34 1 1 32
M  V30 35 1 4 33
M  V30 36 1 6 34
M  V30 37 1 6 35
M  V30 38 1 6 36
M  V30 39 1 9 37
M  V30 40 1 9 38
M  V30 41 1 11 39
M  V30 42 1 15 40
M  V30 43 1 17 41
M  V30 44 1 18 42
M  V30 45 1 19 43
M  V30 46 1 24 44
M  V30 47 1 26 45
M  V30 48 1 27 46
M  V30 49 1 27 47
M  V30 50 1 27 48
M  V30 51 1 28 49
M  V30 52 1 28 50
M  V30 53 1 28 51
M  V30 END BOND
M  V30 END CTAB
M  END
>  <Dataset>  (971) 
ChEMBL_Kinases

>  <Ligand_Instance>  (971) 
nan

>  <PDB_ID>  (971) 
nan

>  <Standardized_SMILES>  (971) 
COc1cc(C)c(C(N)=O)cc1C(=O)Nc1cccc(-c2nncn2C(C)C)n1

>  <Name>  (971) 
nan

>  <Pocket>  (971) 
nan

>  <ATP_Site>  (971) 
nan

>  <Peripheral>  (971) 
nan

>  <Num_H_Atoms_ProtBoundConf>  (971) 
nan

>  <Num_Resolved_Atoms>  (971) 
nan

>  <Num_Not_Resolved_Atoms>  (971) 
nan

$$$$
CHEMBL4755667
     RDKit          3D

  0  0  0  0  0  0  0  0  0  0999 V3000
M  V30 BEGIN CTAB
M  V30 COUNTS 76 81 0 0 0
M  V30 BEGIN ATOM
M  V30 1 C 1.580101 2.524748 3.258358 0
M  V30 2 C 2.381334 3.347654 2.321273 0
M  V30 3 C 3.495878 2.549373 1.611399 0 CFG=2
M  V30 4 C 4.151930 3.594559 0.727995 0
M  V30 5 N 5.144722 4.456109 1.012658 0
M  V30 6 N 5.287339 5.278377 -0.007427 0
M  V30 7 C 4.382827 4.961621 -0.982890 0
M  V30 8 C 4.298279 5.709764 -2.256315 0
M  V30 9 N 3.695291 3.903841 -0.489011 0
M  V30 10 C 2.742225 3.070451 -1.114342 0
M  V30 11 C 2.250894 3.413370 -2.344656 0
M  V30 12 N 1.344761 2.604576 -2.900314 0
M  V30 13 C 0.897367 1.484338 -2.317272 0
M  V30 14 N -0.056556 0.692031 -3.031549 0
M  V30 15 C -0.765540 -0.443718 -2.591081 0
M  V30 16 C -0.758240 -0.942840 -1.307911 0
M  V30 17 C -1.459249 -2.037480 -0.843214 0
M  V30 18 C -2.253457 -2.706770 -1.762263 0
M  V30 19 C -3.073399 -3.881213 -1.386147 0
M  V30 20 O -3.579462 -4.586751 -2.323110 0
M  V30 21 N -3.341884 -4.283913 -0.055194 0
M  V30 22 C -4.144637 -5.447991 0.230048 0
M  V30 23 C -5.508812 -5.116070 0.807799 0
M  V30 24 C -5.366381 -4.640250 2.203451 0
M  V30 25 N -4.031139 -4.275580 2.593376 0
M  V30 26 C -4.053134 -3.858243 3.982756 0
M  V30 27 C -3.072989 -5.327601 2.412240 0
M  V30 28 C -3.415721 -6.265442 1.270493 0
M  V30 29 C -2.300091 -2.252496 -3.063347 0
M  V30 30 C -1.584654 -1.156851 -3.477907 0
M  V30 31 O -1.649286 -0.724614 -4.776840 0
M  V30 32 C -2.453249 -1.398098 -5.711258 0
M  V30 33 N 1.369242 1.137136 -1.113918 0
M  V30 34 C 2.277392 1.898548 -0.499947 0
M  V30 35 N 2.831649 1.565156 0.798207 0
M  V30 36 C 2.662921 0.142099 1.083221 0
M  V30 37 C 3.344242 -0.290547 2.311847 0
M  V30 38 C 2.999514 -0.488660 3.614204 0
M  V30 39 C 3.832834 -0.890972 4.586436 0
M  V30 40 S 5.420593 -1.079878 3.739235 0
M  V30 41 C 4.778279 -0.579025 2.097134 0
M  V30 42 H 1.135657 1.652714 2.732889 0
M  V30 43 H 2.154159 2.224116 4.164594 0
M  V30 44 H 0.727406 3.144203 3.617135 0
M  V30 45 H 2.834444 4.216970 2.838515 0
M  V30 46 H 1.704220 3.724818 1.511825 0
M  V30 47 H 4.178515 2.143073 2.348061 0
M  V30 48 H 5.089755 6.522614 -2.222137 0
M  V30 49 H 4.582891 5.109358 -3.142846 0
M  V30 50 H 3.348350 6.270319 -2.373130 0
M  V30 51 H 2.476181 4.245896 -2.948018 0
M  V30 52 H -0.264984 0.994808 -4.026339 0
M  V30 53 H -0.166998 -0.471981 -0.547003 0
M  V30 54 H -1.405414 -2.374003 0.178656 0
M  V30 55 H -2.897469 -3.649966 0.637694 0
M  V30 56 H -4.298176 -6.032162 -0.733452 0
M  V30 57 H -6.132163 -4.493733 0.137190 0
M  V30 58 H -6.047026 -6.109110 0.828617 0
M  V30 59 H -5.826521 -5.352148 2.933288 0
M  V30 60 H -5.984340 -3.699171 2.312671 0
M  V30 61 H -5.103074 -3.588877 4.256455 0
M  V30 62 H -3.736567 -4.699990 4.632033 0
M  V30 63 H -3.351261 -3.000104 4.131504 0
M  V30 64 H -2.097519 -4.820029 2.175062 0
M  V30 65 H -2.899463 -5.914512 3.341645 0
M  V30 66 H -2.471568 -6.653221 0.787455 0
M  V30 67 H -4.045821 -7.123323 1.618039 0
M  V30 68 H -2.920941 -2.792361 -3.743471 0
M  V30 69 H -2.679845 -0.730600 -6.596156 0
M  V30 70 H -2.002333 -2.320402 -6.099618 0
M  V30 71 H -3.479335 -1.630389 -5.302666 0
M  V30 72 H 2.978635 -0.477081 0.216088 0
M  V30 73 H 1.559539 -0.086135 1.181518 0
M  V30 74 H 1.953202 -0.291905 3.802068 0
M  V30 75 H 3.611845 -1.057199 5.596827 0
M  V30 76 H 5.406889 -0.519063 1.136242 0
M  V30 END ATOM
M  V30 BEGIN BOND
M  V30 1 1 1 2
M  V30 2 1 2 3
M  V30 3 1 3 4
M  V30 4 2 4 5
M  V30 5 1 5 6
M  V30 6 2 6 7
M  V30 7 1 7 8
M  V30 8 1 7 9
M  V30 9 1 9 10
M  V30 10 2 10 11
M  V30 11 1 11 12
M  V30 12 2 12 13
M  V30 13 1 13 14
M  V30 14 1 14 15
M  V30 15 2 15 16
M  V30 16 1 16 17
M  V30 17 2 17 18
M  V30 18 1 18 19
M  V30 19 2 19 20
M  V30 20 1 19 21
M  V30 21 1 21 22
M  V30 22 1 22 23
M  V30 23 1 23 24
M  V30 24 1 24 25
M  V30 25 1 25 26
M  V30 26 1 25 27
M  V30 27 1 27 28
M  V30 28 1 18 29
M  V30 29 2 29 30
M  V30 30 1 30 31
M  V30 31 1 31 32
M  V30 32 1 13 33
M  V30 33 2 33 34
M  V30 34 1 34 35
M  V30 35 1 35 36
M  V30 36 1 36 37
M  V30 37 1 37 38
M  V30 38 2 38 39
M  V30 39 1 39 40
M  V30 40 1 40 41
M  V30 41 1 35 3
M  V30 42 2 41 37
M  V30 43 1 9 4
M  V30 44 1 34 10
M  V30 45 1 30 15
M  V30 46 1 28 22
M  V30 47 1 1 42
M  V30 48 1 1 43
M  V30 49 1 1 44
M  V30 50 1 2 45
M  V30 51 1 2 46
M  V30 52 1 3 47 CFG=1
M  V30 53 1 8 48
M  V30 54 1 8 49
M  V30 55 1 8 50
M  V30 56 1 11 51
M  V30 57 1 14 52
M  V30 58 1 16 53
M  V30 59 1 17 54
M  V30 60 1 21 55
M  V30 61 1 22 56
M  V30 62 1 23 57
M  V30 63 1 23 58
M  V30 64 1 24 59
M  V30 65 1 24 60
M  V30 66 1 26 61
M  V30 67 1 26 62
M  V30 68 1 26 63
M  V30 69 1 27 64
M  V30 70 1 27 65
M  V30 71 1 28 66
M  V30 72 1 28 67
M  V30 73 1 29 68
M  V30 74 1 32 69
M  V30 75 1 32 70
M  V30 76 1 32 71
M  V30 77 1 36 72
M  V30 78 1 36 73
M  V30 79 1 38 74
M  V30 80 1 39 75
M  V30 81 1 41 76
M  V30 END BOND
M  V30 END CTAB
M  END
>  <Dataset>  (972) 
ChEMBL_Kinases

>  <Ligand_Instance>  (972) 
nan

>  <PDB_ID>  (972) 
nan

>  <Standardized_SMILES>  (972) 
CC[C@@H]1c2nnc(C)n2-c2cnc(Nc3ccc(C(=O)NC4CCN(C)CC4)cc3OC)nc2N1Cc1ccsc1

>  <Name>  (972) 
nan

>  <Pocket>  (972) 
nan

>  <ATP_Site>  (972) 
nan

>  <Peripheral>  (972) 
nan

>  <Num_H_Atoms_ProtBoundConf>  (972) 
nan

>  <Num_Resolved_Atoms>  (972) 
nan

>  <Num_Not_Resolved_Atoms>  (972) 
nan

$$$$
CHEMBL4755685
     RDKit          3D

  0  0  0  0  0  0  0  0  0  0999 V3000
M  V30 BEGIN CTAB
M  V30 COUNTS 79 84 0 0 0
M  V30 BEGIN ATOM
M  V30 1 C 3.103738 1.561141 2.706496 0
M  V30 2 C 4.493899 1.011561 2.609288 0
M  V30 3 C 5.104079 1.184270 1.227543 0 CFG=2
M  V30 4 C 5.155429 2.655609 0.907078 0
M  V30 5 N 6.024476 3.534028 1.398048 0
M  V30 6 N 5.686291 4.740169 0.969070 0
M  V30 7 C 4.574743 4.641548 0.181375 0
M  V30 8 C 3.983279 5.819121 -0.431104 0
M  V30 9 N 4.277043 3.343450 0.163174 0
M  V30 10 C 3.313058 2.608064 -0.549316 0
M  V30 11 C 2.392276 3.315851 -1.277539 0
M  V30 12 N 1.430850 2.641249 -1.970487 0
M  V30 13 C 1.419224 1.281287 -1.913982 0
M  V30 14 N 0.505575 0.412378 -2.554945 0
M  V30 15 C -0.671779 -0.043188 -1.878455 0
M  V30 16 C -0.956704 0.354224 -0.581198 0
M  V30 17 C -2.116956 -0.131728 0.035385 0
M  V30 18 C -2.984060 -0.992017 -0.606225 0
M  V30 19 C -4.167558 -1.463841 0.101672 0
M  V30 20 O -4.316422 -0.969286 1.252629 0
M  V30 21 N -5.094754 -2.398743 -0.424573 0
M  V30 22 C -6.272977 -2.904355 0.223817 0
M  V30 23 C -7.540811 -2.760246 -0.544395 0
M  V30 24 C -8.680122 -3.362218 0.216761 0
M  V30 25 N -8.372542 -3.907676 1.488096 0
M  V30 26 C -8.542415 -3.037176 2.613472 0
M  V30 27 C -7.217261 -4.759341 1.541905 0
M  V30 28 C -6.145433 -4.376717 0.571948 0
M  V30 29 C -2.686912 -1.379106 -1.900426 0
M  V30 30 C -1.541739 -0.913520 -2.540200 0
M  V30 31 O -1.230760 -1.294551 -3.842976 0
M  V30 32 C -2.020516 -2.166180 -4.624322 0
M  V30 33 N 2.323227 0.599200 -1.199522 0
M  V30 34 C 3.279423 1.207147 -0.507137 0
M  V30 35 N 4.271092 0.479081 0.280578 0
M  V30 36 C 4.258478 -0.900650 -0.084737 0
M  V30 37 C 5.301760 -1.649162 0.630711 0
M  V30 38 C 5.290945 -2.400233 1.779099 0
M  V30 39 C 6.425936 -3.013087 2.257281 0
M  V30 40 C 7.638178 -2.908835 1.614456 0
M  V30 41 C 7.681908 -2.149438 0.439936 0
M  V30 42 Br 9.398091 -2.063005 -0.375016 0
M  V30 43 C 6.524790 -1.542204 -0.022122 0
M  V30 44 H 2.461508 1.257207 1.856396 0
M  V30 45 H 3.033196 2.641477 2.827953 0
M  V30 46 H 2.659909 1.136944 3.659012 0
M  V30 47 H 5.180783 1.583091 3.297378 0
M  V30 48 H 4.500213 -0.013633 2.982602 0
M  V30 49 H 6.123674 0.783080 1.155356 0
M  V30 50 H 2.976648 6.001907 0.017965 0
M  V30 51 H 3.951729 5.877086 -1.513744 0
M  V30 52 H 4.540306 6.769602 -0.135022 0
M  V30 53 H 2.262675 4.358447 -1.419827 0
M  V30 54 H 0.696347 0.105239 -3.521375 0
M  V30 55 H -0.282529 1.035578 -0.052937 0
M  V30 56 H -2.258274 0.230699 1.050878 0
M  V30 57 H -4.941727 -2.785679 -1.381468 0
M  V30 58 H -6.372717 -2.386913 1.200657 0
M  V30 59 H -7.398939 -3.355693 -1.494410 0
M  V30 60 H -7.761366 -1.714841 -0.888917 0
M  V30 61 H -9.189909 -4.162404 -0.394375 0
M  V30 62 H -9.499526 -2.608170 0.382024 0
M  V30 63 H -8.916031 -2.024129 2.313069 0
M  V30 64 H -7.649275 -2.981793 3.261614 0
M  V30 65 H -9.349452 -3.435366 3.296814 0
M  V30 66 H -7.592877 -5.803118 1.329653 0
M  V30 67 H -6.787936 -4.774526 2.553754 0
M  V30 68 H -6.276139 -5.024823 -0.336147 0
M  V30 69 H -5.108014 -4.583228 0.929787 0
M  V30 70 H -3.357788 -2.054493 -2.424019 0
M  V30 71 H -3.095096 -1.931716 -4.615258 0
M  V30 72 H -1.680038 -2.035859 -5.691770 0
M  V30 73 H -1.768223 -3.212534 -4.363339 0
M  V30 74 H 3.264930 -1.315287 0.268351 0
M  V30 75 H 4.331353 -1.022815 -1.189624 0
M  V30 76 H 4.298665 -2.422237 2.214377 0
M  V30 77 H 6.221579 -3.569660 3.182442 0
M  V30 78 H 8.436851 -3.439017 2.107628 0
M  V30 79 H 6.767874 -1.001586 -0.942816 0
M  V30 END ATOM
M  V30 BEGIN BOND
M  V30 1 1 1 2
M  V30 2 1 2 3
M  V30 3 1 3 4
M  V30 4 2 4 5
M  V30 5 1 5 6
M  V30 6 2 6 7
M  V30 7 1 7 8
M  V30 8 1 7 9
M  V30 9 1 9 10
M  V30 10 2 10 11
M  V30 11 1 11 12
M  V30 12 2 12 13
M  V30 13 1 13 14
M  V30 14 1 14 15
M  V30 15 2 15 16
M  V30 16 1 16 17
M  V30 17 2 17 18
M  V30 18 1 18 19
M  V30 19 2 19 20
M  V30 20 1 19 21
M  V30 21 1 21 22
M  V30 22 1 22 23
M  V30 23 1 23 24
M  V30 24 1 24 25
M  V30 25 1 25 26
M  V30 26 1 25 27
M  V30 27 1 27 28
M  V30 28 1 18 29
M  V30 29 2 29 30
M  V30 30 1 30 31
M  V30 31 1 31 32
M  V30 32 1 13 33
M  V30 33 2 33 34
M  V30 34 1 34 35
M  V30 35 1 35 36
M  V30 36 1 36 37
M  V30 37 2 37 38
M  V30 38 1 38 39
M  V30 39 2 39 40
M  V30 40 1 40 41
M  V30 41 1 41 42
M  V30 42 2 41 43
M  V30 43 1 35 3
M  V30 44 1 43 37
M  V30 45 1 9 4
M  V30 46 1 34 10
M  V30 47 1 30 15
M  V30 48 1 28 22
M  V30 49 1 1 44
M  V30 50 1 1 45
M  V30 51 1 1 46
M  V30 52 1 2 47
M  V30 53 1 2 48
M  V30 54 1 3 49 CFG=1
M  V30 55 1 8 50
M  V30 56 1 8 51
M  V30 57 1 8 52
M  V30 58 1 11 53
M  V30 59 1 14 54
M  V30 60 1 16 55
M  V30 61 1 17 56
M  V30 62 1 21 57
M  V30 63 1 22 58
M  V30 64 1 23 59
M  V30 65 1 23 60
M  V30 66 1 24 61
M  V30 67 1 24 62
M  V30 68 1 26 63
M  V30 69 1 26 64
M  V30 70 1 26 65
M  V30 71 1 27 66
M  V30 72 1 27 67
M  V30 73 1 28 68
M  V30 74 1 28 69
M  V30 75 1 29 70
M  V30 76 1 32 71
M  V30 77 1 32 72
M  V30 78 1 32 73
M  V30 79 1 36 74
M  V30 80 1 36 75
M  V30 81 1 38 76
M  V30 82 1 39 77
M  V30 83 1 40 78
M  V30 84 1 43 79
M  V30 END BOND
M  V30 END CTAB
M  END
>  <Dataset>  (973) 
ChEMBL_Kinases

>  <Ligand_Instance>  (973) 
nan

>  <PDB_ID>  (973) 
nan

>  <Standardized_SMILES>  (973) 
CC[C@@H]1c2nnc(C)n2-c2cnc(Nc3ccc(C(=O)NC4CCN(C)CC4)cc3OC)nc2N1Cc1cccc(Br)c1

>  <Name>  (973) 
nan

>  <Pocket>  (973) 
nan

>  <ATP_Site>  (973) 
nan

>  <Peripheral>  (973) 
nan

>  <Num_H_Atoms_ProtBoundConf>  (973) 
nan

>  <Num_Resolved_Atoms>  (973) 
nan

>  <Num_Not_Resolved_Atoms>  (973) 
nan

$$$$
CHEMBL4755696
     RDKit          3D

  0  0  0  0  0  0  0  0  0  0999 V3000
M  V30 BEGIN CTAB
M  V30 COUNTS 56 59 0 0 0
M  V30 BEGIN ATOM
M  V30 1 C 1.775287 -1.208478 -2.362354 0
M  V30 2 C 2.325771 -2.190746 -1.368316 0
M  V30 3 C 3.245357 -1.627514 -0.340167 0
M  V30 4 N 1.330223 -3.136070 -0.874817 0
M  V30 5 C 0.785607 -3.089077 0.436863 0
M  V30 6 C 0.734056 -1.871614 1.068997 0
M  V30 7 C 0.218236 -1.793174 2.329967 0
M  V30 8 N 0.123063 -0.581774 3.067267 0
M  V30 9 C 0.426225 0.710643 2.555042 0
M  V30 10 N 1.664677 1.262134 2.424759 0
M  V30 11 C 1.788927 2.504787 1.928423 0
M  V30 12 C 0.686417 3.237400 1.546610 0
M  V30 13 C -0.566594 2.694354 1.673148 0
M  V30 14 C -1.819374 3.358186 1.326134 0
M  V30 15 C -2.995449 2.669073 1.539567 0
M  V30 16 C -4.232229 3.246663 1.226831 0
M  V30 17 C -4.326274 4.526953 0.693196 0
M  V30 18 C -3.100817 5.123137 0.521230 0
M  V30 19 N -3.114426 6.443578 -0.025041 0
M  V30 20 C -1.844329 4.641112 0.795447 0
M  V30 21 N -0.638764 1.442013 2.176695 0
M  V30 22 C -0.231862 -2.951839 2.914659 0
M  V30 23 C -0.171684 -4.173258 2.257160 0
M  V30 24 C 0.341952 -4.294121 0.983273 0
M  V30 25 N 0.446209 -5.482322 0.224874 0
M  V30 26 C -0.041275 -6.704562 0.888833 0
M  V30 27 C 0.986539 -5.525696 -1.093444 0
M  V30 28 O 1.482919 -6.601305 -1.515980 0
M  V30 29 C 0.847443 -4.200576 -1.756117 0 CFG=1
M  V30 30 C -0.562601 -4.037196 -2.194439 0
M  V30 31 H 1.833359 -1.533339 -3.420387 0
M  V30 32 H 0.681783 -1.036556 -2.154770 0
M  V30 33 H 2.329640 -0.228104 -2.328717 0
M  V30 34 H 3.035733 -2.834026 -2.018777 0
M  V30 35 H 3.183660 -0.497924 -0.334061 0
M  V30 36 H 4.349149 -1.774540 -0.585220 0
M  V30 37 H 3.168158 -2.072604 0.670066 0
M  V30 38 H 1.082231 -1.006078 0.570657 0
M  V30 39 H -0.181341 -0.564499 4.045811 0
M  V30 40 H 2.785654 2.924313 1.833316 0
M  V30 41 H 0.756641 4.238178 1.144251 0
M  V30 42 H -3.006226 1.655007 1.958658 0
M  V30 43 H -5.173010 2.700355 1.394798 0
M  V30 44 H -5.242583 5.031535 0.429975 0
M  V30 45 H -2.782908 7.420868 -0.080308 0
M  V30 46 H -3.779919 6.669788 -0.798312 0
M  V30 47 H -0.943829 5.203715 0.617569 0
M  V30 48 H -0.654578 -2.989263 3.908736 0
M  V30 49 H -0.530999 -5.107411 2.718861 0
M  V30 50 H -0.116790 -7.534124 0.176410 0
M  V30 51 H -1.051202 -6.512482 1.328562 0
M  V30 52 H 0.629030 -6.980299 1.711016 0
M  V30 53 H 1.516789 -4.223690 -2.637562 0
M  V30 54 H -0.694321 -3.302889 -3.017069 0
M  V30 55 H -1.267390 -3.822889 -1.391954 0
M  V30 56 H -0.866459 -5.019619 -2.667003 0
M  V30 END ATOM
M  V30 BEGIN BOND
M  V30 1 1 1 2
M  V30 2 1 2 3
M  V30 3 1 2 4
M  V30 4 1 4 5
M  V30 5 2 5 6
M  V30 6 1 6 7
M  V30 7 1 7 8
M  V30 8 1 8 9
M  V30 9 2 9 10
M  V30 10 1 10 11
M  V30 11 2 11 12
M  V30 12 1 12 13
M  V30 13 1 13 14
M  V30 14 2 14 15
M  V30 15 1 15 16
M  V30 16 2 16 17
M  V30 17 1 17 18
M  V30 18 1 18 19
M  V30 19 2 18 20
M  V30 20 2 13 21
M  V30 21 2 7 22
M  V30 22 1 22 23
M  V30 23 2 23 24
M  V30 24 1 24 25
M  V30 25 1 25 26
M  V30 26 1 25 27
M  V30 27 2 27 28
M  V30 28 1 27 29
M  V30 29 1 29 30
M  V30 30 1 29 4
M  V30 31 1 24 5
M  V30 32 1 21 9
M  V30 33 1 20 14
M  V30 34 1 1 31
M  V30 35 1 1 32
M  V30 36 1 1 33
M  V30 37 1 2 34
M  V30 38 1 3 35
M  V30 39 1 3 36
M  V30 40 1 3 37
M  V30 41 1 6 38
M  V30 42 1 8 39
M  V30 43 1 11 40
M  V30 44 1 12 41
M  V30 45 1 15 42
M  V30 46 1 16 43
M  V30 47 1 17 44
M  V30 48 1 19 45
M  V30 49 1 19 46
M  V30 50 1 20 47
M  V30 51 1 22 48
M  V30 52 1 23 49
M  V30 53 1 26 50
M  V30 54 1 26 51
M  V30 55 1 26 52
M  V30 56 1 29 53 CFG=3
M  V30 57 1 30 54
M  V30 58 1 30 55
M  V30 59 1 30 56
M  V30 END BOND
M  V30 END CTAB
M  END
>  <Dataset>  (974) 
ChEMBL_Kinases

>  <Ligand_Instance>  (974) 
nan

>  <PDB_ID>  (974) 
nan

>  <Standardized_SMILES>  (974) 
CC(C)N1c2cc(Nc3nccc(-c4cccc(N)c4)n3)ccc2N(C)C(=O)[C@H]1C

>  <Name>  (974) 
nan

>  <Pocket>  (974) 
nan

>  <ATP_Site>  (974) 
nan

>  <Peripheral>  (974) 
nan

>  <Num_H_Atoms_ProtBoundConf>  (974) 
nan

>  <Num_Resolved_Atoms>  (974) 
nan

>  <Num_Not_Resolved_Atoms>  (974) 
nan

$$$$
CHEMBL4755706
     RDKit          3D

  0  0  0  0  0  0  0  0  0  0999 V3000
M  V30 BEGIN CTAB
M  V30 COUNTS 73 78 0 0 0
M  V30 BEGIN ATOM
M  V30 1 C 5.961586 -1.930105 3.376278 0
M  V30 2 C 4.821739 -1.523213 2.488660 0
M  V30 3 C 5.267316 -1.089514 1.096155 0 CFG=2
M  V30 4 C 6.189149 0.097852 1.276441 0
M  V30 5 N 7.496203 -0.060127 1.635232 0
M  V30 6 N 7.967991 1.183309 1.817127 0
M  V30 7 C 6.973024 2.080905 1.572755 0
M  V30 8 N 5.869629 1.388428 1.233614 0
M  V30 9 C 4.594118 1.751346 0.793459 0
M  V30 10 C 4.255522 3.086684 0.780809 0
M  V30 11 N 3.024040 3.414541 0.366197 0
M  V30 12 C 2.117606 2.505089 -0.031064 0
M  V30 13 N 0.792070 2.815656 -0.510644 0
M  V30 14 C -0.353950 2.000571 -0.571637 0
M  V30 15 C -0.375560 0.751545 0.051233 0
M  V30 16 C -1.639301 0.142067 -0.071633 0
M  V30 17 C -2.756895 0.682861 -0.724874 0
M  V30 18 C -3.778352 -0.272825 -0.529328 0
M  V30 19 O -4.643003 0.232558 -1.398781 0
M  V30 20 N -4.710596 -1.214161 -0.296204 0
M  V30 21 C -6.024831 -1.665134 -0.657257 0
M  V30 22 C -6.014137 -3.091446 -1.168684 0
M  V30 23 C -7.339116 -3.697231 -0.872300 0
M  V30 24 N -7.488311 -3.864684 0.551904 0
M  V30 25 C -6.466078 -4.810814 1.010148 0
M  V30 26 C -7.321894 -2.640365 1.289223 0
M  V30 27 C -7.021025 -1.452041 0.461063 0
M  V30 28 C -2.626190 1.903046 -1.298214 0
M  V30 29 C -1.446042 2.570595 -1.232256 0
M  V30 30 O -1.368781 3.811808 -1.831178 0
M  V30 31 C -2.463056 4.378856 -2.489675 0
M  V30 32 N 2.504372 1.228126 0.001774 0
M  V30 33 C 3.693018 0.758233 0.387153 0
M  V30 34 N 4.092460 -0.621551 0.408442 0
M  V30 35 C 3.161835 -1.389804 -0.402993 0
M  V30 36 C 3.625490 -2.782743 -0.505187 0
M  V30 37 C 3.259704 -3.895568 0.194912 0
M  V30 38 C 3.850210 -5.132347 -0.074649 0
M  V30 39 S 5.047155 -4.749315 -1.439853 0
M  V30 40 C 4.644253 -2.962478 -1.523296 0
M  V30 41 H 5.681793 -2.919031 3.849038 0
M  V30 42 H 6.928734 -2.021360 2.864426 0
M  V30 43 H 6.027433 -1.217600 4.239875 0
M  V30 44 H 4.074206 -2.316360 2.374594 0
M  V30 45 H 4.254144 -0.641491 2.907626 0
M  V30 46 H 5.758777 -1.908256 0.541582 0
M  V30 47 H 6.984516 3.180140 1.618005 0
M  V30 48 H 4.940297 3.862793 1.089829 0
M  V30 49 H 0.788623 3.819170 -0.839858 0
M  V30 50 H 0.475190 0.347243 0.553403 0
M  V30 51 H -1.552800 -0.839261 0.450993 0
M  V30 52 H -4.029153 -1.659099 0.433478 0
M  V30 53 H -6.384340 -1.030804 -1.499549 0
M  V30 54 H -5.228883 -3.697581 -0.642563 0
M  V30 55 H -5.805912 -3.065982 -2.269079 0
M  V30 56 H -8.182592 -3.214424 -1.370807 0
M  V30 57 H -7.305553 -4.749896 -1.293776 0
M  V30 58 H -5.664047 -4.278169 1.581237 0
M  V30 59 H -6.963019 -5.459060 1.761120 0
M  V30 60 H -6.007177 -5.381672 0.207932 0
M  V30 61 H -6.618314 -2.777138 2.144612 0
M  V30 62 H -8.324596 -2.452974 1.782829 0
M  V30 63 H -7.954182 -0.972212 0.111537 0
M  V30 64 H -6.566835 -0.687374 1.162658 0
M  V30 65 H -3.522109 2.232086 -1.766650 0
M  V30 66 H -2.069305 5.189803 -3.168054 0
M  V30 67 H -3.045204 3.673364 -3.120194 0
M  V30 68 H -3.190996 4.887389 -1.821020 0
M  V30 69 H 2.170525 -1.329646 0.105825 0
M  V30 70 H 3.018749 -0.930024 -1.397942 0
M  V30 71 H 2.500849 -3.758604 0.949610 0
M  V30 72 H 3.558280 -6.017336 0.471986 0
M  V30 73 H 5.122264 -2.310871 -2.212446 0
M  V30 END ATOM
M  V30 BEGIN BOND
M  V30 1 1 1 2
M  V30 2 1 2 3
M  V30 3 1 3 4
M  V30 4 2 4 5
M  V30 5 1 5 6
M  V30 6 2 6 7
M  V30 7 1 7 8
M  V30 8 1 8 9
M  V30 9 2 9 10
M  V30 10 1 10 11
M  V30 11 2 11 12
M  V30 12 1 12 13
M  V30 13 1 13 14
M  V30 14 2 14 15
M  V30 15 1 15 16
M  V30 16 2 16 17
M  V30 17 1 17 18
M  V30 18 2 18 19
M  V30 19 1 18 20
M  V30 20 1 20 21
M  V30 21 1 21 22
M  V30 22 1 22 23
M  V30 23 1 23 24
M  V30 24 1 24 25
M  V30 25 1 24 26
M  V30 26 1 26 27
M  V30 27 1 17 28
M  V30 28 2 28 29
M  V30 29 1 29 30
M  V30 30 1 30 31
M  V30 31 1 12 32
M  V30 32 2 32 33
M  V30 33 1 33 34
M  V30 34 1 34 35
M  V30 35 1 35 36
M  V30 36 1 36 37
M  V30 37 2 37 38
M  V30 38 1 38 39
M  V30 39 1 39 40
M  V30 40 1 34 3
M  V30 41 2 40 36
M  V30 42 1 8 4
M  V30 43 1 33 9
M  V30 44 1 29 14
M  V30 45 1 27 21
M  V30 46 1 1 41
M  V30 47 1 1 42
M  V30 48 1 1 43
M  V30 49 1 2 44
M  V30 50 1 2 45
M  V30 51 1 3 46 CFG=3
M  V30 52 1 7 47
M  V30 53 1 10 48
M  V30 54 1 13 49
M  V30 55 1 15 50
M  V30 56 1 16 51
M  V30 57 1 20 52
M  V30 58 1 21 53
M  V30 59 1 22 54
M  V30 60 1 22 55
M  V30 61 1 23 56
M  V30 62 1 23 57
M  V30 63 1 25 58
M  V30 64 1 25 59
M  V30 65 1 25 60
M  V30 66 1 26 61
M  V30 67 1 26 62
M  V30 68 1 27 63
M  V30 69 1 27 64
M  V30 70 1 28 65
M  V30 71 1 31 66
M  V30 72 1 31 67
M  V30 73 1 31 68
M  V30 74 1 35 69
M  V30 75 1 35 70
M  V30 76 1 37 71
M  V30 77 1 38 72
M  V30 78 1 40 73
M  V30 END BOND
M  V30 END CTAB
M  END
>  <Dataset>  (975) 
ChEMBL_Kinases

>  <Ligand_Instance>  (975) 
nan

>  <PDB_ID>  (975) 
nan

>  <Standardized_SMILES>  (975) 
CC[C@@H]1c2nncn2-c2cnc(Nc3ccc(C(=O)NC4CCN(C)CC4)cc3OC)nc2N1Cc1ccsc1

>  <Name>  (975) 
nan

>  <Pocket>  (975) 
nan

>  <ATP_Site>  (975) 
nan

>  <Peripheral>  (975) 
nan

>  <Num_H_Atoms_ProtBoundConf>  (975) 
nan

>  <Num_Resolved_Atoms>  (975) 
nan

>  <Num_Not_Resolved_Atoms>  (975) 
nan

$$$$
CHEMBL4755730
     RDKit          3D

  0  0  0  0  0  0  0  0  0  0999 V3000
M  V30 BEGIN CTAB
M  V30 COUNTS 51 54 0 0 0
M  V30 BEGIN ATOM
M  V30 1 C -0.388547 -4.708355 1.372032 0
M  V30 2 C -0.840280 -3.535712 0.875428 0
M  V30 3 C 0.079325 -2.459185 1.077920 0
M  V30 4 C 1.285755 -2.746131 1.731240 0
M  V30 5 C 2.229789 -1.736774 1.962712 0
M  V30 6 C 1.965989 -0.458228 1.544209 0
M  V30 7 C 0.818078 -0.074847 0.897389 0
M  V30 8 C -0.071407 -1.140044 0.705307 0
M  V30 9 C 0.328512 1.208873 0.361866 0
M  V30 10 C 1.325845 2.293223 0.635423 0
M  V30 11 C 1.675986 2.980297 -0.677922 0
M  V30 12 C 0.620935 3.357810 1.490926 0
M  V30 13 C 2.553688 1.822750 1.325558 0
M  V30 14 C 3.489095 2.842147 1.548397 0
M  V30 15 N 3.380421 4.227182 1.184772 0
M  V30 16 N 4.652891 2.597669 2.164403 0
M  V30 17 C 5.000638 1.396002 2.601159 0
M  V30 18 N 4.122619 0.396342 2.401378 0
M  V30 19 C 2.945470 0.589536 1.790295 0
M  V30 20 C -2.148208 -3.620822 0.250334 0
M  V30 21 C -3.248308 -2.824210 0.917006 0
M  V30 22 C -4.550176 -3.394408 0.338056 0
M  V30 23 N -4.601342 -3.361921 -1.084061 0
M  V30 24 C -3.465145 -3.903566 -1.770905 0
M  V30 25 C -2.196195 -3.237773 -1.212869 0
M  V30 26 H -0.904835 -5.654105 1.338022 0
M  V30 27 H 0.342956 -5.321279 1.876038 0
M  V30 28 H 1.614812 -3.702702 2.108550 0
M  V30 29 H 3.165533 -1.916895 2.459812 0
M  V30 30 H -1.011288 -0.967654 0.209611 0
M  V30 31 H -0.647372 1.492428 0.820022 0
M  V30 32 H 0.202250 1.113068 -0.760818 0
M  V30 33 H 2.679743 2.575035 -0.973291 0
M  V30 34 H 1.683599 4.062042 -0.558375 0
M  V30 35 H 0.948239 2.714876 -1.456531 0
M  V30 36 H -0.259927 2.914716 2.003683 0
M  V30 37 H 0.219369 4.151767 0.832574 0
M  V30 38 H 1.307951 3.687502 2.267977 0
M  V30 39 H 2.997202 5.160203 1.420989 0
M  V30 40 H 3.859722 4.583585 0.304868 0
M  V30 41 H 5.894706 1.066120 3.106308 0
M  V30 42 H -2.516549 -4.695871 0.262091 0
M  V30 43 H -3.204273 -1.770309 0.583018 0
M  V30 44 H -3.297508 -2.927366 2.000521 0
M  V30 45 H -5.422887 -2.830301 0.713524 0
M  V30 46 H -4.608159 -4.451708 0.689281 0
M  V30 47 H -5.067407 -2.564974 -1.523990 0
M  V30 48 H -3.359141 -4.980060 -1.550238 0
M  V30 49 H -3.593536 -3.694080 -2.840067 0
M  V30 50 H -2.419218 -2.137337 -1.252881 0
M  V30 51 H -1.321705 -3.543265 -1.786090 0
M  V30 END ATOM
M  V30 BEGIN BOND
M  V30 1 2 1 2
M  V30 2 1 2 3
M  V30 3 2 3 4
M  V30 4 1 4 5
M  V30 5 2 5 6
M  V30 6 1 6 7
M  V30 7 2 7 8
M  V30 8 1 7 9
M  V30 9 1 9 10
M  V30 10 1 10 11
M  V30 11 1 10 12
M  V30 12 1 10 13
M  V30 13 2 13 14
M  V30 14 1 14 15
M  V30 15 1 14 16
M  V30 16 2 16 17
M  V30 17 1 17 18
M  V30 18 2 18 19
M  V30 19 1 2 20
M  V30 20 1 20 21
M  V30 21 1 21 22
M  V30 22 1 22 23
M  V30 23 1 23 24
M  V30 24 1 24 25
M  V30 25 1 8 3
M  V30 26 1 19 13
M  V30 27 1 25 20
M  V30 28 1 19 6
M  V30 29 1 1 26
M  V30 30 1 1 27
M  V30 31 1 4 28
M  V30 32 1 5 29
M  V30 33 1 8 30
M  V30 34 1 9 31
M  V30 35 1 9 32
M  V30 36 1 11 33
M  V30 37 1 11 34
M  V30 38 1 11 35
M  V30 39 1 12 36
M  V30 40 1 12 37
M  V30 41 1 12 38
M  V30 42 1 15 39
M  V30 43 1 15 40
M  V30 44 1 17 41
M  V30 45 1 20 42
M  V30 46 1 21 43
M  V30 47 1 21 44
M  V30 48 1 22 45
M  V30 49 1 22 46
M  V30 50 1 23 47
M  V30 51 1 24 48
M  V30 52 1 24 49
M  V30 53 1 25 50
M  V30 54 1 25 51
M  V30 END BOND
M  V30 END CTAB
M  END
>  <Dataset>  (976) 
ChEMBL_Kinases

>  <Ligand_Instance>  (976) 
nan

>  <PDB_ID>  (976) 
nan

>  <Standardized_SMILES>  (976) 
C=C(c1ccc2c(c1)CC(C)(C)c1c(N)ncnc1-2)C1CCNCC1

>  <Name>  (976) 
nan

>  <Pocket>  (976) 
nan

>  <ATP_Site>  (976) 
nan

>  <Peripheral>  (976) 
nan

>  <Num_H_Atoms_ProtBoundConf>  (976) 
nan

>  <Num_Resolved_Atoms>  (976) 
nan

>  <Num_Not_Resolved_Atoms>  (976) 
nan

$$$$
CHEMBL4294119
     RDKit          3D

  0  0  0  0  0  0  0  0  0  0999 V3000
M  V30 BEGIN CTAB
M  V30 COUNTS 46 48 0 0 0
M  V30 BEGIN ATOM
M  V30 1 N 1.359699 -1.241908 6.479927 0
M  V30 2 C 1.677717 -1.020890 5.380155 0
M  V30 3 C 2.046023 -0.750857 4.020233 0
M  V30 4 C 3.322932 -1.019031 3.642560 0
M  V30 5 N 3.683876 -0.776766 2.390390 0
M  V30 6 C 2.838557 -0.275138 1.473940 0
M  V30 7 N 3.332482 -0.059835 0.166230 0
M  V30 8 C 2.694195 0.487759 -0.977466 0
M  V30 9 C 3.281222 0.564174 -2.217872 0
M  V30 10 C 2.671145 1.097617 -3.324991 0
M  V30 11 C 1.402927 1.597573 -3.245429 0
M  V30 12 C 0.762946 1.549297 -2.029585 0
M  V30 13 Br -1.002857 2.257569 -1.962204 0
M  V30 14 C 1.413498 1.007930 -0.956432 0
M  V30 15 N 1.589398 -0.024476 1.885004 0
M  V30 16 C 1.155331 -0.243444 3.129898 0
M  V30 17 N -0.171661 0.032472 3.556114 0
M  V30 18 C -1.213637 0.567829 2.699394 0
M  V30 19 C -1.471009 -0.441593 1.619009 0 CFG=1
M  V30 20 C -1.927341 -1.778717 2.221365 0
M  V30 21 C -1.641571 -2.778722 1.145616 0
M  V30 22 C -2.080227 -2.398533 -0.208641 0 CFG=2
M  V30 23 N -0.962624 -2.671922 -1.130005 0
M  V30 24 C -2.613822 -1.061033 -0.447754 0
M  V30 25 C -2.585307 -0.091833 0.693674 0
M  V30 26 H 4.031538 -1.420516 4.342803 0
M  V30 27 H 4.327639 -0.333291 -0.040641 0
M  V30 28 H 4.298140 0.175298 -2.329650 0
M  V30 29 H 3.213974 1.111971 -4.252082 0
M  V30 30 H 0.955731 2.007937 -4.132996 0
M  V30 31 H 0.823713 1.023683 -0.058241 0
M  V30 32 H -0.452783 -0.147151 4.535248 0
M  V30 33 H -2.102120 0.870546 3.245384 0
M  V30 34 H -0.732339 1.438885 2.177720 0
M  V30 35 H -0.549931 -0.594428 1.029664 0
M  V30 36 H -3.018392 -1.727917 2.436639 0
M  V30 37 H -1.370427 -2.027979 3.135965 0
M  V30 38 H -0.532380 -2.968426 1.203016 0
M  V30 39 H -2.094342 -3.745000 1.509598 0
M  V30 40 H -2.843751 -3.160322 -0.534590 0
M  V30 41 H -0.311955 -3.387209 -0.716266 0
M  V30 42 H -0.392822 -1.789942 -1.196161 0
M  V30 43 H -2.088447 -0.567562 -1.294593 0
M  V30 44 H -3.687765 -1.084932 -0.800705 0
M  V30 45 H -3.550342 -0.204700 1.270542 0
M  V30 46 H -2.596536 0.957067 0.354117 0
M  V30 END ATOM
M  V30 BEGIN BOND
M  V30 1 3 1 2
M  V30 2 1 2 3
M  V30 3 2 3 4
M  V30 4 1 4 5
M  V30 5 2 5 6
M  V30 6 1 6 7
M  V30 7 1 7 8
M  V30 8 2 8 9
M  V30 9 1 9 10
M  V30 10 2 10 11
M  V30 11 1 11 12
M  V30 12 1 12 13
M  V30 13 2 12 14
M  V30 14 1 6 15
M  V30 15 2 15 16
M  V30 16 1 16 17
M  V30 17 1 17 18
M  V30 18 1 18 19
M  V30 19 1 19 20
M  V30 20 1 20 21
M  V30 21 1 21 22
M  V30 22 1 22 23
M  V30 23 1 22 24
M  V30 24 1 24 25
M  V30 25 1 16 3
M  V30 26 1 25 19
M  V30 27 1 14 8
M  V30 28 1 4 26
M  V30 29 1 7 27
M  V30 30 1 9 28
M  V30 31 1 10 29
M  V30 32 1 11 30
M  V30 33 1 14 31
M  V30 34 1 17 32
M  V30 35 1 18 33
M  V30 36 1 18 34
M  V30 37 1 19 35 CFG=3
M  V30 38 1 20 36
M  V30 39 1 20 37
M  V30 40 1 21 38
M  V30 41 1 21 39
M  V30 42 1 22 40 CFG=3
M  V30 43 1 23 41
M  V30 44 1 23 42
M  V30 45 1 24 43
M  V30 46 1 24 44
M  V30 47 1 25 45
M  V30 48 1 25 46
M  V30 END BOND
M  V30 END CTAB
M  END
>  <Dataset>  (977) 
ChEMBL_Kinases

>  <Ligand_Instance>  (977) 
nan

>  <PDB_ID>  (977) 
nan

>  <Standardized_SMILES>  (977) 
N#Cc1cnc(Nc2cccc(Br)c2)nc1NC[C@H]1CC[C@H](N)CC1

>  <Name>  (977) 
nan

>  <Pocket>  (977) 
nan

>  <ATP_Site>  (977) 
nan

>  <Peripheral>  (977) 
nan

>  <Num_H_Atoms_ProtBoundConf>  (977) 
nan

>  <Num_Resolved_Atoms>  (977) 
nan

>  <Num_Not_Resolved_Atoms>  (977) 
nan

$$$$
CHEMBL4754003
     RDKit          3D

  0  0  0  0  0  0  0  0  0  0999 V3000
M  V30 BEGIN CTAB
M  V30 COUNTS 58 63 0 0 0
M  V30 BEGIN ATOM
M  V30 1 C 2.178868 -2.227392 4.252183 0
M  V30 2 N 3.148516 -2.777534 3.308716 0
M  V30 3 C 4.420136 -2.094281 3.403825 0
M  V30 4 C 4.653858 -1.145942 2.251183 0
M  V30 5 N 4.671553 -1.817522 0.984708 0
M  V30 6 C 4.552092 -0.980861 -0.145922 0
M  V30 7 C 3.345059 -0.161677 -0.256842 0
M  V30 8 C 3.167660 1.122283 0.223344 0
M  V30 9 C 1.972766 1.792730 0.056077 0
M  V30 10 C 0.907720 1.204207 -0.598550 0
M  V30 11 C -0.385155 1.853243 -0.813857 0
M  V30 12 C -0.507997 3.216288 -0.992774 0
M  V30 13 N -1.740289 3.747052 -1.185451 0
M  V30 14 C -2.866314 2.997165 -1.210897 0
M  V30 15 N -4.175679 3.259523 -1.379093 0
M  V30 16 C -4.892352 2.121341 -1.314618 0
M  V30 17 C -4.027158 1.068832 -1.096082 0
M  V30 18 C -4.430333 -0.317278 -0.965312 0
M  V30 19 C -5.333074 -0.949859 -1.815967 0
M  V30 20 C -5.646504 -2.277772 -1.595105 0
M  V30 21 C -5.090286 -2.998218 -0.554260 0
M  V30 22 N -5.244920 -4.291451 -0.147294 0
M  V30 23 N -4.476265 -4.486870 0.919086 0
M  V30 24 C -3.819223 -3.350226 1.222740 0
M  V30 25 C -4.188839 -2.392029 0.306877 0
M  V30 26 C -3.872588 -1.051702 0.084104 0
M  V30 27 C -2.756956 1.613248 -1.030667 0
M  V30 28 C -1.511233 1.052049 -0.832971 0
M  V30 29 C 1.072041 -0.097328 -1.091192 0
M  V30 30 C 2.283079 -0.784234 -0.924908 0
M  V30 31 C 3.802916 -2.953154 1.024916 0
M  V30 32 C 2.655429 -2.627092 1.946961 0
M  V30 33 H 1.294939 -2.885185 4.260903 0
M  V30 34 H 2.607085 -2.128837 5.253348 0
M  V30 35 H 1.809529 -1.227921 3.903655 0
M  V30 36 H 5.226812 -2.828562 3.416736 0
M  V30 37 H 4.442647 -1.498725 4.333617 0
M  V30 38 H 5.657586 -0.706114 2.422078 0
M  V30 39 H 3.938798 -0.290673 2.267949 0
M  V30 40 H 5.416394 -0.254309 -0.110400 0
M  V30 41 H 4.708250 -1.564593 -1.063892 0
M  V30 42 H 4.013712 1.563498 0.732325 0
M  V30 43 H 1.845215 2.800666 0.437155 0
M  V30 44 H 0.397162 3.804924 -0.969798 0
M  V30 45 H -4.529866 4.249313 -1.537278 0
M  V30 46 H -5.967549 2.135882 -1.428516 0
M  V30 47 H -5.761543 -0.376803 -2.626034 0
M  V30 48 H -6.348171 -2.792686 -2.244626 0
M  V30 49 H -5.875911 -5.009525 -0.612555 0
M  V30 50 H -3.107003 -3.169538 2.042490 0
M  V30 51 H -3.164234 -0.678350 0.810066 0
M  V30 52 H -1.420808 -0.017346 -0.693206 0
M  V30 53 H 0.277627 -0.642322 -1.625473 0
M  V30 54 H 2.356873 -1.798114 -1.329386 0
M  V30 55 H 3.516081 -3.370767 0.063233 0
M  V30 56 H 4.398371 -3.769902 1.531142 0
M  V30 57 H 2.347780 -1.542997 1.881467 0
M  V30 58 H 1.798307 -3.304406 1.739309 0
M  V30 END ATOM
M  V30 BEGIN BOND
M  V30 1 1 1 2
M  V30 2 1 2 3
M  V30 3 1 3 4
M  V30 4 1 4 5
M  V30 5 1 5 6
M  V30 6 1 6 7
M  V30 7 2 7 8
M  V30 8 1 8 9
M  V30 9 2 9 10
M  V30 10 1 10 11
M  V30 11 2 11 12
M  V30 12 1 12 13
M  V30 13 2 13 14
M  V30 14 1 14 15
M  V30 15 1 15 16
M  V30 16 2 16 17
M  V30 17 1 17 18
M  V30 18 2 18 19
M  V30 19 1 19 20
M  V30 20 2 20 21
M  V30 21 1 21 22
M  V30 22 1 22 23
M  V30 23 2 23 24
M  V30 24 1 24 25
M  V30 25 2 25 26
M  V30 26 1 17 27
M  V30 27 2 27 28
M  V30 28 1 10 29
M  V30 29 2 29 30
M  V30 30 1 5 31
M  V30 31 1 31 32
M  V30 32 1 32 2
M  V30 33 1 30 7
M  V30 34 1 28 11
M  V30 35 1 27 14
M  V30 36 1 26 18
M  V30 37 1 25 21
M  V30 38 1 1 33
M  V30 39 1 1 34
M  V30 40 1 1 35
M  V30 41 1 3 36
M  V30 42 1 3 37
M  V30 43 1 4 38
M  V30 44 1 4 39
M  V30 45 1 6 40
M  V30 46 1 6 41
M  V30 47 1 8 42
M  V30 48 1 9 43
M  V30 49 1 12 44
M  V30 50 1 15 45
M  V30 51 1 16 46
M  V30 52 1 19 47
M  V30 53 1 20 48
M  V30 54 1 22 49
M  V30 55 1 24 50
M  V30 56 1 26 51
M  V30 57 1 28 52
M  V30 58 1 29 53
M  V30 59 1 30 54
M  V30 60 1 31 55
M  V30 61 1 31 56
M  V30 62 1 32 57
M  V30 63 1 32 58
M  V30 END BOND
M  V30 END CTAB
M  END
>  <Dataset>  (978) 
ChEMBL_Kinases

>  <Ligand_Instance>  (978) 
nan

>  <PDB_ID>  (978) 
nan

>  <Standardized_SMILES>  (978) 
CN1CCN(Cc2ccc(-c3cnc4[nH]cc(-c5ccc6[nH]ncc6c5)c4c3)cc2)CC1

>  <Name>  (978) 
nan

>  <Pocket>  (978) 
nan

>  <ATP_Site>  (978) 
nan

>  <Peripheral>  (978) 
nan

>  <Num_H_Atoms_ProtBoundConf>  (978) 
nan

>  <Num_Resolved_Atoms>  (978) 
nan

>  <Num_Not_Resolved_Atoms>  (978) 
nan

$$$$
CHEMBL4755796
     RDKit          3D

  0  0  0  0  0  0  0  0  0  0999 V3000
M  V30 BEGIN CTAB
M  V30 COUNTS 26 28 0 0 0
M  V30 BEGIN ATOM
M  V30 1 N 0.630210 -3.602562 4.794864 0
M  V30 2 C 0.525560 -2.694597 4.078735 0
M  V30 3 C 0.395657 -1.577223 3.198527 0
M  V30 4 N 1.381341 -1.323165 2.317940 0
M  V30 5 C 1.283306 -0.253864 1.471180 0
M  V30 6 N 2.215522 0.178558 0.463099 0
M  V30 7 C 1.572275 -0.292708 -0.738721 0
M  V30 8 C 0.904059 0.806624 -1.273588 0
M  V30 9 C 0.156796 0.679276 -2.459342 0
M  V30 10 C 0.119645 -0.585992 -3.066116 0
M  V30 11 C 0.789285 -1.668708 -2.523946 0
M  V30 12 C 1.518000 -1.542601 -1.364986 0
M  V30 13 N 0.174844 0.472252 1.596631 0
M  V30 14 C -0.840055 0.258508 2.462753 0
M  V30 15 N -2.007777 0.955157 2.644835 0
M  V30 16 C -2.606494 0.274976 3.622180 0
M  V30 17 N -1.878498 -0.769741 4.031625 0
M  V30 18 C -0.750569 -0.814437 3.319562 0
M  V30 19 H 3.090133 0.683027 0.633414 0
M  V30 20 H 0.845526 1.825356 -0.915927 0
M  V30 21 H -0.390154 1.506242 -2.929250 0
M  V30 22 H -0.435936 -0.769078 -3.992734 0
M  V30 23 H 0.815142 -2.671880 -2.923192 0
M  V30 24 H 2.095641 -2.236365 -0.784004 0
M  V30 25 H -2.239559 1.803358 2.072968 0
M  V30 26 H -3.587940 0.622657 3.981636 0
M  V30 END ATOM
M  V30 BEGIN BOND
M  V30 1 3 1 2
M  V30 2 1 2 3
M  V30 3 2 3 4
M  V30 4 1 4 5
M  V30 5 1 5 6
M  V30 6 1 6 7
M  V30 7 2 7 8
M  V30 8 1 8 9
M  V30 9 2 9 10
M  V30 10 1 10 11
M  V30 11 2 11 12
M  V30 12 2 5 13
M  V30 13 1 13 14
M  V30 14 1 14 15
M  V30 15 1 15 16
M  V30 16 2 16 17
M  V30 17 1 17 18
M  V30 18 1 18 3
M  V30 19 1 12 7
M  V30 20 2 18 14
M  V30 21 1 6 19
M  V30 22 1 8 20
M  V30 23 1 9 21
M  V30 24 1 10 22
M  V30 25 1 11 23
M  V30 26 1 12 24
M  V30 27 1 15 25
M  V30 28 1 16 26
M  V30 END BOND
M  V30 END CTAB
M  END
>  <Dataset>  (979) 
ChEMBL_Kinases

>  <Ligand_Instance>  (979) 
nan

>  <PDB_ID>  (979) 
nan

>  <Standardized_SMILES>  (979) 
N#Cc1nc(Nc2ccccc2)nc2[nH]cnc12

>  <Name>  (979) 
nan

>  <Pocket>  (979) 
nan

>  <ATP_Site>  (979) 
nan

>  <Peripheral>  (979) 
nan

>  <Num_H_Atoms_ProtBoundConf>  (979) 
nan

>  <Num_Resolved_Atoms>  (979) 
nan

>  <Num_Not_Resolved_Atoms>  (979) 
nan

$$$$
CHEMBL4294049
     RDKit          3D

  0  0  0  0  0  0  0  0  0  0999 V3000
M  V30 BEGIN CTAB
M  V30 COUNTS 45 48 0 0 0
M  V30 BEGIN ATOM
M  V30 1 C 2.621227 -2.991949 8.211165 0
M  V30 2 O 3.229190 -3.181633 6.969296 0
M  V30 3 C 2.988938 -2.380065 5.864425 0
M  V30 4 C 2.125081 -1.305871 5.861463 0
M  V30 5 C 1.908217 -0.528416 4.745668 0
M  V30 6 C 2.568407 -0.799447 3.540472 0
M  V30 7 C 2.230344 0.112897 2.458627 0
M  V30 8 O 1.402816 1.082563 2.585366 0
M  V30 9 N 2.712974 0.115905 1.136168 0
M  V30 10 C 2.226582 1.126871 0.241954 0
M  V30 11 C 2.870307 2.360582 0.113377 0
M  V30 12 N 2.368138 3.286371 -0.749515 0
M  V30 13 C 1.254185 3.020516 -1.480365 0
M  V30 14 C 0.652793 1.806285 -1.328755 0
M  V30 15 C -0.568522 1.613121 -2.179799 0
M  V30 16 C -1.372357 0.440591 -2.207053 0
M  V30 17 C -2.442239 0.487424 -3.062589 0
M  V30 18 C -3.338630 -0.686904 -3.160646 0
M  V30 19 C -3.960254 -0.952575 -4.362868 0
M  V30 20 C -4.801960 -2.048135 -4.469234 0
M  V30 21 C -5.008556 -2.860900 -3.370790 0
M  V30 22 N -4.395460 -2.594856 -2.193399 0
M  V30 23 C -3.576117 -1.531893 -2.082643 0
M  V30 24 C -2.665457 1.626255 -3.816440 0
M  V30 25 S -1.222400 2.705188 -3.244617 0
M  V30 26 C 1.092776 0.820342 -0.483618 0
M  V30 27 C 3.426354 -1.874343 3.561253 0
M  V30 28 F 4.046283 -2.116551 2.402350 0
M  V30 29 C 3.639263 -2.647842 4.679024 0
M  V30 30 H 1.551304 -2.655087 8.117436 0
M  V30 31 H 2.696755 -3.907931 8.829012 0
M  V30 32 H 3.120604 -2.172604 8.792557 0
M  V30 33 H 1.598726 -1.066940 6.772057 0
M  V30 34 H 1.198878 0.306920 4.845874 0
M  V30 35 H 3.403410 -0.619480 0.868690 0
M  V30 36 H 3.755013 2.526224 0.717079 0
M  V30 37 H 0.931267 3.817162 -2.137971 0
M  V30 38 H -1.084704 -0.378331 -1.566021 0
M  V30 39 H -3.808372 -0.322764 -5.237223 0
M  V30 40 H -5.276454 -2.232775 -5.424582 0
M  V30 41 H -5.663478 -3.705555 -3.469468 0
M  V30 42 H -3.048479 -1.246881 -1.185756 0
M  V30 43 H -3.475187 1.768384 -4.518158 0
M  V30 44 H 0.572380 -0.122977 -0.407260 0
M  V30 45 H 4.345246 -3.463896 4.545603 0
M  V30 END ATOM
M  V30 BEGIN BOND
M  V30 1 1 1 2
M  V30 2 1 2 3
M  V30 3 2 3 4
M  V30 4 1 4 5
M  V30 5 2 5 6
M  V30 6 1 6 7
M  V30 7 2 7 8
M  V30 8 1 7 9
M  V30 9 1 9 10
M  V30 10 2 10 11
M  V30 11 1 11 12
M  V30 12 2 12 13
M  V30 13 1 13 14
M  V30 14 1 14 15
M  V30 15 2 15 16
M  V30 16 1 16 17
M  V30 17 1 17 18
M  V30 18 2 18 19
M  V30 19 1 19 20
M  V30 20 2 20 21
M  V30 21 1 21 22
M  V30 22 2 22 23
M  V30 23 2 17 24
M  V30 24 1 24 25
M  V30 25 2 14 26
M  V30 26 1 6 27
M  V30 27 1 27 28
M  V30 28 2 27 29
M  V30 29 1 29 3
M  V30 30 1 26 10
M  V30 31 1 25 15
M  V30 32 1 23 18
M  V30 33 1 1 30
M  V30 34 1 1 31
M  V30 35 1 1 32
M  V30 36 1 4 33
M  V30 37 1 5 34
M  V30 38 1 9 35
M  V30 39 1 11 36
M  V30 40 1 13 37
M  V30 41 1 16 38
M  V30 42 1 19 39
M  V30 43 1 20 40
M  V30 44 1 21 41
M  V30 45 1 23 42
M  V30 46 1 24 43
M  V30 47 1 26 44
M  V30 48 1 29 45
M  V30 END BOND
M  V30 END CTAB
M  END
>  <Dataset>  (980) 
ChEMBL_Kinases

>  <Ligand_Instance>  (980) 
nan

>  <PDB_ID>  (980) 
nan

>  <Standardized_SMILES>  (980) 
COc1ccc(C(=O)Nc2cncc(-c3cc(-c4cccnc4)cs3)c2)c(F)c1

>  <Name>  (980) 
nan

>  <Pocket>  (980) 
nan

>  <ATP_Site>  (980) 
nan

>  <Peripheral>  (980) 
nan

>  <Num_H_Atoms_ProtBoundConf>  (980) 
nan

>  <Num_Resolved_Atoms>  (980) 
nan

>  <Num_Not_Resolved_Atoms>  (980) 
nan

$$$$
CHEMBL4293947
     RDKit          3D

  0  0  0  0  0  0  0  0  0  0999 V3000
M  V30 BEGIN CTAB
M  V30 COUNTS 57 61 0 0 0
M  V30 BEGIN ATOM
M  V30 1 N 1.747493 -3.321700 4.507629 0
M  V30 2 C 1.640582 -2.390507 3.815224 0
M  V30 3 C 1.508407 -1.235984 2.976442 0
M  V30 4 C 1.806506 0.002252 3.490687 0
M  V30 5 N 1.667079 1.049706 2.666574 0
M  V30 6 C 1.263773 0.983918 1.393427 0
M  V30 7 N 1.111747 2.078403 0.512656 0
M  V30 8 C 1.359733 3.473681 0.778016 0
M  V30 9 C 2.791720 3.640366 1.124787 0
M  V30 10 C 3.683514 3.810331 0.065610 0
M  V30 11 C 5.062912 3.990524 0.222976 0
M  V30 12 C 5.530553 3.995187 1.501681 0
M  V30 13 C 4.698034 3.832144 2.589155 0
M  V30 14 Cl 5.287442 3.835775 4.248575 0
M  V30 15 C 3.358337 3.660721 2.362385 0
M  V30 16 N 0.990321 -0.247200 0.955798 0
M  V30 17 C 1.083163 -1.380157 1.660855 0
M  V30 18 N 0.797783 -2.662539 1.121543 0
M  V30 19 C 0.339671 -3.058910 -0.181025 0
M  V30 20 C -1.090310 -2.794221 -0.497503 0 CFG=2
M  V30 21 C -1.545279 -1.381922 -0.441139 0
M  V30 22 C -3.008545 -1.319744 -0.877572 0 CFG=2
M  V30 23 C -3.883945 -2.093108 0.089057 0
M  V30 24 C -3.417577 -3.517429 0.109730 0 CFG=2
M  V30 25 C -1.957798 -3.568358 0.506612 0
M  V30 26 C -3.525323 -4.172396 -1.251539 0 CFG=1
M  V30 27 N -4.878837 -4.482719 -1.606968 0
M  V30 28 C -2.809398 -3.330250 -2.255557 0 CFG=1
M  V30 29 C -3.239555 -1.873766 -2.254371 0
M  V30 30 C -1.339913 -3.322756 -1.905758 0
M  V30 31 H 2.135067 0.086841 4.516651 0
M  V30 32 H 0.773456 1.878618 -0.476326 0
M  V30 33 H 1.165691 4.118102 -0.090476 0
M  V30 34 H 0.704939 3.866238 1.591316 0
M  V30 35 H 3.352164 3.813539 -0.982518 0
M  V30 36 H 5.704502 4.116405 -0.615125 0
M  V30 37 H 6.577320 4.128092 1.703545 0
M  V30 38 H 2.713204 3.542634 3.200391 0
M  V30 39 H 0.945731 -3.476064 1.795861 0
M  V30 40 H 0.978876 -2.570088 -0.988253 0
M  V30 41 H 0.553589 -4.153315 -0.355542 0
M  V30 42 H -0.985798 -0.653801 -1.022801 0
M  V30 43 H -1.577078 -1.024363 0.620139 0
M  V30 44 H -3.309484 -0.255200 -0.853077 0
M  V30 45 H -4.915510 -2.003041 -0.260875 0
M  V30 46 H -3.833052 -1.703057 1.109820 0
M  V30 47 H -3.967991 -4.124061 0.835737 0
M  V30 48 H -1.609356 -4.621227 0.576648 0
M  V30 49 H -1.851884 -3.007155 1.466484 0
M  V30 50 H -2.962761 -5.125739 -1.167482 0
M  V30 51 H -5.111346 -5.425374 -1.265382 0
M  V30 52 H -4.958110 -4.482780 -2.647855 0
M  V30 53 H -2.917866 -3.721241 -3.277409 0
M  V30 54 H -2.581808 -1.354715 -2.967426 0
M  V30 55 H -4.294452 -1.721149 -2.494141 0
M  V30 56 H -0.833899 -4.277182 -2.105485 0
M  V30 57 H -0.864422 -2.564014 -2.583314 0
M  V30 END ATOM
M  V30 BEGIN BOND
M  V30 1 3 1 2
M  V30 2 1 2 3
M  V30 3 2 3 4
M  V30 4 1 4 5
M  V30 5 2 5 6
M  V30 6 1 6 7
M  V30 7 1 7 8
M  V30 8 1 8 9
M  V30 9 2 9 10
M  V30 10 1 10 11
M  V30 11 2 11 12
M  V30 12 1 12 13
M  V30 13 1 13 14
M  V30 14 2 13 15
M  V30 15 1 6 16
M  V30 16 2 16 17
M  V30 17 1 17 18
M  V30 18 1 18 19
M  V30 19 1 20 19 CFG=1
M  V30 20 1 20 21
M  V30 21 1 21 22
M  V30 22 1 22 23
M  V30 23 1 23 24
M  V30 24 1 24 25
M  V30 25 1 24 26
M  V30 26 1 26 27
M  V30 27 1 26 28
M  V30 28 1 28 29
M  V30 29 1 28 30
M  V30 30 1 17 3
M  V30 31 1 25 20
M  V30 32 1 15 9
M  V30 33 1 30 20
M  V30 34 1 29 22
M  V30 35 1 4 31
M  V30 36 1 7 32
M  V30 37 1 8 33
M  V30 38 1 8 34
M  V30 39 1 10 35
M  V30 40 1 11 36
M  V30 41 1 12 37
M  V30 42 1 15 38
M  V30 43 1 18 39
M  V30 44 1 19 40
M  V30 45 1 19 41
M  V30 46 1 21 42
M  V30 47 1 21 43
M  V30 48 1 22 44 CFG=3
M  V30 49 1 23 45
M  V30 50 1 23 46
M  V30 51 1 24 47 CFG=1
M  V30 52 1 25 48
M  V30 53 1 25 49
M  V30 54 1 26 50 CFG=1
M  V30 55 1 27 51
M  V30 56 1 27 52
M  V30 57 1 28 53 CFG=3
M  V30 58 1 29 54
M  V30 59 1 29 55
M  V30 60 1 30 56
M  V30 61 1 30 57
M  V30 END BOND
M  V30 END CTAB
M  END
>  <Dataset>  (981) 
ChEMBL_Kinases

>  <Ligand_Instance>  (981) 
nan

>  <PDB_ID>  (981) 
nan

>  <Standardized_SMILES>  (981) 
N#Cc1cnc(NCc2cccc(Cl)c2)nc1NC[C@]12C[C@@H]3C[C@H](C1)[C@@H](N)[C@@H](C3)C2

>  <Name>  (981) 
nan

>  <Pocket>  (981) 
nan

>  <ATP_Site>  (981) 
nan

>  <Peripheral>  (981) 
nan

>  <Num_H_Atoms_ProtBoundConf>  (981) 
nan

>  <Num_Resolved_Atoms>  (981) 
nan

>  <Num_Not_Resolved_Atoms>  (981) 
nan

$$$$
CHEMBL4293924
     RDKit          3D

  0  0  0  0  0  0  0  0  0  0999 V3000
M  V30 BEGIN CTAB
M  V30 COUNTS 44 46 0 0 0
M  V30 BEGIN ATOM
M  V30 1 C 2.816675 -3.955509 1.014637 0
M  V30 2 C 3.848487 -3.520386 -0.034236 0
M  V30 3 C 3.114502 -3.298579 -1.299834 0
M  V30 4 N 4.576395 -2.423234 0.504741 0
M  V30 5 C 5.725314 -2.470412 1.214131 0
M  V30 6 N 6.035593 -1.196553 1.507896 0
M  V30 7 N 5.128385 -0.396382 1.008342 0
M  V30 8 C 4.186911 -1.141773 0.364761 0
M  V30 9 C 3.040226 -0.524970 -0.298011 0
M  V30 10 C 3.193097 0.003218 -1.585947 0
M  V30 11 C 2.173798 0.606094 -2.298247 0
M  V30 12 C 0.950214 0.656007 -1.634103 0
M  V30 13 C 0.768360 0.145584 -0.367814 0
M  V30 14 N -0.515119 0.236273 0.242398 0
M  V30 15 C -1.163134 1.184389 1.061432 0
M  V30 16 O -0.485354 2.206112 1.344864 0
M  V30 17 C -2.527252 0.895890 1.492029 0
M  V30 18 C -3.301284 -0.210453 1.202459 0
M  V30 19 C -4.579749 -0.310879 1.702242 0
M  V30 20 C -5.155052 0.656384 2.500562 0
M  V30 21 C -4.362532 1.750181 2.774978 0
M  V30 22 C -4.944182 2.800493 3.623131 0
M  V30 23 N -4.198140 3.973453 3.962755 0
M  V30 24 O -6.118870 2.647257 4.047734 0
M  V30 25 C -3.078170 1.878365 2.288347 0
M  V30 26 N 1.812279 -0.429755 0.266764 0
M  V30 27 H 2.086903 -4.619548 0.498363 0
M  V30 28 H 3.280720 -4.542104 1.830108 0
M  V30 29 H 2.230823 -3.102367 1.400691 0
M  V30 30 H 4.483195 -4.445480 -0.162093 0
M  V30 31 H 3.705821 -2.826234 -2.108856 0
M  V30 32 H 2.101360 -2.821040 -1.160628 0
M  V30 33 H 2.853889 -4.302540 -1.714753 0
M  V30 34 H 6.292046 -3.353085 1.495794 0
M  V30 35 H 4.175811 -0.062285 -2.062047 0
M  V30 36 H 2.354172 0.994232 -3.287846 0
M  V30 37 H 0.123635 1.118256 -2.151654 0
M  V30 38 H -0.904243 -0.666622 -0.099437 0
M  V30 39 H -2.808753 -0.939385 0.575138 0
M  V30 40 H -5.113700 -1.219323 1.420234 0
M  V30 41 H -6.159178 0.551365 2.878304 0
M  V30 42 H -3.777311 4.616649 3.271100 0
M  V30 43 H -3.913405 4.399846 3.073245 0
M  V30 44 H -2.555296 2.788031 2.575914 0
M  V30 END ATOM
M  V30 BEGIN BOND
M  V30 1 1 1 2
M  V30 2 1 2 3
M  V30 3 1 2 4
M  V30 4 1 4 5
M  V30 5 2 5 6
M  V30 6 1 6 7
M  V30 7 2 7 8
M  V30 8 1 8 9
M  V30 9 2 9 10
M  V30 10 1 10 11
M  V30 11 2 11 12
M  V30 12 1 12 13
M  V30 13 1 13 14
M  V30 14 1 14 15
M  V30 15 2 15 16
M  V30 16 1 15 17
M  V30 17 2 17 18
M  V30 18 1 18 19
M  V30 19 2 19 20
M  V30 20 1 20 21
M  V30 21 1 21 22
M  V30 22 1 22 23
M  V30 23 2 22 24
M  V30 24 2 21 25
M  V30 25 2 13 26
M  V30 26 1 8 4
M  V30 27 1 26 9
M  V30 28 1 25 17
M  V30 29 1 1 27
M  V30 30 1 1 28
M  V30 31 1 1 29
M  V30 32 1 2 30
M  V30 33 1 3 31
M  V30 34 1 3 32
M  V30 35 1 3 33
M  V30 36 1 5 34
M  V30 37 1 10 35
M  V30 38 1 11 36
M  V30 39 1 12 37
M  V30 40 1 14 38
M  V30 41 1 18 39
M  V30 42 1 19 40
M  V30 43 1 20 41
M  V30 44 1 23 42
M  V30 45 1 23 43
M  V30 46 1 25 44
M  V30 END BOND
M  V30 END CTAB
M  END
>  <Dataset>  (982) 
ChEMBL_Kinases

>  <Ligand_Instance>  (982) 
nan

>  <PDB_ID>  (982) 
nan

>  <Standardized_SMILES>  (982) 
CC(C)n1cnnc1-c1cccc(NC(=O)c2cccc(C(N)=O)c2)n1

>  <Name>  (982) 
nan

>  <Pocket>  (982) 
nan

>  <ATP_Site>  (982) 
nan

>  <Peripheral>  (982) 
nan

>  <Num_H_Atoms_ProtBoundConf>  (982) 
nan

>  <Num_Resolved_Atoms>  (982) 
nan

>  <Num_Not_Resolved_Atoms>  (982) 
nan

$$$$
CHEMBL4755816
     RDKit          3D

  0  0  0  0  0  0  0  0  0  0999 V3000
M  V30 BEGIN CTAB
M  V30 COUNTS 57 60 0 0 0
M  V30 BEGIN ATOM
M  V30 1 C 0.429521 -6.955163 2.724566 0
M  V30 2 C 1.485800 -5.937698 2.853216 0
M  V30 3 C 2.475860 -6.171782 3.775611 0
M  V30 4 C 3.528726 -5.312649 3.950385 0
M  V30 5 F 4.466218 -5.608956 4.877994 0
M  V30 6 C 3.566442 -4.197087 3.167261 0
M  V30 7 C 2.560927 -3.991767 2.255155 0
M  V30 8 C 1.482579 -4.831602 2.048674 0
M  V30 9 C 0.556725 -4.437831 1.028012 0
M  V30 10 C -0.726445 -4.829879 0.774652 0
M  V30 11 C -1.587886 -4.402312 -0.200852 0
M  V30 12 N -1.090029 -3.438631 -1.047142 0
M  V30 13 C 0.190062 -3.004443 -0.843388 0
M  V30 14 N 0.796381 -2.016176 -1.677521 0
M  V30 15 C 0.718376 -0.597100 -1.694493 0
M  V30 16 C 1.508136 0.156460 -2.547924 0
M  V30 17 C 1.334331 1.522744 -2.483216 0
M  V30 18 C 0.440939 2.144045 -1.636952 0
M  V30 19 C -0.335158 1.378778 -0.798963 0
M  V30 20 C -0.186278 -0.013727 -0.834017 0
M  V30 21 N -1.305804 2.001865 0.068623 0
M  V30 22 C -2.498631 1.372964 0.397900 0
M  V30 23 C -3.047980 0.088821 0.138129 0
M  V30 24 C -3.596067 2.355361 -0.111617 0
M  V30 25 C -0.880593 3.348569 0.507264 0 CFG=2
M  V30 26 C -1.852853 4.080762 1.343640 0
M  V30 27 C -0.592991 4.187264 -0.688447 0
M  V30 28 O -0.994037 5.337920 -1.077038 0
M  V30 29 N 0.324468 3.584507 -1.598090 0
M  V30 30 C 1.164038 4.358327 -2.509705 0
M  V30 31 N 0.951373 -3.492614 0.147332 0
M  V30 32 H 0.811850 -7.914639 3.195970 0
M  V30 33 H 0.234137 -7.279977 1.676050 0
M  V30 34 H -0.501025 -6.732120 3.240233 0
M  V30 35 H 2.441357 -7.071669 4.403796 0
M  V30 36 H 4.382507 -3.531514 3.303692 0
M  V30 37 H 2.704191 -3.059774 1.684710 0
M  V30 38 H -1.166760 -5.556954 1.425042 0
M  V30 39 H -2.589261 -4.779693 -0.313251 0
M  V30 40 H 1.377994 -2.528181 -2.358395 0
M  V30 41 H 2.203469 -0.343744 -3.205619 0
M  V30 42 H 1.958902 2.091078 -3.155849 0
M  V30 43 H -0.800146 -0.574292 -0.156905 0
M  V30 44 H -2.566484 1.475222 1.513647 0
M  V30 45 H -2.878540 -0.737711 0.899997 0
M  V30 46 H -3.036031 -0.320298 -0.916653 0
M  V30 47 H -4.179955 0.169993 0.256165 0
M  V30 48 H -4.141585 1.889842 -0.991465 0
M  V30 49 H -4.380322 2.469772 0.642592 0
M  V30 50 H -3.178806 3.271185 -0.538112 0
M  V30 51 H 0.054203 3.194099 1.079626 0
M  V30 52 H -2.603263 3.467385 1.884731 0
M  V30 53 H -1.261929 4.541094 2.195624 0
M  V30 54 H -2.314757 4.979213 0.875074 0
M  V30 55 H 0.818025 4.266513 -3.558233 0
M  V30 56 H 2.222718 3.991592 -2.471006 0
M  V30 57 H 1.165377 5.430854 -2.229422 0
M  V30 END ATOM
M  V30 BEGIN BOND
M  V30 1 1 1 2
M  V30 2 2 2 3
M  V30 3 1 3 4
M  V30 4 1 4 5
M  V30 5 2 4 6
M  V30 6 1 6 7
M  V30 7 2 7 8
M  V30 8 1 8 9
M  V30 9 2 9 10
M  V30 10 1 10 11
M  V30 11 2 11 12
M  V30 12 1 12 13
M  V30 13 1 13 14
M  V30 14 1 14 15
M  V30 15 2 15 16
M  V30 16 1 16 17
M  V30 17 2 17 18
M  V30 18 1 18 19
M  V30 19 2 19 20
M  V30 20 1 19 21
M  V30 21 1 21 22
M  V30 22 1 22 23
M  V30 23 1 22 24
M  V30 24 1 21 25
M  V30 25 1 25 26
M  V30 26 1 25 27
M  V30 27 2 27 28
M  V30 28 1 27 29
M  V30 29 1 29 30
M  V30 30 2 13 31
M  V30 31 1 8 2
M  V30 32 1 31 9
M  V30 33 1 20 15
M  V30 34 1 29 18
M  V30 35 1 1 32
M  V30 36 1 1 33
M  V30 37 1 1 34
M  V30 38 1 3 35
M  V30 39 1 6 36
M  V30 40 1 7 37
M  V30 41 1 10 38
M  V30 42 1 11 39
M  V30 43 1 14 40
M  V30 44 1 16 41
M  V30 45 1 17 42
M  V30 46 1 20 43
M  V30 47 1 22 44
M  V30 48 1 23 45
M  V30 49 1 23 46
M  V30 50 1 23 47
M  V30 51 1 24 48
M  V30 52 1 24 49
M  V30 53 1 24 50
M  V30 54 1 25 51 CFG=1
M  V30 55 1 26 52
M  V30 56 1 26 53
M  V30 57 1 26 54
M  V30 58 1 30 55
M  V30 59 1 30 56
M  V30 60 1 30 57
M  V30 END BOND
M  V30 END CTAB
M  END
>  <Dataset>  (983) 
ChEMBL_Kinases

>  <Ligand_Instance>  (983) 
nan

>  <PDB_ID>  (983) 
nan

>  <Standardized_SMILES>  (983) 
Cc1cc(F)ccc1-c1ccnc(Nc2ccc3c(c2)N(C(C)C)[C@H](C)C(=O)N3C)n1

>  <Name>  (983) 
nan

>  <Pocket>  (983) 
nan

>  <ATP_Site>  (983) 
nan

>  <Peripheral>  (983) 
nan

>  <Num_H_Atoms_ProtBoundConf>  (983) 
nan

>  <Num_Resolved_Atoms>  (983) 
nan

>  <Num_Not_Resolved_Atoms>  (983) 
nan

$$$$
CHEMBL4293751
     RDKit          3D

  0  0  0  0  0  0  0  0  0  0999 V3000
M  V30 BEGIN CTAB
M  V30 COUNTS 39 42 0 0 0
M  V30 BEGIN ATOM
M  V30 1 O -1.270823 -4.791587 7.188349 0
M  V30 2 C -0.879206 -4.366786 6.070675 0
M  V30 3 N -0.717163 -5.069980 4.926166 0
M  V30 4 C -0.282208 -4.189895 4.001673 0
M  V30 5 C 0.041257 -4.343149 2.687349 0
M  V30 6 C 0.459887 -3.231060 2.003327 0
M  V30 7 C 0.593800 -1.951335 2.501431 0
M  V30 8 C 1.044381 -0.800036 1.727772 0
M  V30 9 N 1.304014 -1.132777 0.508661 0
M  V30 10 N 1.757969 -0.229865 -0.470525 0
M  V30 11 C 1.944167 1.017255 -0.191528 0
M  V30 12 N 2.403144 1.820795 -1.266727 0
M  V30 13 C 2.009863 1.623542 -2.646056 0
M  V30 14 C 0.547877 1.784049 -2.804612 0
M  V30 15 C 0.196223 3.101186 -3.066144 0
M  V30 16 C -1.130983 3.460502 -3.249607 0
M  V30 17 C -2.137099 2.517481 -3.176912 0
M  V30 18 C -1.766115 1.210291 -2.915437 0
M  V30 19 F -2.638431 0.173767 -2.814337 0
M  V30 20 C -0.461087 0.852270 -2.734234 0
M  V30 21 S 1.683004 1.821547 1.406713 0
M  V30 22 C 1.107011 0.493031 2.499779 0
M  V30 23 C 0.243048 -1.882301 3.851211 0
M  V30 24 C -0.182839 -2.962697 4.586689 0
M  V30 25 N -0.553627 -3.066649 5.876305 0
M  V30 26 H -0.899718 -6.092054 4.807863 0
M  V30 27 H -0.032341 -5.303694 2.213888 0
M  V30 28 H 0.710149 -3.399319 0.948292 0
M  V30 29 H 3.076896 2.627370 -1.091090 0
M  V30 30 H 2.577285 2.234667 -3.344255 0
M  V30 31 H 2.249784 0.555412 -2.895895 0
M  V30 32 H 0.856522 3.947934 -3.153527 0
M  V30 33 H -1.477290 4.463848 -3.456030 0
M  V30 34 H -3.197148 2.666041 -3.299295 0
M  V30 35 H -0.112907 -0.138165 -2.531903 0
M  V30 36 H 0.040230 0.741011 2.746494 0
M  V30 37 H 1.745604 0.402331 3.383943 0
M  V30 38 H 0.309704 -0.914975 4.355572 0
M  V30 39 H -0.575871 -2.288814 6.562076 0
M  V30 END ATOM
M  V30 BEGIN BOND
M  V30 1 2 1 2
M  V30 2 1 2 3
M  V30 3 1 3 4
M  V30 4 2 4 5
M  V30 5 1 5 6
M  V30 6 2 6 7
M  V30 7 1 7 8
M  V30 8 2 8 9
M  V30 9 1 9 10
M  V30 10 2 10 11
M  V30 11 1 11 12
M  V30 12 1 12 13
M  V30 13 1 13 14
M  V30 14 2 14 15
M  V30 15 1 15 16
M  V30 16 2 16 17
M  V30 17 1 17 18
M  V30 18 1 18 19
M  V30 19 2 18 20
M  V30 20 1 11 21
M  V30 21 1 21 22
M  V30 22 1 7 23
M  V30 23 2 23 24
M  V30 24 1 24 25
M  V30 25 1 25 2
M  V30 26 1 24 4
M  V30 27 1 22 8
M  V30 28 1 20 14
M  V30 29 1 3 26
M  V30 30 1 5 27
M  V30 31 1 6 28
M  V30 32 1 12 29
M  V30 33 1 13 30
M  V30 34 1 13 31
M  V30 35 1 15 32
M  V30 36 1 16 33
M  V30 37 1 17 34
M  V30 38 1 20 35
M  V30 39 1 22 36
M  V30 40 1 22 37
M  V30 41 1 23 38
M  V30 42 1 25 39
M  V30 END BOND
M  V30 END CTAB
M  END
>  <Dataset>  (984) 
ChEMBL_Kinases

>  <Ligand_Instance>  (984) 
nan

>  <PDB_ID>  (984) 
nan

>  <Standardized_SMILES>  (984) 
O=c1[nH]c2ccc(C3=NN=C(NCc4cccc(F)c4)SC3)cc2[nH]1

>  <Name>  (984) 
nan

>  <Pocket>  (984) 
nan

>  <ATP_Site>  (984) 
nan

>  <Peripheral>  (984) 
nan

>  <Num_H_Atoms_ProtBoundConf>  (984) 
nan

>  <Num_Resolved_Atoms>  (984) 
nan

>  <Num_Not_Resolved_Atoms>  (984) 
nan

$$$$
CHEMBL4293599
     RDKit          3D

  0  0  0  0  0  0  0  0  0  0999 V3000
M  V30 BEGIN CTAB
M  V30 COUNTS 62 65 0 0 0
M  V30 BEGIN ATOM
M  V30 1 C 3.528868 1.297119 0.730305 0
M  V30 2 C 4.067757 0.390294 1.780969 0
M  V30 3 C 3.095229 -0.598633 2.337292 0 CFG=1
M  V30 4 C 1.890492 0.096257 2.972181 0
M  V30 5 O 1.185174 -0.860534 3.691946 0
M  V30 6 N 2.679236 -1.633704 1.483605 0
M  V30 7 C 1.931045 -1.882265 0.311269 0
M  V30 8 C 1.192958 -0.958803 -0.389182 0
M  V30 9 C 0.465442 -1.152807 -1.540588 0
M  V30 10 N -0.261823 -0.156455 -2.222296 0
M  V30 11 C -0.524145 1.227369 -2.020720 0
M  V30 12 C -1.361689 1.560410 -0.852262 0
M  V30 13 C -1.090236 1.914372 0.448156 0
M  V30 14 C -2.096402 2.163663 1.353284 0
M  V30 15 C -3.429361 2.075849 1.018014 0
M  V30 16 C -4.505888 2.337618 1.961835 0
M  V30 17 C -4.316052 2.698037 3.277657 0
M  V30 18 C -5.366425 2.940699 4.149265 0
M  V30 19 C -6.662445 2.822638 3.703010 0
M  V30 20 C -6.843080 2.460502 2.380818 0
M  V30 21 N -5.793176 2.234689 1.570604 0
M  V30 22 C -3.735476 1.723226 -0.278083 0
M  V30 23 C -2.717518 1.467816 -1.205251 0
M  V30 24 C 0.515342 -2.456985 -2.010840 0
M  V30 25 N -0.028903 -3.074608 -3.068584 0
M  V30 26 C 0.354745 -4.362380 -3.040729 0
M  V30 27 N 1.134934 -4.584820 -1.985710 0
M  V30 28 C 1.746497 -5.825952 -1.601995 0
M  V30 29 C 2.521209 -5.697704 -0.329606 0
M  V30 30 C 0.710849 -6.917674 -1.376275 0
M  V30 31 C 1.234999 -3.413742 -1.350512 0
M  V30 32 N 1.904896 -3.107724 -0.237419 0
M  V30 33 H 2.521235 1.699970 0.967244 0
M  V30 34 H 4.180597 2.193576 0.622924 0
M  V30 35 H 3.467008 0.807105 -0.253210 0
M  V30 36 H 4.909321 -0.221674 1.342340 0
M  V30 37 H 4.510893 1.042457 2.572094 0
M  V30 38 H 3.618244 -1.059242 3.241575 0
M  V30 39 H 2.229916 0.863505 3.710560 0
M  V30 40 H 1.223790 0.567125 2.234981 0
M  V30 41 H 0.534143 -0.459737 4.320616 0
M  V30 42 H 3.074379 -2.552408 1.863739 0
M  V30 43 H 1.130179 0.055314 -0.051695 0
M  V30 44 H -0.742466 -0.513697 -3.108475 0
M  V30 45 H 0.487055 1.733480 -1.858636 0
M  V30 46 H -0.896164 1.717649 -2.942683 0
M  V30 47 H -0.032117 1.970985 0.631664 0
M  V30 48 H -1.797659 2.431010 2.338758 0
M  V30 49 H -3.307477 2.797263 3.653233 0
M  V30 50 H -5.202829 3.221754 5.175323 0
M  V30 51 H -7.555722 2.992987 4.313016 0
M  V30 52 H -7.861267 2.363469 2.012686 0
M  V30 53 H -4.786366 1.657716 -0.530081 0
M  V30 54 H -3.130527 1.201589 -2.184359 0
M  V30 55 H 0.097444 -5.140692 -3.743864 0
M  V30 56 H 2.444743 -6.113315 -2.402755 0
M  V30 57 H 3.428993 -5.091058 -0.485754 0
M  V30 58 H 1.907170 -5.363110 0.523428 0
M  V30 59 H 2.874212 -6.736923 -0.049690 0
M  V30 60 H 0.003114 -7.012212 -2.214341 0
M  V30 61 H 0.156464 -6.740054 -0.442924 0
M  V30 62 H 1.285459 -7.860838 -1.232162 0
M  V30 END ATOM
M  V30 BEGIN BOND
M  V30 1 1 1 2
M  V30 2 1 2 3
M  V30 3 1 3 4
M  V30 4 1 4 5
M  V30 5 1 3 6
M  V30 6 1 6 7
M  V30 7 2 7 8
M  V30 8 1 8 9
M  V30 9 1 9 10
M  V30 10 1 10 11
M  V30 11 1 11 12
M  V30 12 2 12 13
M  V30 13 1 13 14
M  V30 14 2 14 15
M  V30 15 1 15 16
M  V30 16 2 16 17
M  V30 17 1 17 18
M  V30 18 2 18 19
M  V30 19 1 19 20
M  V30 20 2 20 21
M  V30 21 1 15 22
M  V30 22 2 22 23
M  V30 23 2 9 24
M  V30 24 1 24 25
M  V30 25 2 25 26
M  V30 26 1 26 27
M  V30 27 1 27 28
M  V30 28 1 28 29
M  V30 29 1 28 30
M  V30 30 1 27 31
M  V30 31 2 31 32
M  V30 32 1 32 7
M  V30 33 1 23 12
M  V30 34 1 31 24
M  V30 35 1 21 16
M  V30 36 1 1 33
M  V30 37 1 1 34
M  V30 38 1 1 35
M  V30 39 1 2 36
M  V30 40 1 2 37
M  V30 41 1 3 38 CFG=1
M  V30 42 1 4 39
M  V30 43 1 4 40
M  V30 44 1 5 41
M  V30 45 1 6 42
M  V30 46 1 8 43
M  V30 47 1 10 44
M  V30 48 1 11 45
M  V30 49 1 11 46
M  V30 50 1 13 47
M  V30 51 1 14 48
M  V30 52 1 17 49
M  V30 53 1 18 50
M  V30 54 1 19 51
M  V30 55 1 20 52
M  V30 56 1 22 53
M  V30 57 1 23 54
M  V30 58 1 26 55
M  V30 59 1 28 56
M  V30 60 1 29 57
M  V30 61 1 29 58
M  V30 62 1 29 59
M  V30 63 1 30 60
M  V30 64 1 30 61
M  V30 65 1 30 62
M  V30 END BOND
M  V30 END CTAB
M  END
>  <Dataset>  (985) 
ChEMBL_Kinases

>  <Ligand_Instance>  (985) 
nan

>  <PDB_ID>  (985) 
nan

>  <Standardized_SMILES>  (985) 
CC[C@@H](CO)Nc1cc(NCc2ccc(-c3ccccn3)cc2)c2ncn(C(C)C)c2n1

>  <Name>  (985) 
nan

>  <Pocket>  (985) 
nan

>  <ATP_Site>  (985) 
nan

>  <Peripheral>  (985) 
nan

>  <Num_H_Atoms_ProtBoundConf>  (985) 
nan

>  <Num_Resolved_Atoms>  (985) 
nan

>  <Num_Not_Resolved_Atoms>  (985) 
nan

$$$$
CHEMBL4755864
     RDKit          3D

  0  0  0  0  0  0  0  0  0  0999 V3000
M  V30 BEGIN CTAB
M  V30 COUNTS 56 59 0 0 0
M  V30 BEGIN ATOM
M  V30 1 N 7.664617 -5.130060 1.793427 0
M  V30 2 C 7.022889 -4.218057 1.448536 0
M  V30 3 C 6.252287 -3.097464 1.018238 0
M  V30 4 C 4.932870 -3.312778 0.684833 0
M  V30 5 N 4.140678 -2.289012 0.268718 0
M  V30 6 C 4.613952 -1.012952 0.163915 0
M  V30 7 N 3.781162 0.059226 -0.266537 0
M  V30 8 C 2.443016 -0.360773 -0.564033 0
M  V30 9 C 1.483156 -0.471222 0.420571 0
M  V30 10 C 0.171002 -0.857812 0.233158 0
M  V30 11 N -0.736652 -0.973844 1.313949 0
M  V30 12 C -0.655292 -0.715930 2.717424 0
M  V30 13 C -0.789416 0.706548 3.143280 0
M  V30 14 C 0.198845 1.674901 2.626153 0
M  V30 15 C -0.021486 3.039789 3.241341 0
M  V30 16 N -1.368378 3.506284 3.201051 0
M  V30 17 C -2.323822 2.527396 3.679506 0
M  V30 18 C -2.204544 1.220973 2.940548 0
M  V30 19 C -0.154200 -1.147629 -1.068847 0
M  V30 20 C -1.490309 -1.563035 -1.443438 0
M  V30 21 O -2.604424 -1.773383 -0.919241 0
M  V30 22 N -1.829845 -1.873057 -2.799349 0
M  V30 23 C -3.223384 -2.250607 -2.847271 0
M  V30 24 C -4.231771 -1.300206 -3.060217 0
M  V30 25 C -5.555420 -1.735957 -3.094668 0
M  V30 26 C -5.816358 -3.075156 -2.918891 0
M  V30 27 C -4.808984 -4.021042 -2.706642 0
M  V30 28 C -3.505655 -3.572693 -2.675594 0
M  V30 29 C 0.773413 -1.049035 -2.067372 0
M  V30 30 N 2.032930 -0.665875 -1.814281 0
M  V30 31 C 5.931840 -0.833184 0.503397 0
M  V30 32 N 6.730248 -1.845311 0.919028 0
M  V30 33 H 4.513103 -4.320561 0.754722 0
M  V30 34 H 4.215061 0.999630 -0.317766 0
M  V30 35 H 1.877667 -0.234957 1.391317 0
M  V30 36 H -1.686750 -1.320614 1.062367 0
M  V30 37 H 0.309977 -1.096682 3.155091 0
M  V30 38 H -1.431857 -1.286171 3.283615 0
M  V30 39 H -0.662568 0.693398 4.267931 0
M  V30 40 H 0.148389 1.836980 1.527150 0
M  V30 41 H 1.211255 1.357187 2.973930 0
M  V30 42 H 0.438431 3.123109 4.246287 0
M  V30 43 H 0.570538 3.760546 2.601296 0
M  V30 44 H -1.672398 3.923721 2.313077 0
M  V30 45 H -3.339491 2.929338 3.493098 0
M  V30 46 H -2.239929 2.345692 4.770744 0
M  V30 47 H -2.394521 1.314579 1.874723 0
M  V30 48 H -2.869895 0.485459 3.456525 0
M  V30 49 H -1.143276 -1.824578 -3.616437 0
M  V30 50 H -3.957577 -0.256950 -3.192296 0
M  V30 51 H -6.339708 -1.028433 -3.255713 0
M  V30 52 H -6.870065 -3.370290 -2.954371 0
M  V30 53 H -5.148251 -5.039698 -2.583682 0
M  V30 54 H -2.733932 -4.313101 -2.511022 0
M  V30 55 H 0.669966 -1.238807 -3.111339 0
M  V30 56 H 6.306367 0.166291 0.422907 0
M  V30 END ATOM
M  V30 BEGIN BOND
M  V30 1 3 1 2
M  V30 2 1 2 3
M  V30 3 2 3 4
M  V30 4 1 4 5
M  V30 5 2 5 6
M  V30 6 1 6 7
M  V30 7 1 7 8
M  V30 8 2 8 9
M  V30 9 1 9 10
M  V30 10 1 10 11
M  V30 11 1 11 12
M  V30 12 1 12 13
M  V30 13 1 13 14
M  V30 14 1 14 15
M  V30 15 1 15 16
M  V30 16 1 16 17
M  V30 17 1 17 18
M  V30 18 2 10 19
M  V30 19 1 19 20
M  V30 20 2 20 21
M  V30 21 1 20 22
M  V30 22 1 22 23
M  V30 23 2 23 24
M  V30 24 1 24 25
M  V30 25 2 25 26
M  V30 26 1 26 27
M  V30 27 2 27 28
M  V30 28 1 19 29
M  V30 29 2 29 30
M  V30 30 1 6 31
M  V30 31 2 31 32
M  V30 32 1 32 3
M  V30 33 1 30 8
M  V30 34 1 18 13
M  V30 35 1 28 23
M  V30 36 1 4 33
M  V30 37 1 7 34
M  V30 38 1 9 35
M  V30 39 1 11 36
M  V30 40 1 12 37
M  V30 41 1 12 38
M  V30 42 1 13 39
M  V30 43 1 14 40
M  V30 44 1 14 41
M  V30 45 1 15 42
M  V30 46 1 15 43
M  V30 47 1 16 44
M  V30 48 1 17 45
M  V30 49 1 17 46
M  V30 50 1 18 47
M  V30 51 1 18 48
M  V30 52 1 22 49
M  V30 53 1 24 50
M  V30 54 1 25 51
M  V30 55 1 26 52
M  V30 56 1 27 53
M  V30 57 1 28 54
M  V30 58 1 29 55
M  V30 59 1 31 56
M  V30 END BOND
M  V30 END CTAB
M  END
>  <Dataset>  (986) 
ChEMBL_Kinases

>  <Ligand_Instance>  (986) 
nan

>  <PDB_ID>  (986) 
nan

>  <Standardized_SMILES>  (986) 
N#Cc1cnc(Nc2cc(NCC3CCNCC3)c(C(=O)Nc3ccccc3)cn2)cn1

>  <Name>  (986) 
nan

>  <Pocket>  (986) 
nan

>  <ATP_Site>  (986) 
nan

>  <Peripheral>  (986) 
nan

>  <Num_H_Atoms_ProtBoundConf>  (986) 
nan

>  <Num_Resolved_Atoms>  (986) 
nan

>  <Num_Not_Resolved_Atoms>  (986) 
nan

$$$$
CHEMBL4293583
     RDKit          3D

  0  0  0  0  0  0  0  0  0  0999 V3000
M  V30 BEGIN CTAB
M  V30 COUNTS 186 195 0 0 0
M  V30 BEGIN ATOM
M  V30 1 C 5.883907 2.094270 -2.504666 0
M  V30 2 O 5.294545 1.134506 -3.335650 0
M  V30 3 C 4.812178 1.854379 -4.433167 0 CFG=2
M  V30 4 C 3.335826 1.726580 -4.598180 0 CFG=1
M  V30 5 O 2.733716 2.926047 -4.212781 0
M  V30 6 C 3.013865 1.425817 -6.030403 0 CFG=2
M  V30 7 O 1.678922 1.269740 -6.293518 0
M  V30 8 C 1.086217 2.043414 -7.254289 0 CFG=2
M  V30 9 C -0.201622 2.724868 -6.793987 0 CFG=1
M  V30 10 O -0.725007 3.455870 -7.838002 0
M  V30 11 C -1.175492 1.667064 -6.386650 0 CFG=2
M  V30 12 O -1.413805 1.658038 -5.044521 0
M  V30 13 C -2.671507 1.288204 -4.618645 0 CFG=1
M  V30 14 C -2.600847 -0.051043 -3.896235 0 CFG=2
M  V30 15 O -3.568421 -0.906165 -4.326304 0
M  V30 16 C -2.676004 0.269872 -2.391491 0 CFG=1
M  V30 17 O -2.328640 -0.823269 -1.607035 0
M  V30 18 C -3.448844 -1.464648 -1.079333 0 CFG=2
M  V30 19 O -3.419793 -1.307621 0.316642 0
M  V30 20 C -4.748360 -1.414171 0.746583 0
M  V30 21 C -5.434612 -2.641774 0.221461 0 CFG=1
M  V30 22 O -6.342742 -2.411629 -0.782617 0
M  V30 23 C -4.395275 -3.622970 -0.261881 0 CFG=2
M  V30 24 O -3.561767 -4.086292 0.746213 0
M  V30 25 C -3.517562 -2.941847 -1.306179 0 CFG=1
M  V30 26 O -4.045012 -3.300878 -2.543093 0
M  V30 27 C -2.204912 1.591204 -2.168189 0 CFG=2
M  V30 28 O -1.800522 2.017698 -0.963051 0
M  V30 29 C -1.434826 3.241772 -0.727367 0 CFG=1
M  V30 30 C -1.880848 3.777214 0.590197 0 CFG=2
M  V30 31 O -1.920171 2.950760 1.623545 0
M  V30 32 C -1.472262 3.268859 2.854353 0 CFG=1
M  V30 33 C -2.337647 2.554228 3.821955 0
M  V30 34 C -2.297303 1.064077 3.449364 0
M  V30 35 C -0.947224 0.510400 3.160045 0 CFG=2
M  V30 36 C -0.709284 0.420181 1.632557 0
M  V30 37 C -0.646181 -0.863374 3.663765 0 CFG=2
M  V30 38 C -1.780817 -1.733998 4.069522 0
M  V30 39 C -1.168058 -3.160609 4.063471 0
M  V30 40 C -0.364942 -3.221170 5.321431 0
M  V30 41 C -1.314564 -3.719311 6.362419 0
M  V30 42 O -1.748113 -3.270364 7.457720 0
M  V30 43 O -1.607956 -4.954525 5.694058 0
M  V30 44 C -0.371738 -5.513908 5.250639 0 CFG=1
M  V30 45 C -0.083638 -6.626625 6.253775 0
M  V30 46 C -0.430700 -6.173321 3.907656 0
M  V30 47 C -1.402041 -7.313810 3.906971 0
M  V30 48 C -1.576559 -8.044669 2.617240 0
M  V30 49 C -0.403227 -8.700423 2.006715 0
M  V30 50 C 0.746198 -7.839929 1.597160 0
M  V30 51 C -0.890735 -9.404571 0.725087 0
M  V30 52 C 0.534549 -4.434561 5.446073 0 CFG=1
M  V30 53 C 1.694257 -4.054732 4.689008 0 CFG=1
M  V30 54 O 1.637897 -3.904475 3.315615 0
M  V30 55 C 2.579002 -4.447397 2.484848 0
M  V30 56 C 2.565591 -4.322104 0.995819 0
M  V30 57 O 3.559822 -5.113067 2.869898 0
M  V30 58 C 1.940659 -2.691380 5.396214 0
M  V30 59 C 0.538092 -2.135261 5.603921 0 CFG=2
M  V30 60 C 0.389116 -1.530815 6.978930 0
M  V30 61 C 0.503063 -0.960685 4.624345 0
M  V30 62 C 1.556286 -0.162149 4.715180 0
M  V30 63 C 1.472645 0.933211 3.668157 0
M  V30 64 C 0.069314 1.470790 3.765844 0 CFG=1
M  V30 65 C -0.073869 2.867129 3.303900 0
M  V30 66 C 1.041353 3.455565 2.524383 0
M  V30 67 C 0.037259 3.695077 4.640384 0
M  V30 68 O -2.799295 4.749813 0.264713 0
M  V30 69 C -2.060694 5.687104 -0.468074 0
M  V30 70 C -0.660642 5.493521 -0.831687 0 CFG=1
M  V30 71 O 0.164544 6.108397 0.097974 0
M  V30 72 S 1.248936 7.188092 -0.506561 0
M  V30 73 O 2.042499 6.458379 -1.584092 0
M  V30 74 O 0.676790 8.453668 -1.021096 0
M  V30 75 O 2.384403 7.485692 0.727766 0
M  V30 76 C -0.175183 4.008474 -1.006932 0 CFG=2
M  V30 77 O 0.262083 3.944267 -2.315923 0
M  V30 78 O -3.422213 2.399885 -2.557581 0
M  V30 79 C -3.411280 2.360014 -3.954272 0 CFG=2
M  V30 80 C -4.827037 2.435457 -4.504528 0
M  V30 81 O -0.542473 0.384167 -6.601852 0
M  V30 82 C -0.268243 0.127872 -7.902447 0
M  V30 83 C 0.698085 1.129653 -8.453122 0 CFG=1
M  V30 84 O 0.085949 1.896310 -9.418960 0
M  V30 85 O 3.662745 0.261654 -6.476184 0
M  V30 86 C 5.036347 0.373305 -6.477573 0 CFG=2
M  V30 87 C 5.720007 -0.933926 -6.083198 0
M  V30 88 O 5.388856 -1.965226 -6.952444 0
M  V30 89 C 5.536683 1.533866 -5.687675 0 CFG=1
M  V30 90 O 5.719078 2.656610 -6.527219 0
M  V30 91 H 5.148683 2.856875 -2.193324 0
M  V30 92 H 6.666386 2.680447 -3.068589 0
M  V30 93 H 6.417856 1.630657 -1.654999 0
M  V30 94 H 5.040267 2.947602 -4.225766 0
M  V30 95 H 2.896055 0.966801 -3.904520 0
M  V30 96 H 1.770276 2.932214 -4.388055 0
M  V30 97 H 3.425580 2.231845 -6.660843 0
M  V30 98 H 1.770936 2.767591 -7.661132 0
M  V30 99 H 0.056142 3.400356 -5.979364 0
M  V30 100 H -0.450357 4.400629 -7.775995 0
M  V30 101 H -2.073160 1.551201 -6.971521 0
M  V30 102 H -3.249402 1.035559 -5.575420 0
M  V30 103 H -1.605866 -0.483882 -4.079665 0
M  V30 104 H -3.180464 -1.727277 -4.741781 0
M  V30 105 H -3.850616 0.283441 -2.205076 0
M  V30 106 H -4.414625 -1.017058 -1.398742 0
M  V30 107 H -4.837063 -1.426365 1.863180 0
M  V30 108 H -5.320327 -0.531329 0.373202 0
M  V30 109 H -6.021639 -3.156979 1.042951 0
M  V30 110 H -7.098965 -1.816791 -0.523248 0
M  V30 111 H -4.916388 -4.498273 -0.767125 0
M  V30 112 H -3.394142 -3.371146 1.403801 0
M  V30 113 H -2.523585 -3.436949 -1.245661 0
M  V30 114 H -5.020789 -3.208753 -2.521152 0
M  V30 115 H -1.587172 2.121358 -2.912207 0
M  V30 116 H -2.060009 3.788815 -1.602398 0
M  V30 117 H -1.052638 4.517818 1.004603 0
M  V30 118 H -1.460977 4.390435 2.982980 0
M  V30 119 H -2.120230 2.705894 4.890235 0
M  V30 120 H -3.427073 2.821330 3.689124 0
M  V30 121 H -2.881104 0.572374 4.226923 0
M  V30 122 H -2.891726 1.001217 2.485599 0
M  V30 123 H -1.673173 0.363671 1.107694 0
M  V30 124 H -0.246089 -0.587745 1.371600 0
M  V30 125 H 0.035774 1.113283 1.265306 0
M  V30 126 H -0.205254 -1.495102 2.785811 0
M  V30 127 H -2.528426 -1.781217 3.284606 0
M  V30 128 H -2.150638 -1.589347 5.098196 0
M  V30 129 H -2.029521 -3.838741 4.122006 0
M  V30 130 H -0.592380 -3.183942 3.141980 0
M  V30 131 H -0.994743 -7.086608 6.645888 0
M  V30 132 H 0.619351 -6.280560 7.046968 0
M  V30 133 H 0.504636 -7.402243 5.695339 0
M  V30 134 H -0.652348 -5.536857 3.068440 0
M  V30 135 H 0.589834 -6.625204 3.745331 0
M  V30 136 H -1.134297 -8.087344 4.673979 0
M  V30 137 H -2.405138 -6.935539 4.268320 0
M  V30 138 H -1.936099 -7.275712 1.871661 0
M  V30 139 H -2.449149 -8.751712 2.684550 0
M  V30 140 H 0.033791 -9.506293 2.658969 0
M  V30 141 H 1.141709 -8.173605 0.570765 0
M  V30 142 H 1.663331 -7.998499 2.234805 0
M  V30 143 H 0.527795 -6.781687 1.440259 0
M  V30 144 H -1.888327 -9.844059 0.849218 0
M  V30 145 H -0.957679 -8.632923 -0.068205 0
M  V30 146 H -0.114235 -10.126490 0.369253 0
M  V30 147 H 0.835741 -4.421566 6.542334 0
M  V30 148 H 2.578740 -4.670478 4.943880 0
M  V30 149 H 1.557704 -3.958981 0.625235 0
M  V30 150 H 3.381427 -3.653577 0.653996 0
M  V30 151 H 2.767018 -5.324912 0.554667 0
M  V30 152 H 2.365621 -2.854010 6.389288 0
M  V30 153 H 2.572325 -2.096339 4.746683 0
M  V30 154 H 1.135807 -0.721367 7.075851 0
M  V30 155 H 0.446084 -2.255849 7.807114 0
M  V30 156 H -0.594568 -1.026770 7.078882 0
M  V30 157 H 2.382731 -0.218185 5.404047 0
M  V30 158 H 1.702330 0.518844 2.670614 0
M  V30 159 H 2.169746 1.720464 4.011223 0
M  V30 160 H -0.186281 1.363213 4.871336 0
M  V30 161 H 1.422057 2.913462 1.668827 0
M  V30 162 H 1.943522 3.553740 3.201044 0
M  V30 163 H 0.810891 4.539056 2.344981 0
M  V30 164 H -0.237400 3.051080 5.505619 0
M  V30 165 H -0.582832 4.583697 4.606547 0
M  V30 166 H 1.076194 3.993756 4.823545 0
M  V30 167 H -2.656145 5.999829 -1.357824 0
M  V30 168 H -2.132895 6.615317 0.200977 0
M  V30 169 H -0.463500 6.020769 -1.798124 0
M  V30 170 H 3.213387 7.786994 0.233412 0
M  V30 171 H 0.619622 3.906275 -0.262379 0
M  V30 172 H -0.324908 4.546385 -2.856072 0
M  V30 173 H -2.951717 3.347390 -4.263200 0
M  V30 174 H -4.830269 2.668848 -5.588842 0
M  V30 175 H -5.450003 3.204760 -4.006598 0
M  V30 176 H -5.356667 1.465009 -4.383154 0
M  V30 177 H -1.206300 0.139954 -8.514137 0
M  V30 178 H 0.180722 -0.908638 -7.924409 0
M  V30 179 H 1.592020 0.586356 -8.798476 0
M  V30 180 H 0.669968 1.995470 -10.234781 0
M  V30 181 H 5.335628 0.550205 -7.535684 0
M  V30 182 H 5.378512 -1.281817 -5.065284 0
M  V30 183 H 6.827640 -0.827154 -6.131506 0
M  V30 184 H 6.088172 -2.023883 -7.649561 0
M  V30 185 H 6.596938 1.268373 -5.386674 0
M  V30 186 H 5.522359 3.496723 -6.013305 0
M  V30 END ATOM
M  V30 BEGIN BOND
M  V30 1 1 1 2
M  V30 2 1 2 3
M  V30 3 1 3 4
M  V30 4 1 4 5
M  V30 5 1 4 6
M  V30 6 1 6 7
M  V30 7 1 7 8
M  V30 8 1 8 9
M  V30 9 1 9 10
M  V30 10 1 9 11
M  V30 11 1 11 12
M  V30 12 1 12 13
M  V30 13 1 13 14
M  V30 14 1 14 15
M  V30 15 1 14 16
M  V30 16 1 16 17
M  V30 17 1 17 18
M  V30 18 1 18 19
M  V30 19 1 19 20
M  V30 20 1 20 21
M  V30 21 1 21 22
M  V30 22 1 21 23
M  V30 23 1 23 24
M  V30 24 1 23 25
M  V30 25 1 25 26
M  V30 26 1 16 27
M  V30 27 1 27 28
M  V30 28 1 28 29
M  V30 29 1 29 30
M  V30 30 1 30 31
M  V30 31 1 31 32
M  V30 32 1 32 33
M  V30 33 1 33 34
M  V30 34 1 34 35
M  V30 35 1 35 36 CFG=3
M  V30 36 1 35 37
M  V30 37 1 37 38
M  V30 38 1 38 39
M  V30 39 1 39 40
M  V30 40 1 40 41
M  V30 41 2 41 42
M  V30 42 1 41 43
M  V30 43 1 43 44
M  V30 44 1 44 45 CFG=1
M  V30 45 1 44 46
M  V30 46 1 46 47
M  V30 47 1 47 48
M  V30 48 1 48 49
M  V30 49 1 49 50
M  V30 50 1 49 51
M  V30 51 1 44 52
M  V30 52 1 52 53
M  V30 53 1 53 54
M  V30 54 1 54 55
M  V30 55 1 55 56
M  V30 56 2 55 57
M  V30 57 1 53 58
M  V30 58 1 58 59
M  V30 59 1 59 60 CFG=1
M  V30 60 1 59 61
M  V30 61 2 61 62
M  V30 62 1 62 63
M  V30 63 1 63 64
M  V30 64 1 64 65
M  V30 65 1 65 66
M  V30 66 1 65 67
M  V30 67 1 30 68
M  V30 68 1 68 69
M  V30 69 1 69 70
M  V30 70 1 70 71
M  V30 71 1 71 72
M  V30 72 2 72 73
M  V30 73 2 72 74
M  V30 74 1 72 75
M  V30 75 1 70 76
M  V30 76 1 76 77
M  V30 77 1 27 78
M  V30 78 1 78 79
M  V30 79 1 79 80
M  V30 80 1 11 81
M  V30 81 1 81 82
M  V30 82 1 82 83
M  V30 83 1 83 84
M  V30 84 1 6 85
M  V30 85 1 85 86
M  V30 86 1 86 87
M  V30 87 1 87 88
M  V30 88 1 86 89
M  V30 89 1 89 90
M  V30 90 1 89 3
M  V30 91 1 83 8
M  V30 92 1 79 13
M  V30 93 1 25 18
M  V30 94 1 76 29
M  V30 95 1 65 32
M  V30 96 1 64 35
M  V30 97 1 61 37
M  V30 98 1 52 40
M  V30 99 1 59 40
M  V30 100 1 1 91
M  V30 101 1 1 92
M  V30 102 1 1 93
M  V30 103 1 3 94 CFG=1
M  V30 104 1 4 95 CFG=1
M  V30 105 1 5 96
M  V30 106 1 6 97 CFG=3
M  V30 107 1 8 98 CFG=3
M  V30 108 1 9 99 CFG=1
M  V30 109 1 10 100
M  V30 110 1 11 101 CFG=3
M  V30 111 1 13 102 CFG=3
M  V30 112 1 14 103 CFG=1
M  V30 113 1 15 104
M  V30 114 1 16 105 CFG=1
M  V30 115 1 18 106 CFG=3
M  V30 116 1 20 107
M  V30 117 1 20 108
M  V30 118 1 21 109 CFG=1
M  V30 119 1 22 110
M  V30 120 1 23 111 CFG=3
M  V30 121 1 24 112
M  V30 122 1 25 113 CFG=3
M  V30 123 1 26 114
M  V30 124 1 27 115 CFG=3
M  V30 125 1 29 116 CFG=3
M  V30 126 1 30 117 CFG=1
M  V30 127 1 32 118 CFG=1
M  V30 128 1 33 119
M  V30 129 1 33 120
M  V30 130 1 34 121
M  V30 131 1 34 122
M  V30 132 1 36 123
M  V30 133 1 36 124
M  V30 134 1 36 125
M  V30 135 1 37 126 CFG=3
M  V30 136 1 38 127
M  V30 137 1 38 128
M  V30 138 1 39 129
M  V30 139 1 39 130
M  V30 140 1 45 131
M  V30 141 1 45 132
M  V30 142 1 45 133
M  V30 143 1 46 134
M  V30 144 1 46 135
M  V30 145 1 47 136
M  V30 146 1 47 137
M  V30 147 1 48 138
M  V30 148 1 48 139
M  V30 149 1 49 140
M  V30 150 1 50 141
M  V30 151 1 50 142
M  V30 152 1 50 143
M  V30 153 1 51 144
M  V30 154 1 51 145
M  V30 155 1 51 146
M  V30 156 1 52 147 CFG=1
M  V30 157 1 53 148 CFG=3
M  V30 158 1 56 149
M  V30 159 1 56 150
M  V30 160 1 56 151
M  V30 161 1 58 152
M  V30 162 1 58 153
M  V30 163 1 60 154
M  V30 164 1 60 155
M  V30 165 1 60 156
M  V30 166 1 62 157
M  V30 167 1 63 158
M  V30 168 1 63 159
M  V30 169 1 64 160 CFG=1
M  V30 170 1 66 161
M  V30 171 1 66 162
M  V30 172 1 66 163
M  V30 173 1 67 164
M  V30 174 1 67 165
M  V30 175 1 67 166
M  V30 176 1 69 167
M  V30 177 1 69 168
M  V30 178 1 70 169 CFG=3
M  V30 179 1 75 170
M  V30 180 1 76 171 CFG=1
M  V30 181 1 77 172
M  V30 182 1 79 173 CFG=3
M  V30 183 1 80 174
M  V30 184 1 80 175
M  V30 185 1 80 176
M  V30 186 1 82 177
M  V30 187 1 82 178
M  V30 188 1 83 179 CFG=3
M  V30 189 1 84 180
M  V30 190 1 86 181 CFG=3
M  V30 191 1 87 182
M  V30 192 1 87 183
M  V30 193 1 88 184
M  V30 194 1 89 185 CFG=1
M  V30 195 1 90 186
M  V30 END BOND
M  V30 END CTAB
M  END
>  <Dataset>  (987) 
ChEMBL_Kinases

>  <Ligand_Instance>  (987) 
nan

>  <PDB_ID>  (987) 
nan

>  <Standardized_SMILES>  (987) 
CO[C@@H]1[C@@H](O)[C@H](O[C@@H]2[C@@H](O)[C@H](O[C@H]3[C@H](O)[C@@H](O[C@@H]4OC[C@@H](O)[C@H](O)[C@H]4O)[C@H](O[C@H]4[C@H](O[C@H]5CC[C@]6(C)[C@@H]7CCC89C(=O)O[C@@](C)(CCCC(C)C)[C@H]8[C@@H](OC(C)=O)C[C@@]9(C)C7=CC[C@H]6C5(C)C)OC[C@@H](OS(=O)(=O)O)[C@@H]4O)O[C@@H]3C)OC[C@H]2O)O[C@H](CO)[C@H]1O

>  <Name>  (987) 
nan

>  <Pocket>  (987) 
nan

>  <ATP_Site>  (987) 
nan

>  <Peripheral>  (987) 
nan

>  <Num_H_Atoms_ProtBoundConf>  (987) 
nan

>  <Num_Resolved_Atoms>  (987) 
nan

>  <Num_Not_Resolved_Atoms>  (987) 
nan

$$$$
CHEMBL4293547
     RDKit          3D

  0  0  0  0  0  0  0  0  0  0999 V3000
M  V30 BEGIN CTAB
M  V30 COUNTS 36 39 0 0 0
M  V30 BEGIN ATOM
M  V30 1 O -0.742452 -2.754616 2.066704 0
M  V30 2 C -0.810720 -2.112119 0.987479 0
M  V30 3 C -0.579680 -0.733461 0.915059 0
M  V30 4 N -0.252556 -0.024633 2.115858 0
M  V30 5 C 1.106257 0.101212 2.486008 0
M  V30 6 C 1.509974 0.763018 3.618827 0
M  V30 7 C 2.806809 0.936017 4.058729 0
M  V30 8 C 3.796624 0.372465 3.255040 0
M  V30 9 I 5.809274 0.586851 3.849136 0
M  V30 10 C 3.428611 -0.300695 2.107933 0
M  V30 11 C 2.119224 -0.455496 1.696328 0
M  V30 12 C -0.662501 -0.058013 -0.285210 0
M  V30 13 C -0.419247 1.379885 -0.347165 0
M  V30 14 C -0.481674 2.132340 -1.507117 0
M  V30 15 C -0.182032 3.418506 -1.074877 0
M  V30 16 C 0.041806 3.375413 0.300579 0
M  V30 17 O -0.114861 2.131094 0.674172 0
M  V30 18 O -0.965211 -0.748329 -1.360301 0
M  V30 19 C -1.195767 -2.040132 -1.376055 0
M  V30 20 C -1.507107 -2.674611 -2.560992 0
M  V30 21 Cl -1.598943 -1.765646 -4.059594 0
M  V30 22 C -1.751475 -4.029121 -2.593125 0
M  V30 23 C -1.666573 -4.696475 -1.388998 0
M  V30 24 Cl -1.981402 -6.433315 -1.438968 0
M  V30 25 C -1.362748 -4.145143 -0.161537 0
M  V30 26 C -1.127121 -2.770117 -0.202853 0
M  V30 27 H -0.963780 0.407830 2.738572 0
M  V30 28 H 0.726698 1.203974 4.246616 0
M  V30 29 H 3.004588 1.480357 4.974273 0
M  V30 30 H 4.251411 -0.725270 1.511744 0
M  V30 31 H 1.866286 -0.989644 0.790826 0
M  V30 32 H -0.718144 1.749812 -2.511401 0
M  V30 33 H -0.147735 4.261985 -1.755454 0
M  V30 34 H 0.291034 4.314462 0.797148 0
M  V30 35 H -1.997380 -4.551313 -3.506976 0
M  V30 36 H -1.315819 -4.733943 0.734578 0
M  V30 END ATOM
M  V30 BEGIN BOND
M  V30 1 2 1 2
M  V30 2 1 2 3
M  V30 3 1 3 4
M  V30 4 1 4 5
M  V30 5 2 5 6
M  V30 6 1 6 7
M  V30 7 2 7 8
M  V30 8 1 8 9
M  V30 9 1 8 10
M  V30 10 2 10 11
M  V30 11 2 3 12
M  V30 12 1 12 13
M  V30 13 2 13 14
M  V30 14 1 14 15
M  V30 15 2 15 16
M  V30 16 1 16 17
M  V30 17 1 12 18
M  V30 18 1 18 19
M  V30 19 2 19 20
M  V30 20 1 20 21
M  V30 21 1 20 22
M  V30 22 2 22 23
M  V30 23 1 23 24
M  V30 24 1 23 25
M  V30 25 2 25 26
M  V30 26 1 26 2
M  V30 27 1 11 5
M  V30 28 1 17 13
M  V30 29 1 26 19
M  V30 30 1 4 27
M  V30 31 1 6 28
M  V30 32 1 7 29
M  V30 33 1 10 30
M  V30 34 1 11 31
M  V30 35 1 14 32
M  V30 36 1 15 33
M  V30 37 1 16 34
M  V30 38 1 22 35
M  V30 39 1 25 36
M  V30 END BOND
M  V30 END CTAB
M  END
>  <Dataset>  (988) 
ChEMBL_Kinases

>  <Ligand_Instance>  (988) 
nan

>  <PDB_ID>  (988) 
nan

>  <Standardized_SMILES>  (988) 
O=c1c(Nc2ccc(I)cc2)c(-c2ccco2)oc2c(Cl)cc(Cl)cc12

>  <Name>  (988) 
nan

>  <Pocket>  (988) 
nan

>  <ATP_Site>  (988) 
nan

>  <Peripheral>  (988) 
nan

>  <Num_H_Atoms_ProtBoundConf>  (988) 
nan

>  <Num_Resolved_Atoms>  (988) 
nan

>  <Num_Not_Resolved_Atoms>  (988) 
nan

$$$$
CHEMBL4755877
     RDKit          3D

  0  0  0  0  0  0  0  0  0  0999 V3000
M  V30 BEGIN CTAB
M  V30 COUNTS 38 41 0 0 0
M  V30 BEGIN ATOM
M  V30 1 O -0.467587 -0.969204 4.530878 0
M  V30 2 C 0.068958 -1.285432 3.445801 0
M  V30 3 N 0.769880 -2.430553 3.384314 0
M  V30 4 C 1.385696 -2.866583 2.275101 0
M  V30 5 C 1.356317 -2.172554 1.082042 0
M  V30 6 N 1.999606 -2.655189 -0.085753 0
M  V30 7 C 2.454060 -1.997008 -1.256484 0
M  V30 8 C 2.751532 -0.665884 -1.378350 0
M  V30 9 C 3.170383 -0.060243 -2.528883 0
M  V30 10 C 3.308702 -0.834225 -3.658405 0
M  V30 11 C 3.023161 -2.179803 -3.591740 0
M  V30 12 C 2.605475 -2.737222 -2.409422 0
M  V30 13 C 0.635680 -0.998302 1.149160 0
M  V30 14 C 0.000128 -0.543944 2.286568 0
M  V30 15 C -0.752601 0.708523 2.310337 0
M  V30 16 C -0.235189 1.959879 2.623907 0
M  V30 17 C -1.064416 3.067841 2.607644 0
M  V30 18 C -2.402030 2.947550 2.283480 0
M  V30 19 C -2.935140 1.703851 1.967522 0
M  V30 20 N -4.180545 1.312566 1.622082 0
M  V30 21 C -4.207339 -0.025260 1.407012 0
M  V30 22 C -2.914251 -0.456508 1.634870 0
M  V30 23 C -2.096210 0.605446 1.987493 0
M  V30 24 H 0.852217 -3.034048 4.245172 0
M  V30 25 H 1.940613 -3.815114 2.303883 0
M  V30 26 H 2.159836 -3.710361 -0.051778 0
M  V30 27 H 2.671006 -0.028735 -0.532598 0
M  V30 28 H 3.394817 0.998947 -2.579983 0
M  V30 29 H 3.637700 -0.388182 -4.585062 0
M  V30 30 H 3.135514 -2.790286 -4.494467 0
M  V30 31 H 2.395047 -3.801602 -2.416129 0
M  V30 32 H 0.519164 -0.366596 0.301908 0
M  V30 33 H 0.819202 1.969331 2.866101 0
M  V30 34 H -0.618863 4.025212 2.858886 0
M  V30 35 H -3.031304 3.844582 2.279920 0
M  V30 36 H -4.995405 1.965291 1.537997 0
M  V30 37 H -5.064880 -0.617459 1.118741 0
M  V30 38 H -2.614215 -1.499854 1.540414 0
M  V30 END ATOM
M  V30 BEGIN BOND
M  V30 1 2 1 2
M  V30 2 1 2 3
M  V30 3 1 3 4
M  V30 4 2 4 5
M  V30 5 1 5 6
M  V30 6 1 6 7
M  V30 7 2 7 8
M  V30 8 1 8 9
M  V30 9 2 9 10
M  V30 10 1 10 11
M  V30 11 2 11 12
M  V30 12 1 5 13
M  V30 13 2 13 14
M  V30 14 1 14 15
M  V30 15 2 15 16
M  V30 16 1 16 17
M  V30 17 2 17 18
M  V30 18 1 18 19
M  V30 19 1 19 20
M  V30 20 1 20 21
M  V30 21 2 21 22
M  V30 22 1 22 23
M  V30 23 1 14 2
M  V30 24 1 23 15
M  V30 25 1 12 7
M  V30 26 2 23 19
M  V30 27 1 3 24
M  V30 28 1 4 25
M  V30 29 1 6 26
M  V30 30 1 8 27
M  V30 31 1 9 28
M  V30 32 1 10 29
M  V30 33 1 11 30
M  V30 34 1 12 31
M  V30 35 1 13 32
M  V30 36 1 16 33
M  V30 37 1 17 34
M  V30 38 1 18 35
M  V30 39 1 20 36
M  V30 40 1 21 37
M  V30 41 1 22 38
M  V30 END BOND
M  V30 END CTAB
M  END
>  <Dataset>  (989) 
ChEMBL_Kinases

>  <Ligand_Instance>  (989) 
nan

>  <PDB_ID>  (989) 
nan

>  <Standardized_SMILES>  (989) 
O=c1[nH]cc(Nc2ccccc2)cc1-c1cccc2[nH]ccc12

>  <Name>  (989) 
nan

>  <Pocket>  (989) 
nan

>  <ATP_Site>  (989) 
nan

>  <Peripheral>  (989) 
nan

>  <Num_H_Atoms_ProtBoundConf>  (989) 
nan

>  <Num_Resolved_Atoms>  (989) 
nan

>  <Num_Not_Resolved_Atoms>  (989) 
nan

$$$$
CHEMBL4755754
     RDKit          3D

  0  0  0  0  0  0  0  0  0  0999 V3000
M  V30 BEGIN CTAB
M  V30 COUNTS 60 64 0 0 0
M  V30 BEGIN ATOM
M  V30 1 C 7.378900 -5.766628 1.373265 0
M  V30 2 C 7.181968 -4.431742 2.015922 0
M  V30 3 C 8.125862 -4.052638 2.974928 0
M  V30 4 C 7.929961 -2.817157 3.559063 0
M  V30 5 C 6.872269 -1.994248 3.228002 0
M  V30 6 N 5.978446 -2.385506 2.300645 0
M  V30 7 C 4.833998 -1.679607 1.832423 0
M  V30 8 C 4.824274 -0.688523 0.868768 0
M  V30 9 C 3.635747 -0.081478 0.505342 0
M  V30 10 C 2.425597 -0.438186 1.084946 0
M  V30 11 C 1.180395 0.217658 0.684887 0
M  V30 12 C 0.000348 -0.446107 0.422873 0
M  V30 13 C -1.104538 0.292867 0.053772 0
M  V30 14 C -0.982996 1.654473 -0.036992 0
M  V30 15 C -2.016628 2.488115 -0.393994 0
M  V30 16 C -3.404949 2.475456 -0.780600 0
M  V30 17 O -4.113691 3.500071 -1.020615 0
M  V30 18 N -4.328620 1.432642 -0.995829 0
M  V30 19 C -5.695802 1.499993 -1.378735 0
M  V30 20 C -5.968623 0.668412 -2.604268 0
M  V30 21 C -6.725789 -0.575772 -2.307280 0
M  V30 22 N -6.248161 -1.287456 -1.146590 0
M  V30 23 C -6.780196 -2.604156 -1.023360 0
M  V30 24 C -6.235439 -0.497588 0.040596 0
M  V30 25 C -6.498593 0.970635 -0.182399 0
M  V30 26 N -1.433300 3.722953 -0.345695 0
M  V30 27 N -0.177827 3.604448 0.007318 0
M  V30 28 C 0.188820 2.330701 0.221738 0
M  V30 29 C 1.292684 1.590245 0.590694 0
M  V30 30 C 2.466791 -1.432072 2.045291 0
M  V30 31 Cl 0.966266 -1.943307 2.831340 0
M  V30 32 C 3.633464 -2.060882 2.434119 0
M  V30 33 C 6.128995 -3.581168 1.705035 0
M  V30 34 O 5.346960 -4.051496 0.817438 0
M  V30 35 H 8.159893 -5.743031 0.580507 0
M  V30 36 H 6.423583 -5.972797 0.808736 0
M  V30 37 H 7.509684 -6.575673 2.099762 0
M  V30 38 H 8.967352 -4.679238 3.255023 0
M  V30 39 H 8.605881 -2.445532 4.305517 0
M  V30 40 H 6.675462 -1.020596 3.655443 0
M  V30 41 H 5.784294 -0.437224 0.439844 0
M  V30 42 H 3.687297 0.689153 -0.255257 0
M  V30 43 H -0.010465 -1.505163 0.516234 0
M  V30 44 H -2.006740 -0.249899 -0.141210 0
M  V30 45 H -3.966647 0.468555 -0.859762 0
M  V30 46 H -6.030734 2.543566 -1.511744 0
M  V30 47 H -6.601167 1.275014 -3.285177 0
M  V30 48 H -5.024648 0.494936 -3.154552 0
M  V30 49 H -7.798038 -0.400814 -2.177834 0
M  V30 50 H -6.612757 -1.269343 -3.182867 0
M  V30 51 H -6.774517 -2.976404 0.011371 0
M  V30 52 H -6.128704 -3.304624 -1.616412 0
M  V30 53 H -7.802889 -2.717177 -1.434153 0
M  V30 54 H -7.020213 -0.875133 0.727576 0
M  V30 55 H -5.270272 -0.670619 0.574745 0
M  V30 56 H -7.578027 1.161226 -0.309154 0
M  V30 57 H -6.174930 1.498094 0.737612 0
M  V30 58 H 0.493790 4.396907 0.119208 0
M  V30 59 H 2.181278 2.176006 0.780139 0
M  V30 60 H 3.592316 -2.838103 3.199224 0
M  V30 END ATOM
M  V30 BEGIN BOND
M  V30 1 1 1 2
M  V30 2 2 2 3
M  V30 3 1 3 4
M  V30 4 2 4 5
M  V30 5 1 5 6
M  V30 6 1 6 7
M  V30 7 2 7 8
M  V30 8 1 8 9
M  V30 9 2 9 10
M  V30 10 1 10 11
M  V30 11 2 11 12
M  V30 12 1 12 13
M  V30 13 2 13 14
M  V30 14 1 14 15
M  V30 15 1 15 16
M  V30 16 2 16 17
M  V30 17 1 16 18
M  V30 18 1 18 19
M  V30 19 1 19 20
M  V30 20 1 20 21
M  V30 21 1 21 22
M  V30 22 1 22 23
M  V30 23 1 22 24
M  V30 24 1 24 25
M  V30 25 2 15 26
M  V30 26 1 26 27
M  V30 27 1 27 28
M  V30 28 2 28 29
M  V30 29 1 10 30
M  V30 30 1 30 31
M  V30 31 2 30 32
M  V30 32 1 6 33
M  V30 33 2 33 34
M  V30 34 1 33 2
M  V30 35 1 32 7
M  V30 36 1 29 11
M  V30 37 1 28 14
M  V30 38 1 25 19
M  V30 39 1 1 35
M  V30 40 1 1 36
M  V30 41 1 1 37
M  V30 42 1 3 38
M  V30 43 1 4 39
M  V30 44 1 5 40
M  V30 45 1 8 41
M  V30 46 1 9 42
M  V30 47 1 12 43
M  V30 48 1 13 44
M  V30 49 1 18 45
M  V30 50 1 19 46
M  V30 51 1 20 47
M  V30 52 1 20 48
M  V30 53 1 21 49
M  V30 54 1 21 50
M  V30 55 1 23 51
M  V30 56 1 23 52
M  V30 57 1 23 53
M  V30 58 1 24 54
M  V30 59 1 24 55
M  V30 60 1 25 56
M  V30 61 1 25 57
M  V30 62 1 27 58
M  V30 63 1 29 59
M  V30 64 1 32 60
M  V30 END BOND
M  V30 END CTAB
M  END
>  <Dataset>  (990) 
ChEMBL_Kinases

>  <Ligand_Instance>  (990) 
nan

>  <PDB_ID>  (990) 
nan

>  <Standardized_SMILES>  (990) 
Cc1cccn(-c2ccc(-c3ccc4c(C(=O)NC5CCN(C)CC5)n[nH]c4c3)c(Cl)c2)c1=O

>  <Name>  (990) 
nan

>  <Pocket>  (990) 
nan

>  <ATP_Site>  (990) 
nan

>  <Peripheral>  (990) 
nan

>  <Num_H_Atoms_ProtBoundConf>  (990) 
nan

>  <Num_Resolved_Atoms>  (990) 
nan

>  <Num_Not_Resolved_Atoms>  (990) 
nan

$$$$
CHEMBL4755098
     RDKit          3D

  0  0  0  0  0  0  0  0  0  0999 V3000
M  V30 BEGIN CTAB
M  V30 COUNTS 36 39 0 0 0
M  V30 BEGIN ATOM
M  V30 1 O -1.520480 0.131513 3.102520 0
M  V30 2 C -0.485594 -0.036143 2.440651 0
M  V30 3 C 0.528819 -0.844528 2.913339 0
M  V30 4 C 0.381510 -1.469728 4.137449 0
M  V30 5 C 1.438864 -2.277731 4.569707 0
M  V30 6 F 1.293656 -2.892315 5.773214 0
M  V30 7 C 2.606159 -2.490538 3.864550 0
M  V30 8 C 2.718733 -1.840503 2.629207 0
M  V30 9 C 1.690248 -1.050256 2.201222 0
M  V30 10 N 1.781926 -0.422457 1.023607 0
M  V30 11 C 2.725277 -0.389397 0.096699 0
M  V30 12 S 4.183161 -1.095887 -0.016629 0
M  V30 13 N 2.369889 0.386099 -0.926069 0
M  V30 14 N 1.150601 0.884382 -0.670059 0
M  V30 15 C 0.816276 0.371248 0.531507 0
M  V30 16 N -0.327383 0.565592 1.247110 0
M  V30 17 C -1.394570 1.421028 0.741517 0
M  V30 18 C -2.353405 0.568199 -0.081035 0
M  V30 19 C -1.704229 -0.079727 -1.227532 0
M  V30 20 C -1.657331 0.573683 -2.463254 0
M  V30 21 C -1.041305 -0.068693 -3.504743 0
M  V30 22 C -0.465087 -1.312498 -3.420311 0
M  V30 23 C -0.549394 -1.904185 -2.158804 0
M  V30 24 N -1.149802 -1.314323 -1.084013 0
M  V30 25 H -0.498369 -1.363914 4.764234 0
M  V30 26 H 3.379554 -3.130759 4.266473 0
M  V30 27 H 3.642856 -2.040711 2.126275 0
M  V30 28 H 2.801954 0.681430 -1.838485 0
M  V30 29 H -1.981139 1.850764 1.573644 0
M  V30 30 H -0.956250 2.159531 0.058429 0
M  V30 31 H -3.234904 1.181932 -0.350297 0
M  V30 32 H -2.695716 -0.236032 0.609825 0
M  V30 33 H -2.116640 1.549820 -2.505223 0
M  V30 34 H -1.040500 0.487364 -4.422943 0
M  V30 35 H 0.008405 -1.796179 -4.237307 0
M  V30 36 H -0.132123 -2.882951 -1.969494 0
M  V30 END ATOM
M  V30 BEGIN BOND
M  V30 1 2 1 2
M  V30 2 1 2 3
M  V30 3 2 3 4
M  V30 4 1 4 5
M  V30 5 1 5 6
M  V30 6 2 5 7
M  V30 7 1 7 8
M  V30 8 2 8 9
M  V30 9 1 9 10
M  V30 10 1 10 11
M  V30 11 2 11 12
M  V30 12 1 11 13
M  V30 13 1 13 14
M  V30 14 2 14 15
M  V30 15 1 15 16
M  V30 16 1 16 17
M  V30 17 1 17 18
M  V30 18 1 18 19
M  V30 19 2 19 20
M  V30 20 1 20 21
M  V30 21 2 21 22
M  V30 22 1 22 23
M  V30 23 2 23 24
M  V30 24 1 16 2
M  V30 25 1 24 19
M  V30 26 1 9 3
M  V30 27 1 15 10
M  V30 28 1 4 25
M  V30 29 1 7 26
M  V30 30 1 8 27
M  V30 31 1 13 28
M  V30 32 1 17 29
M  V30 33 1 17 30
M  V30 34 1 18 31
M  V30 35 1 18 32
M  V30 36 1 20 33
M  V30 37 1 21 34
M  V30 38 1 22 35
M  V30 39 1 23 36
M  V30 END BOND
M  V30 END CTAB
M  END
>  <Dataset>  (991) 
ChEMBL_Kinases

>  <Ligand_Instance>  (991) 
nan

>  <PDB_ID>  (991) 
nan

>  <Standardized_SMILES>  (991) 
O=c1c2cc(F)ccc2n2c(=S)[nH]nc2n1CCc1ccccn1

>  <Name>  (991) 
nan

>  <Pocket>  (991) 
nan

>  <ATP_Site>  (991) 
nan

>  <Peripheral>  (991) 
nan

>  <Num_H_Atoms_ProtBoundConf>  (991) 
nan

>  <Num_Resolved_Atoms>  (991) 
nan

>  <Num_Not_Resolved_Atoms>  (991) 
nan

$$$$
CHEMBL4755134
     RDKit          3D

  0  0  0  0  0  0  0  0  0  0999 V3000
M  V30 BEGIN CTAB
M  V30 COUNTS 64 68 0 0 0
M  V30 BEGIN ATOM
M  V30 1 C 1.885282 -7.163490 1.743668 0
M  V30 2 O 0.853057 -6.996704 2.698216 0
M  V30 3 C 0.428801 -5.739763 3.069396 0
M  V30 4 C 0.985385 -4.575614 2.532298 0
M  V30 5 C 0.533852 -3.332093 2.929027 0
M  V30 6 C 1.106658 -2.092631 2.374517 0
M  V30 7 C 0.224651 -1.035703 2.291264 0
M  V30 8 N 0.706263 0.112939 1.790389 0
M  V30 9 C 1.963610 0.302276 1.372123 0
M  V30 10 C 2.525868 1.458378 0.845666 0
M  V30 11 N 1.933933 2.743001 0.607414 0
M  V30 12 C 2.674650 3.829997 0.051695 0
M  V30 13 C 2.201332 4.156466 -1.332790 0
M  V30 14 C 0.768357 3.797037 -1.531752 0
M  V30 15 C -0.048798 3.893734 -0.261290 0
M  V30 16 C -1.434399 3.311676 -0.479137 0
M  V30 17 N -1.353067 1.911794 -0.863811 0
M  V30 18 C -2.520406 1.109487 -1.133472 0
M  V30 19 O -3.666653 1.658088 -1.028017 0
M  V30 20 C -2.449668 -0.316651 -1.525684 0
M  V30 21 C -3.871202 -0.792033 -1.713407 0
M  V30 22 C -4.042033 -1.138001 -3.169091 0
M  V30 23 C -2.895164 -0.462080 -3.898491 0
M  V30 24 C -1.803757 -0.518163 -2.871576 0
M  V30 25 C 0.559881 3.146050 0.871570 0
M  V30 26 S 4.172868 1.156641 0.471657 0
M  V30 27 N 4.150245 -0.627128 1.043024 0
M  V30 28 C 2.850500 -0.742236 1.450074 0
M  V30 29 C 2.410816 -1.947419 1.956906 0
M  V30 30 C -0.476626 -3.287352 3.865678 0
M  V30 31 C -1.056229 -4.424719 4.423591 0
M  V30 32 C -0.580901 -5.646765 4.004396 0
M  V30 33 N -1.210613 -6.784231 4.608313 0
M  V30 34 H 2.848266 -6.797743 2.143411 0
M  V30 35 H 2.037345 -8.233318 1.521193 0
M  V30 36 H 1.575316 -6.612457 0.826925 0
M  V30 37 H 1.773413 -4.670845 1.802975 0
M  V30 38 H -0.809222 -1.020446 2.581130 0
M  V30 39 H 2.507768 4.739088 0.688246 0
M  V30 40 H 3.774821 3.666569 0.091640 0
M  V30 41 H 2.801658 3.652133 -2.118280 0
M  V30 42 H 2.316639 5.253847 -1.497756 0
M  V30 43 H 0.321831 4.502490 -2.291056 0
M  V30 44 H 0.642117 2.776006 -1.934865 0
M  V30 45 H -0.182618 4.952231 0.021677 0
M  V30 46 H -1.971717 3.427400 0.496927 0
M  V30 47 H -1.934390 3.856597 -1.292556 0
M  V30 48 H -0.467517 1.358604 -0.980895 0
M  V30 49 H -1.979754 -0.917169 -0.719933 0
M  V30 50 H -4.078964 -1.719843 -1.142604 0
M  V30 51 H -4.631272 -0.033083 -1.462313 0
M  V30 52 H -3.968163 -2.227890 -3.340113 0
M  V30 53 H -4.993879 -0.744576 -3.578123 0
M  V30 54 H -2.629151 -1.079775 -4.766199 0
M  V30 55 H -3.135217 0.536137 -4.262243 0
M  V30 56 H -1.390213 -1.556210 -2.887355 0
M  V30 57 H -0.955871 0.150048 -3.080963 0
M  V30 58 H 0.636142 3.836153 1.756391 0
M  V30 59 H -0.016753 2.275156 1.205189 0
M  V30 60 H 2.978459 -2.836992 2.076973 0
M  V30 61 H -0.851398 -2.329262 4.196353 0
M  V30 62 H -1.848417 -4.319834 5.156586 0
M  V30 63 H -2.207509 -7.120091 4.577430 0
M  V30 64 H -0.477777 -7.313095 5.153558 0
M  V30 END ATOM
M  V30 BEGIN BOND
M  V30 1 1 1 2
M  V30 2 1 2 3
M  V30 3 2 3 4
M  V30 4 1 4 5
M  V30 5 1 5 6
M  V30 6 1 6 7
M  V30 7 2 7 8
M  V30 8 1 8 9
M  V30 9 2 9 10
M  V30 10 1 10 11
M  V30 11 1 11 12
M  V30 12 1 12 13
M  V30 13 1 13 14
M  V30 14 1 14 15
M  V30 15 1 15 16
M  V30 16 1 16 17
M  V30 17 1 17 18
M  V30 18 2 18 19
M  V30 19 1 18 20
M  V30 20 1 20 21
M  V30 21 1 21 22
M  V30 22 1 22 23
M  V30 23 1 23 24
M  V30 24 1 15 25
M  V30 25 1 10 26
M  V30 26 1 26 27
M  V30 27 2 27 28
M  V30 28 1 28 29
M  V30 29 2 5 30
M  V30 30 1 30 31
M  V30 31 2 31 32
M  V30 32 1 32 33
M  V30 33 1 32 3
M  V30 34 2 29 6
M  V30 35 1 28 9
M  V30 36 1 25 11
M  V30 37 1 24 20
M  V30 38 1 1 34
M  V30 39 1 1 35
M  V30 40 1 1 36
M  V30 41 1 4 37
M  V30 42 1 7 38
M  V30 43 1 12 39
M  V30 44 1 12 40
M  V30 45 1 13 41
M  V30 46 1 13 42
M  V30 47 1 14 43
M  V30 48 1 14 44
M  V30 49 1 15 45
M  V30 50 1 16 46
M  V30 51 1 16 47
M  V30 52 1 17 48
M  V30 53 1 20 49
M  V30 54 1 21 50
M  V30 55 1 21 51
M  V30 56 1 22 52
M  V30 57 1 22 53
M  V30 58 1 23 54
M  V30 59 1 23 55
M  V30 60 1 24 56
M  V30 61 1 24 57
M  V30 62 1 25 58
M  V30 63 1 25 59
M  V30 64 1 29 60
M  V30 65 1 30 61
M  V30 66 1 31 62
M  V30 67 1 33 63
M  V30 68 1 33 64
M  V30 END BOND
M  V30 END CTAB
M  END
>  <Dataset>  (992) 
ChEMBL_Kinases

>  <Ligand_Instance>  (992) 
nan

>  <PDB_ID>  (992) 
nan

>  <Standardized_SMILES>  (992) 
COc1cc(-c2cnc3c(N4CCCC(CNC(=O)C5CCCC5)C4)snc3c2)ccc1N

>  <Name>  (992) 
nan

>  <Pocket>  (992) 
nan

>  <ATP_Site>  (992) 
nan

>  <Peripheral>  (992) 
nan

>  <Num_H_Atoms_ProtBoundConf>  (992) 
nan

>  <Num_Resolved_Atoms>  (992) 
nan

>  <Num_Not_Resolved_Atoms>  (992) 
nan

$$$$
CHEMBL4297467
     RDKit          3D

  0  0  0  0  0  0  0  0  0  0999 V3000
M  V30 BEGIN CTAB
M  V30 COUNTS 74 79 0 0 0
M  V30 BEGIN ATOM
M  V30 1 N 1.894284 -6.947745 1.114844 0
M  V30 2 C 2.646444 -6.160266 0.176613 0
M  V30 3 C 3.714063 -6.688125 -0.495660 0
M  V30 4 C 4.451355 -5.956494 -1.409033 0
M  V30 5 C 4.089334 -4.663509 -1.634374 0
M  V30 6 C 4.817441 -3.792912 -2.580830 0
M  V30 7 C 4.602308 -2.563977 -2.921131 0
M  V30 8 C 5.180137 -1.582998 -3.798146 0
M  V30 9 O 6.117289 -1.442307 -4.624694 0
M  V30 10 N 4.626642 -0.257278 -3.881561 0
M  V30 11 C 4.070777 1.102168 -3.976843 0
M  V30 12 C 2.906546 1.251478 -3.016837 0
M  V30 13 C 1.545263 1.036726 -3.246878 0
M  V30 14 C 1.002999 1.321128 -1.981385 0
M  V30 15 C -0.352861 1.241522 -1.675630 0
M  V30 16 C -0.683740 1.552927 -0.357263 0
M  V30 17 C -2.081722 1.468669 0.069223 0
M  V30 18 C -2.795813 0.461813 -0.593137 0
M  V30 19 C -4.128292 0.289339 -0.258675 0
M  V30 20 C -4.622575 1.127856 0.697300 0
M  V30 21 C -6.044331 0.924668 1.054583 0
M  V30 22 O -7.244658 1.249134 0.898189 0
M  V30 23 N -6.189324 -0.126440 2.042764 0
M  V30 24 C -7.498224 -0.516638 2.558540 0
M  V30 25 C -7.498225 -1.922130 3.065337 0
M  V30 26 C -6.604905 -2.866126 2.290570 0
M  V30 27 F -6.560412 -4.055294 2.991873 0
M  V30 28 F -7.149351 -3.184097 1.056320 0
M  V30 29 C -5.212665 -2.334888 2.138265 0
M  V30 30 C -5.097343 -0.908769 2.626245 0
M  V30 31 C -3.995409 2.126258 1.380696 0
M  V30 32 C -2.650017 2.276199 1.020661 0
M  V30 33 C 0.261216 1.922516 0.601310 0
M  V30 34 C 1.598989 1.968701 0.182757 0
M  V30 35 C 2.585992 2.353761 1.206864 0
M  V30 36 C 2.526691 1.718050 2.438814 0
M  V30 37 C 3.419725 2.045966 3.423855 0
M  V30 38 C 4.369286 3.021881 3.149846 0
M  V30 39 F 5.308405 3.454184 4.008389 0
M  V30 40 C 4.420996 3.650098 1.920032 0
M  V30 41 C 3.514982 3.319581 0.915108 0
M  V30 42 C 2.006235 1.675270 -1.096363 0
M  V30 43 O 3.125684 1.623717 -1.752184 0
M  V30 44 C 3.009261 -4.137243 -0.953502 0
M  V30 45 N 2.311403 -4.864281 -0.076201 0
M  V30 46 H 0.900834 -7.216141 0.886121 0
M  V30 47 H 2.204447 -7.326266 2.060064 0
M  V30 48 H 4.035940 -7.710535 -0.341989 0
M  V30 49 H 5.303709 -6.275554 -1.991515 0
M  V30 50 H 5.686045 -4.000301 -3.212830 0
M  V30 51 H 3.720277 -2.363643 -2.302147 0
M  V30 52 H 3.854385 -0.359890 -3.194427 0
M  V30 53 H 3.593132 1.126192 -4.973892 0
M  V30 54 H 4.837175 1.854790 -3.825868 0
M  V30 55 H 1.150520 0.724842 -4.189144 0
M  V30 56 H -1.096546 0.954174 -2.402212 0
M  V30 57 H -2.391947 -0.203422 -1.353827 0
M  V30 58 H -4.704073 -0.485234 -0.753938 0
M  V30 59 H -8.304963 -0.348363 1.809829 0
M  V30 60 H -7.707854 0.146208 3.426515 0
M  V30 61 H -8.545119 -2.333797 2.961202 0
M  V30 62 H -7.294638 -1.995962 4.151624 0
M  V30 63 H -4.489002 -2.925603 2.723507 0
M  V30 64 H -4.898276 -2.433211 1.057122 0
M  V30 65 H -5.267155 -0.943318 3.713102 0
M  V30 66 H -4.113766 -0.529048 2.323028 0
M  V30 67 H -4.451089 2.750037 2.121942 0
M  V30 68 H -2.030156 3.041032 1.496116 0
M  V30 69 H -0.035599 2.160873 1.619530 0
M  V30 70 H 1.794597 0.960509 2.659982 0
M  V30 71 H 3.456936 1.602053 4.427444 0
M  V30 72 H 5.145854 4.421665 1.661897 0
M  V30 73 H 3.571552 3.836426 -0.054998 0
M  V30 74 H 2.597111 -3.155815 -1.009443 0
M  V30 END ATOM
M  V30 BEGIN BOND
M  V30 1 1 1 2
M  V30 2 2 2 3
M  V30 3 1 3 4
M  V30 4 2 4 5
M  V30 5 1 5 6
M  V30 6 2 6 7
M  V30 7 1 7 8
M  V30 8 2 8 9
M  V30 9 1 8 10
M  V30 10 1 10 11
M  V30 11 1 11 12
M  V30 12 2 12 13
M  V30 13 1 13 14
M  V30 14 2 14 15
M  V30 15 1 15 16
M  V30 16 1 16 17
M  V30 17 2 17 18
M  V30 18 1 18 19
M  V30 19 2 19 20
M  V30 20 1 20 21
M  V30 21 2 21 22
M  V30 22 1 21 23
M  V30 23 1 23 24
M  V30 24 1 24 25
M  V30 25 1 25 26
M  V30 26 1 26 27
M  V30 27 1 26 28
M  V30 28 1 26 29
M  V30 29 1 29 30
M  V30 30 1 20 31
M  V30 31 2 31 32
M  V30 32 2 16 33
M  V30 33 1 33 34
M  V30 34 1 34 35
M  V30 35 2 35 36
M  V30 36 1 36 37
M  V30 37 2 37 38
M  V30 38 1 38 39
M  V30 39 1 38 40
M  V30 40 2 40 41
M  V30 41 2 34 42
M  V30 42 1 42 43
M  V30 43 1 5 44
M  V30 44 2 44 45
M  V30 45 1 45 2
M  V30 46 1 43 12
M  V30 47 1 42 14
M  V30 48 1 32 17
M  V30 49 1 41 35
M  V30 50 1 30 23
M  V30 51 1 1 46
M  V30 52 1 1 47
M  V30 53 1 3 48
M  V30 54 1 4 49
M  V30 55 1 6 50
M  V30 56 1 7 51
M  V30 57 1 10 52
M  V30 58 1 11 53
M  V30 59 1 11 54
M  V30 60 1 13 55
M  V30 61 1 15 56
M  V30 62 1 18 57
M  V30 63 1 19 58
M  V30 64 1 24 59
M  V30 65 1 24 60
M  V30 66 1 25 61
M  V30 67 1 25 62
M  V30 68 1 29 63
M  V30 69 1 29 64
M  V30 70 1 30 65
M  V30 71 1 30 66
M  V30 72 1 31 67
M  V30 73 1 32 68
M  V30 74 1 33 69
M  V30 75 1 36 70
M  V30 76 1 37 71
M  V30 77 1 40 72
M  V30 78 1 41 73
M  V30 79 1 44 74
M  V30 END BOND
M  V30 END CTAB
M  END
>  <Dataset>  (993) 
ChEMBL_Kinases

>  <Ligand_Instance>  (993) 
nan

>  <PDB_ID>  (993) 
nan

>  <Standardized_SMILES>  (993) 
Nc1ccc(/C=C/C(=O)NCc2cc3cc(-c4ccc(C(=O)N5CCC(F)(F)CC5)cc4)cc(-c4ccc(F)cc4)c3o2)cn1

>  <Name>  (993) 
PADNARSERTIB

>  <Pocket>  (993) 
nan

>  <ATP_Site>  (993) 
nan

>  <Peripheral>  (993) 
nan

>  <Num_H_Atoms_ProtBoundConf>  (993) 
nan

>  <Num_Resolved_Atoms>  (993) 
nan

>  <Num_Not_Resolved_Atoms>  (993) 
nan

$$$$
CHEMBL429745
     RDKit          3D

  0  0  0  0  0  0  0  0  0  0999 V3000
M  V30 BEGIN CTAB
M  V30 COUNTS 62 66 0 0 0
M  V30 BEGIN ATOM
M  V30 1 C -0.699316 0.570724 5.466361 0
M  V30 2 C 0.135632 1.244277 4.357138 0
M  V30 3 C 1.019439 0.107667 3.863195 0
M  V30 4 N 1.946198 0.481428 2.836698 0
M  V30 5 C 2.997160 1.334779 3.422004 0
M  V30 6 C 3.853331 0.064763 3.503656 0
M  V30 7 C 2.870421 -0.606383 2.586066 0
M  V30 8 N -0.658990 1.706322 3.310105 0
M  V30 9 C -0.168837 2.501122 2.268254 0
M  V30 10 C -0.370388 1.935842 0.890850 0
M  V30 11 C -1.575532 1.088409 0.726076 0
M  V30 12 C -1.361311 -0.001953 -0.261990 0
M  V30 13 C -2.142274 -0.168866 -1.383205 0
M  V30 14 C -1.659067 -1.281923 -2.080876 0
M  V30 15 C -2.234317 -1.788120 -3.338225 0
M  V30 16 C -2.774529 -3.069180 -3.251546 0
M  V30 17 C -3.335493 -3.615490 -4.392306 0
M  V30 18 N -3.392041 -2.981504 -5.589142 0
M  V30 19 C -2.856945 -1.733604 -5.642035 0
M  V30 20 C -2.281005 -1.123926 -4.547000 0
M  V30 21 C -0.588644 -1.763047 -1.356400 0
M  V30 22 C 0.226611 -2.916322 -1.712296 0
M  V30 23 C 0.875948 -2.684067 -2.918032 0
M  V30 24 C 1.726815 -3.638295 -3.486051 0
M  V30 25 C 1.903199 -4.837039 -2.798959 0
M  V30 26 F 2.719329 -5.785840 -3.318301 0
M  V30 27 C 1.257702 -5.062744 -1.604109 0
M  V30 28 C 0.421399 -4.114775 -1.054009 0
M  V30 29 N -0.434755 -0.975398 -0.271988 0
M  V30 30 C -2.120943 0.470858 1.968334 0
M  V30 31 C -2.018067 1.318268 3.210514 0
M  V30 32 H -1.521232 1.179289 5.818502 0
M  V30 33 H -1.051860 -0.423820 5.156549 0
M  V30 34 H 0.055819 0.352394 6.281148 0
M  V30 35 H 0.765851 2.028166 4.790138 0
M  V30 36 H 1.567933 -0.363739 4.711982 0
M  V30 37 H 0.371162 -0.733102 3.476043 0
M  V30 38 H 3.352104 2.068375 2.675489 0
M  V30 39 H 2.742848 1.751945 4.416802 0
M  V30 40 H 4.848454 0.305975 3.091800 0
M  V30 41 H 3.842052 -0.408310 4.498452 0
M  V30 42 H 2.504517 -1.599703 2.968290 0
M  V30 43 H 3.155609 -0.666222 1.516146 0
M  V30 44 H -0.749224 3.489603 2.332907 0
M  V30 45 H 0.862607 2.822763 2.453610 0
M  V30 46 H -0.372670 2.794142 0.183662 0
M  V30 47 H 0.530249 1.355383 0.614393 0
M  V30 48 H -2.412155 1.715714 0.317140 0
M  V30 49 H -2.988354 0.408010 -1.731355 0
M  V30 50 H -2.822452 -3.723650 -2.392262 0
M  V30 51 H -3.781863 -4.622006 -4.402771 0
M  V30 52 H -2.852530 -1.139206 -6.556923 0
M  V30 53 H -1.848959 -0.141478 -4.552577 0
M  V30 54 H 0.821573 -1.798554 -3.545627 0
M  V30 55 H 2.255468 -3.512839 -4.417134 0
M  V30 56 H 1.356274 -5.971220 -1.028799 0
M  V30 57 H -0.141414 -4.161501 -0.133802 0
M  V30 58 H 0.276755 -1.043347 0.497329 0
M  V30 59 H -1.614940 -0.491120 2.180283 0
M  V30 60 H -3.201081 0.175858 1.813409 0
M  V30 61 H -2.300512 0.679020 4.060176 0
M  V30 62 H -2.731945 2.174958 3.187925 0
M  V30 END ATOM
M  V30 BEGIN BOND
M  V30 1 1 1 2
M  V30 2 1 2 3
M  V30 3 1 3 4
M  V30 4 1 4 5
M  V30 5 1 5 6
M  V30 6 1 6 7
M  V30 7 1 2 8
M  V30 8 1 8 9
M  V30 9 1 9 10
M  V30 10 1 10 11
M  V30 11 1 11 12
M  V30 12 2 12 13
M  V30 13 1 13 14
M  V30 14 1 14 15
M  V30 15 2 15 16
M  V30 16 1 16 17
M  V30 17 2 17 18
M  V30 18 1 18 19
M  V30 19 2 19 20
M  V30 20 2 14 21
M  V30 21 1 21 22
M  V30 22 2 22 23
M  V30 23 1 23 24
M  V30 24 2 24 25
M  V30 25 1 25 26
M  V30 26 1 25 27
M  V30 27 2 27 28
M  V30 28 1 21 29
M  V30 29 1 11 30
M  V30 30 1 30 31
M  V30 31 1 7 4
M  V30 32 1 31 8
M  V30 33 1 29 12
M  V30 34 1 20 15
M  V30 35 1 28 22
M  V30 36 1 1 32
M  V30 37 1 1 33
M  V30 38 1 1 34
M  V30 39 1 2 35
M  V30 40 1 3 36
M  V30 41 1 3 37
M  V30 42 1 5 38
M  V30 43 1 5 39
M  V30 44 1 6 40
M  V30 45 1 6 41
M  V30 46 1 7 42
M  V30 47 1 7 43
M  V30 48 1 9 44
M  V30 49 1 9 45
M  V30 50 1 10 46
M  V30 51 1 10 47
M  V30 52 1 11 48
M  V30 53 1 13 49
M  V30 54 1 16 50
M  V30 55 1 17 51
M  V30 56 1 19 52
M  V30 57 1 20 53
M  V30 58 1 23 54
M  V30 59 1 24 55
M  V30 60 1 27 56
M  V30 61 1 28 57
M  V30 62 1 29 58
M  V30 63 1 30 59
M  V30 64 1 30 60
M  V30 65 1 31 61
M  V30 66 1 31 62
M  V30 END BOND
M  V30 END CTAB
M  END
>  <Dataset>  (994) 
ChEMBL_Kinases

>  <Ligand_Instance>  (994) 
nan

>  <PDB_ID>  (994) 
nan

>  <Standardized_SMILES>  (994) 
CC(CN1CCC1)N1CCC(c2cc(-c3ccncc3)c(-c3ccc(F)cc3)[nH]2)CC1

>  <Name>  (994) 
nan

>  <Pocket>  (994) 
nan

>  <ATP_Site>  (994) 
nan

>  <Peripheral>  (994) 
nan

>  <Num_H_Atoms_ProtBoundConf>  (994) 
nan

>  <Num_Resolved_Atoms>  (994) 
nan

>  <Num_Not_Resolved_Atoms>  (994) 
nan

$$$$
CHEMBL4755149
     RDKit          3D

  0  0  0  0  0  0  0  0  0  0999 V3000
M  V30 BEGIN CTAB
M  V30 COUNTS 49 53 0 0 0
M  V30 BEGIN ATOM
M  V30 1 C -2.323701 -5.051642 2.878771 0
M  V30 2 O -0.930835 -4.803667 2.766608 0
M  V30 3 C -0.362626 -4.300968 1.620553 0
M  V30 4 C 0.986101 -4.070564 1.538558 0
M  V30 5 C 1.546027 -3.561025 0.370389 0
M  V30 6 C 0.702643 -3.291596 -0.711424 0
M  V30 7 N 1.398620 -2.775313 -1.842675 0
M  V30 8 N 2.037755 -3.550355 -2.720330 0
M  V30 9 N 2.587134 -2.784516 -3.659537 0
M  V30 10 C 2.280482 -1.497973 -3.356487 0
M  V30 11 C 2.557242 -0.275087 -3.937654 0
M  V30 12 N 2.120426 0.898831 -3.420957 0
M  V30 13 C 1.387223 0.842539 -2.292123 0
M  V30 14 N 0.859476 2.007538 -1.635197 0
M  V30 15 C 0.076398 2.077042 -0.446290 0 CFG=2
M  V30 16 C -0.300722 3.489020 -0.051728 0
M  V30 17 C -0.574314 3.391384 1.456018 0
M  V30 18 N -0.149130 2.047138 1.800479 0
M  V30 19 C -0.647144 1.320347 2.919423 0
M  V30 20 C -1.588548 1.945990 3.711655 0
M  V30 21 C -2.093558 1.253181 4.817118 0
M  V30 22 N -1.688816 0.023669 5.112051 0
M  V30 23 C -0.768787 -0.555793 4.316651 0
M  V30 24 C -0.205145 0.041959 3.198963 0
M  V30 25 C 0.834567 1.641201 0.808549 0
M  V30 26 N 1.095708 -0.331246 -1.694721 0
M  V30 27 C 1.527450 -1.504129 -2.203790 0
M  V30 28 C -0.658441 -3.525379 -0.625201 0
M  V30 29 C -1.191052 -4.031612 0.545038 0
M  V30 30 H -2.546963 -5.352664 3.922167 0
M  V30 31 H -2.860794 -4.100065 2.715037 0
M  V30 32 H -2.644325 -5.843112 2.163805 0
M  V30 33 H 1.609634 -4.286682 2.384743 0
M  V30 34 H 2.621599 -3.399227 0.365126 0
M  V30 35 H 3.147639 -0.263468 -4.842262 0
M  V30 36 H 1.085842 2.925467 -2.099944 0
M  V30 37 H -0.840619 1.462957 -0.455036 0
M  V30 38 H 0.576327 4.169388 -0.214177 0
M  V30 39 H -1.181655 3.857807 -0.604881 0
M  V30 40 H -1.611367 3.616906 1.694549 0
M  V30 41 H 0.077425 4.115460 1.987836 0
M  V30 42 H -1.988539 2.920215 3.579554 0
M  V30 43 H -2.830789 1.694242 5.469884 0
M  V30 44 H -0.398010 -1.573477 4.514931 0
M  V30 45 H 0.529335 -0.450879 2.583979 0
M  V30 46 H 1.768095 2.244968 0.923256 0
M  V30 47 H 1.066058 0.578183 0.823793 0
M  V30 48 H -1.234585 -3.287696 -1.511168 0
M  V30 49 H -2.265845 -4.204749 0.581695 0
M  V30 END ATOM
M  V30 BEGIN BOND
M  V30 1 1 1 2
M  V30 2 1 2 3
M  V30 3 2 3 4
M  V30 4 1 4 5
M  V30 5 2 5 6
M  V30 6 1 6 7
M  V30 7 1 7 8
M  V30 8 2 8 9
M  V30 9 1 9 10
M  V30 10 2 10 11
M  V30 11 1 11 12
M  V30 12 2 12 13
M  V30 13 1 13 14
M  V30 14 1 14 15
M  V30 15 1 15 16
M  V30 16 1 16 17
M  V30 17 1 17 18
M  V30 18 1 18 19
M  V30 19 2 19 20
M  V30 20 1 20 21
M  V30 21 2 21 22
M  V30 22 1 22 23
M  V30 23 2 23 24
M  V30 24 1 18 25
M  V30 25 1 13 26
M  V30 26 2 26 27
M  V30 27 1 6 28
M  V30 28 2 28 29
M  V30 29 1 29 3
M  V30 30 1 27 7
M  V30 31 1 27 10
M  V30 32 1 25 15
M  V30 33 1 24 19
M  V30 34 1 1 30
M  V30 35 1 1 31
M  V30 36 1 1 32
M  V30 37 1 4 33
M  V30 38 1 5 34
M  V30 39 1 11 35
M  V30 40 1 14 36
M  V30 41 1 15 37 CFG=3
M  V30 42 1 16 38
M  V30 43 1 16 39
M  V30 44 1 17 40
M  V30 45 1 17 41
M  V30 46 1 20 42
M  V30 47 1 21 43
M  V30 48 1 23 44
M  V30 49 1 24 45
M  V30 50 1 25 46
M  V30 51 1 25 47
M  V30 52 1 28 48
M  V30 53 1 29 49
M  V30 END BOND
M  V30 END CTAB
M  END
>  <Dataset>  (995) 
ChEMBL_Kinases

>  <Ligand_Instance>  (995) 
nan

>  <PDB_ID>  (995) 
nan

>  <Standardized_SMILES>  (995) 
COc1ccc(-n2nnc3cnc(N[C@@H]4CCN(c5ccncc5)C4)nc32)cc1

>  <Name>  (995) 
nan

>  <Pocket>  (995) 
nan

>  <ATP_Site>  (995) 
nan

>  <Peripheral>  (995) 
nan

>  <Num_H_Atoms_ProtBoundConf>  (995) 
nan

>  <Num_Resolved_Atoms>  (995) 
nan

>  <Num_Not_Resolved_Atoms>  (995) 
nan

$$$$
CHEMBL4755176
     RDKit          3D

  0  0  0  0  0  0  0  0  0  0999 V3000
M  V30 BEGIN CTAB
M  V30 COUNTS 53 56 0 0 0
M  V30 BEGIN ATOM
M  V30 1 C 0.151538 -4.574071 4.467178 0
M  V30 2 O 0.327947 -5.399819 3.317677 0
M  V30 3 C 1.056894 -4.920609 2.250954 0
M  V30 4 C 1.590440 -3.655772 2.335260 0
M  V30 5 C 2.315381 -3.165175 1.287504 0
M  V30 6 C 2.568331 -3.839495 0.121212 0
M  V30 7 C 3.311087 -3.441553 -1.081112 0
M  V30 8 O 2.482545 -2.923707 -2.045503 0
M  V30 9 C 1.656828 -1.869067 -2.108459 0
M  V30 10 C 1.233131 -0.825401 -1.315332 0
M  V30 11 C 0.324488 0.115622 -1.746251 0
M  V30 12 C 0.012724 1.134930 -0.750514 0
M  V30 13 C 0.873220 1.621589 0.211490 0
M  V30 14 N 0.223659 2.553768 0.945355 0
M  V30 15 N -1.011394 2.686567 0.498566 0
M  V30 16 C -1.958721 3.602326 1.069735 0
M  V30 17 C -1.629029 3.842670 2.524409 0
M  V30 18 C -2.104213 2.713397 3.407367 0
M  V30 19 N -3.492433 2.404281 3.218212 0
M  V30 20 C -3.716592 2.001261 1.865919 0
M  V30 21 C -3.368474 3.097136 0.885748 0
M  V30 22 C -1.183863 1.832527 -0.544191 0
M  V30 23 C -0.200343 0.036920 -3.018168 0
M  V30 24 N 0.181727 -0.971685 -3.844742 0
M  V30 25 C 1.086676 -1.897653 -3.397143 0
M  V30 26 N 1.292526 -2.828250 -4.480324 0
M  V30 27 C 2.007407 -5.104945 0.093843 0
M  V30 28 C 1.272402 -5.642969 1.117954 0
M  V30 29 H -0.415138 -5.098245 5.253478 0
M  V30 30 H 1.153268 -4.242476 4.813177 0
M  V30 31 H -0.382795 -3.665232 4.102478 0
M  V30 32 H 1.486093 -2.980766 3.191496 0
M  V30 33 H 2.758852 -2.167789 1.325926 0
M  V30 34 H 4.165391 -2.749093 -0.826641 0
M  V30 35 H 3.840305 -4.356829 -1.472261 0
M  V30 36 H 1.723255 -0.888835 -0.365186 0
M  V30 37 H 1.907894 1.323555 0.375985 0
M  V30 38 H -1.873699 4.568964 0.534626 0
M  V30 39 H -2.175745 4.757618 2.834624 0
M  V30 40 H -0.533603 3.909937 2.641059 0
M  V30 41 H -1.960391 3.023873 4.462479 0
M  V30 42 H -1.513546 1.787292 3.274419 0
M  V30 43 H -4.149602 3.094814 3.600279 0
M  V30 44 H -4.819070 1.831920 1.758925 0
M  V30 45 H -3.156253 1.076092 1.680173 0
M  V30 46 H -4.066392 3.939799 1.066716 0
M  V30 47 H -3.516390 2.727099 -0.128007 0
M  V30 48 H -2.065636 1.695205 -1.123778 0
M  V30 49 H -0.905499 0.814815 -3.273789 0
M  V30 50 H 0.944437 -3.806602 -4.691979 0
M  V30 51 H 0.873985 -3.792581 -4.565022 0
M  V30 52 H 2.120090 -5.766162 -0.766524 0
M  V30 53 H 0.842366 -6.633181 1.078308 0
M  V30 END ATOM
M  V30 BEGIN BOND
M  V30 1 1 1 2
M  V30 2 1 2 3
M  V30 3 2 3 4
M  V30 4 1 4 5
M  V30 5 2 5 6
M  V30 6 1 6 7
M  V30 7 1 7 8
M  V30 8 1 8 9
M  V30 9 2 9 10
M  V30 10 1 10 11
M  V30 11 1 11 12
M  V30 12 1 12 13
M  V30 13 2 13 14
M  V30 14 1 14 15
M  V30 15 1 15 16
M  V30 16 1 16 17
M  V30 17 1 17 18
M  V30 18 1 18 19
M  V30 19 1 19 20
M  V30 20 1 20 21
M  V30 21 1 15 22
M  V30 22 2 11 23
M  V30 23 1 23 24
M  V30 24 2 24 25
M  V30 25 1 25 26
M  V30 26 1 6 27
M  V30 27 2 27 28
M  V30 28 1 28 3
M  V30 29 1 25 9
M  V30 30 2 22 12
M  V30 31 1 21 16
M  V30 32 1 1 29
M  V30 33 1 1 30
M  V30 34 1 1 31
M  V30 35 1 4 32
M  V30 36 1 5 33
M  V30 37 1 7 34
M  V30 38 1 7 35
M  V30 39 1 10 36
M  V30 40 1 13 37
M  V30 41 1 16 38
M  V30 42 1 17 39
M  V30 43 1 17 40
M  V30 44 1 18 41
M  V30 45 1 18 42
M  V30 46 1 19 43
M  V30 47 1 20 44
M  V30 48 1 20 45
M  V30 49 1 21 46
M  V30 50 1 21 47
M  V30 51 1 22 48
M  V30 52 1 23 49
M  V30 53 1 26 50
M  V30 54 1 26 51
M  V30 55 1 27 52
M  V30 56 1 28 53
M  V30 END BOND
M  V30 END CTAB
M  END
>  <Dataset>  (996) 
ChEMBL_Kinases

>  <Ligand_Instance>  (996) 
nan

>  <PDB_ID>  (996) 
nan

>  <Standardized_SMILES>  (996) 
COc1ccc(COc2cc(-c3cnn(C4CCNCC4)c3)cnc2N)cc1

>  <Name>  (996) 
nan

>  <Pocket>  (996) 
nan

>  <ATP_Site>  (996) 
nan

>  <Peripheral>  (996) 
nan

>  <Num_H_Atoms_ProtBoundConf>  (996) 
nan

>  <Num_Resolved_Atoms>  (996) 
nan

>  <Num_Not_Resolved_Atoms>  (996) 
nan

$$$$
CHEMBL4755199
     RDKit          3D

  0  0  0  0  0  0  0  0  0  0999 V3000
M  V30 BEGIN CTAB
M  V30 COUNTS 37 40 0 0 0
M  V30 BEGIN ATOM
M  V30 1 O -0.122000 -2.394198 1.164583 0
M  V30 2 C -0.265840 -1.174447 1.362104 0
M  V30 3 C 0.772582 -0.279406 1.501379 0
M  V30 4 C 2.066868 -0.762880 1.416960 0
M  V30 5 C 3.132351 0.113519 1.553094 0
M  V30 6 C 4.527825 -0.314214 1.477199 0
M  V30 7 C 5.443002 0.429161 0.722445 0
M  V30 8 N 6.647005 -0.147469 0.799911 0
M  V30 9 N 6.500264 -1.212470 1.572156 0
M  V30 10 C 5.242941 -1.343261 1.995931 0
M  V30 11 C 2.883004 1.465106 1.772413 0
M  V30 12 F 3.946950 2.319240 1.904949 0
M  V30 13 C 1.597065 1.980144 1.861885 0
M  V30 14 C 0.568912 1.073522 1.720687 0
M  V30 15 N -0.714855 1.458992 1.789241 0
M  V30 16 C -1.732581 0.579135 1.652314 0
M  V30 17 N -1.542969 -0.756215 1.435910 0
M  V30 18 C -2.750507 -1.551943 1.313506 0
M  V30 19 C -3.122783 -1.565074 -0.134039 0
M  V30 20 C -3.967188 -0.565621 -0.610953 0
M  V30 21 C -4.286410 -0.620706 -1.971784 0
M  V30 22 C -3.825223 -1.583580 -2.848437 0
M  V30 23 C -2.983398 -2.557125 -2.310646 0
M  V30 24 C -2.637895 -2.547159 -0.973188 0
M  V30 25 H 2.271086 -1.816253 1.245983 0
M  V30 26 H 5.362555 1.337000 0.118713 0
M  V30 27 H 7.208896 -1.927965 1.876724 0
M  V30 28 H 4.774276 -2.083189 2.629798 0
M  V30 29 H 1.408393 3.034778 2.032990 0
M  V30 30 H -2.726534 1.015377 1.727626 0
M  V30 31 H -3.548434 -1.112724 1.914940 0
M  V30 32 H -2.503810 -2.588315 1.635491 0
M  V30 33 H -4.374327 0.225463 0.002183 0
M  V30 34 H -4.947990 0.137739 -2.412564 0
M  V30 35 H -4.114941 -1.562119 -3.888663 0
M  V30 36 H -2.606038 -3.326658 -2.977956 0
M  V30 37 H -1.982606 -3.332611 -0.629916 0
M  V30 END ATOM
M  V30 BEGIN BOND
M  V30 1 2 1 2
M  V30 2 1 2 3
M  V30 3 2 3 4
M  V30 4 1 4 5
M  V30 5 1 5 6
M  V30 6 1 6 7
M  V30 7 2 7 8
M  V30 8 1 8 9
M  V30 9 1 9 10
M  V30 10 2 5 11
M  V30 11 1 11 12
M  V30 12 1 11 13
M  V30 13 2 13 14
M  V30 14 1 14 15
M  V30 15 2 15 16
M  V30 16 1 16 17
M  V30 17 1 17 18
M  V30 18 1 18 19
M  V30 19 2 19 20
M  V30 20 1 20 21
M  V30 21 2 21 22
M  V30 22 1 22 23
M  V30 23 2 23 24
M  V30 24 1 17 2
M  V30 25 1 24 19
M  V30 26 1 14 3
M  V30 27 2 10 6
M  V30 28 1 4 25
M  V30 29 1 7 26
M  V30 30 1 9 27
M  V30 31 1 10 28
M  V30 32 1 13 29
M  V30 33 1 16 30
M  V30 34 1 18 31
M  V30 35 1 18 32
M  V30 36 1 20 33
M  V30 37 1 21 34
M  V30 38 1 22 35
M  V30 39 1 23 36
M  V30 40 1 24 37
M  V30 END BOND
M  V30 END CTAB
M  END
>  <Dataset>  (997) 
ChEMBL_Kinases

>  <Ligand_Instance>  (997) 
nan

>  <PDB_ID>  (997) 
nan

>  <Standardized_SMILES>  (997) 
O=c1c2cc(-c3cn[nH]c3)c(F)cc2ncn1Cc1ccccc1

>  <Name>  (997) 
nan

>  <Pocket>  (997) 
nan

>  <ATP_Site>  (997) 
nan

>  <Peripheral>  (997) 
nan

>  <Num_H_Atoms_ProtBoundConf>  (997) 
nan

>  <Num_Resolved_Atoms>  (997) 
nan

>  <Num_Not_Resolved_Atoms>  (997) 
nan

$$$$
CHEMBL4295199
     RDKit          3D

  0  0  0  0  0  0  0  0  0  0999 V3000
M  V30 BEGIN CTAB
M  V30 COUNTS 59 63 0 0 0
M  V30 BEGIN ATOM
M  V30 1 C 0.744294 -3.634856 5.506636 0
M  V30 2 N 1.209847 -2.901113 4.332887 0
M  V30 3 C 2.522066 -3.391802 4.021793 0
M  V30 4 C 3.094321 -2.776297 2.765246 0
M  V30 5 C 2.970801 -1.292999 2.780472 0
M  V30 6 C 2.001519 -0.776643 1.730760 0
M  V30 7 N 1.800316 -0.045161 0.848483 0
M  V30 8 C 0.689320 0.062187 0.145884 0
M  V30 9 C 0.614188 1.055618 -0.947974 0
M  V30 10 C 0.433321 0.716340 -2.279517 0
M  V30 11 C 0.371258 1.691978 -3.253120 0
M  V30 12 C 0.489811 3.031729 -2.912125 0
M  V30 13 C 0.670974 3.421480 -1.601941 0
M  V30 14 S 0.827854 5.094541 -1.085622 0
M  V30 15 C -0.837593 5.669161 -0.740914 0
M  V30 16 O 1.528871 5.079194 0.256849 0
M  V30 17 O 1.517471 5.940780 -2.087004 0
M  V30 18 C 0.725213 2.401906 -0.670118 0
M  V30 19 C -0.356412 -0.764068 0.467745 0
M  V30 20 C -1.697027 -0.834928 -0.164183 0
M  V30 21 C -2.650776 0.159122 -0.161142 0
M  V30 22 C -3.856150 -0.049203 -0.795172 0
M  V30 23 N -4.057069 -1.236879 -1.402900 0
M  V30 24 C -3.139504 -2.220064 -1.417166 0
M  V30 25 N -3.341674 -3.481658 -2.057882 0
M  V30 26 C -2.318422 -4.508004 -2.041420 0
M  V30 27 C -2.517731 -5.802473 -2.700704 0
M  V30 28 C -1.672073 -4.759811 -3.380044 0
M  V30 29 N -1.968113 -2.007166 -0.796568 0
M  V30 30 S 0.353491 -1.713680 1.850815 0
M  V30 31 C 2.507698 -0.824505 4.145471 0
M  V30 32 C 1.278417 -1.510132 4.647408 0
M  V30 33 H 0.046514 -3.065183 6.129599 0
M  V30 34 H 1.633490 -3.942065 6.099208 0
M  V30 35 H 0.239709 -4.591354 5.194469 0
M  V30 36 H 2.414330 -4.500134 3.913552 0
M  V30 37 H 3.191214 -3.226397 4.889906 0
M  V30 38 H 4.140635 -3.059721 2.711512 0
M  V30 39 H 2.556813 -3.216467 1.877336 0
M  V30 40 H 3.963095 -0.817662 2.609839 0
M  V30 41 H 0.343594 -0.352664 -2.510126 0
M  V30 42 H 0.227752 1.413451 -4.302936 0
M  V30 43 H 0.444284 3.818394 -3.663565 0
M  V30 44 H -0.895375 6.766983 -0.688213 0
M  V30 45 H -1.474099 5.254010 -1.551629 0
M  V30 46 H -1.155946 5.162039 0.188170 0
M  V30 47 H 0.865574 2.671024 0.362701 0
M  V30 48 H -2.377474 1.067252 0.357708 0
M  V30 49 H -4.599917 0.733867 -0.789178 0
M  V30 50 H -4.245395 -3.661953 -2.544291 0
M  V30 51 H -1.651929 -4.416675 -1.142605 0
M  V30 52 H -1.921565 -6.658214 -2.288380 0
M  V30 53 H -3.501193 -6.067072 -3.147414 0
M  V30 54 H -0.568743 -4.825188 -3.356459 0
M  V30 55 H -2.084062 -4.341426 -4.299781 0
M  V30 56 H 3.336368 -0.822998 4.877695 0
M  V30 57 H 2.247281 0.264438 4.015271 0
M  V30 58 H 0.326995 -1.019583 4.293428 0
M  V30 59 H 1.228416 -1.374231 5.768796 0
M  V30 END ATOM
M  V30 BEGIN BOND
M  V30 1 1 1 2
M  V30 2 1 2 3
M  V30 3 1 3 4
M  V30 4 1 4 5
M  V30 5 1 5 6
M  V30 6 2 6 7
M  V30 7 1 7 8
M  V30 8 1 8 9
M  V30 9 2 9 10
M  V30 10 1 10 11
M  V30 11 2 11 12
M  V30 12 1 12 13
M  V30 13 1 13 14
M  V30 14 1 14 15
M  V30 15 2 14 16
M  V30 16 2 14 17
M  V30 17 2 13 18
M  V30 18 2 8 19
M  V30 19 1 19 20
M  V30 20 2 20 21
M  V30 21 1 21 22
M  V30 22 2 22 23
M  V30 23 1 23 24
M  V30 24 1 24 25
M  V30 25 1 25 26
M  V30 26 1 26 27
M  V30 27 1 27 28
M  V30 28 2 24 29
M  V30 29 1 19 30
M  V30 30 1 5 31
M  V30 31 1 31 32
M  V30 32 1 32 2
M  V30 33 1 30 6
M  V30 34 1 18 9
M  V30 35 1 29 20
M  V30 36 1 28 26
M  V30 37 1 1 33
M  V30 38 1 1 34
M  V30 39 1 1 35
M  V30 40 1 3 36
M  V30 41 1 3 37
M  V30 42 1 4 38
M  V30 43 1 4 39
M  V30 44 1 5 40
M  V30 45 1 10 41
M  V30 46 1 11 42
M  V30 47 1 12 43
M  V30 48 1 15 44
M  V30 49 1 15 45
M  V30 50 1 15 46
M  V30 51 1 18 47
M  V30 52 1 21 48
M  V30 53 1 22 49
M  V30 54 1 25 50
M  V30 55 1 26 51
M  V30 56 1 27 52
M  V30 57 1 27 53
M  V30 58 1 28 54
M  V30 59 1 28 55
M  V30 60 1 31 56
M  V30 61 1 31 57
M  V30 62 1 32 58
M  V30 63 1 32 59
M  V30 END BOND
M  V30 END CTAB
M  END
>  <Dataset>  (998) 
ChEMBL_Kinases

>  <Ligand_Instance>  (998) 
nan

>  <PDB_ID>  (998) 
nan

>  <Standardized_SMILES>  (998) 
CN1CCC(c2nc(-c3cccc(S(C)(=O)=O)c3)c(-c3ccnc(NC4CC4)n3)s2)CC1

>  <Name>  (998) 
nan

>  <Pocket>  (998) 
nan

>  <ATP_Site>  (998) 
nan

>  <Peripheral>  (998) 
nan

>  <Num_H_Atoms_ProtBoundConf>  (998) 
nan

>  <Num_Resolved_Atoms>  (998) 
nan

>  <Num_Not_Resolved_Atoms>  (998) 
nan

$$$$
CHEMBL475524
     RDKit          3D

  0  0  0  0  0  0  0  0  0  0999 V3000
M  V30 BEGIN CTAB
M  V30 COUNTS 59 64 0 0 0
M  V30 BEGIN ATOM
M  V30 1 C -1.953604 -0.875891 -0.458094 0
M  V30 2 N -0.678772 -1.411902 0.039905 0
M  V30 3 C 0.441028 -0.722862 0.340305 0
M  V30 4 C 0.648805 0.653979 0.248420 0
M  V30 5 C 1.861057 1.233703 0.593338 0
M  V30 6 S 2.186702 2.927956 0.506119 0 CHG=1 VAL=3
M  V30 7 O 2.759225 3.515563 -0.888021 0 CHG=-1 VAL=1
M  V30 8 C 1.419763 3.955306 1.643634 0
M  V30 9 C -0.078407 3.867407 1.538438 0
M  V30 10 C -0.645128 4.291173 0.217773 0
M  V30 11 N -0.391142 5.663876 -0.130570 0
M  V30 12 C 0.562194 6.336008 -0.791682 0
M  V30 13 C 0.352768 7.682084 -0.854312 0
M  V30 14 C -0.821532 7.902061 -0.185919 0
M  V30 15 C -1.231733 6.658707 0.231297 0
M  V30 16 C 2.855468 0.351214 1.036700 0
M  V30 17 O 4.081260 0.904227 1.389304 0
M  V30 18 C 2.610154 -1.000973 1.112852 0
M  V30 19 C 1.426199 -1.584523 0.778088 0
M  V30 20 C 0.840542 -2.815095 0.723838 0
M  V30 21 C 1.342221 -4.040237 1.039837 0
M  V30 22 C 0.566124 -5.164898 0.908196 0
M  V30 23 C -0.738863 -5.068898 0.451842 0
M  V30 24 C -1.599862 -6.234155 0.295832 0
M  V30 25 C -1.549503 -6.852950 -0.955445 0
M  V30 26 C -2.323420 -7.961057 -1.207606 0
M  V30 27 C -3.169350 -8.501482 -0.252450 0
M  V30 28 C -3.209052 -7.878045 0.982850 0
M  V30 29 C -2.441839 -6.765864 1.257913 0
M  V30 30 Cl -2.454623 -5.942185 2.798672 0
M  V30 31 C -1.254015 -3.829792 0.129624 0
M  V30 32 C -0.455052 -2.714462 0.270148 0
M  V30 33 C 1.257271 -6.391985 1.289104 0
M  V30 34 O 0.817047 -7.570134 1.278368 0
M  V30 35 N 2.565635 -5.924857 1.680069 0
M  V30 36 C 2.600647 -4.517766 1.525536 0
M  V30 37 O 3.675906 -3.987453 1.829559 0
M  V30 38 H -2.792708 -1.531469 -0.188028 0
M  V30 39 H -2.169629 0.099773 0.046401 0
M  V30 40 H -1.882405 -0.794325 -1.556263 0
M  V30 41 H -0.149780 1.290105 -0.100299 0
M  V30 42 H 1.669885 5.025536 1.370903 0
M  V30 43 H 1.744101 3.768248 2.706777 0
M  V30 44 H -0.586221 4.498291 2.309654 0
M  V30 45 H -0.428343 2.825849 1.713898 0
M  V30 46 H -1.744793 4.139990 0.288984 0
M  V30 47 H -0.315537 3.626208 -0.616554 0
M  V30 48 H 1.410177 5.834584 -1.229108 0
M  V30 49 H 0.990502 8.402466 -1.334141 0
M  V30 50 H -1.304848 8.851600 -0.030331 0
M  V30 51 H -2.160372 6.554155 0.798555 0
M  V30 52 H 4.901997 0.734363 0.804022 0
M  V30 53 H 3.410257 -1.576366 1.453592 0
M  V30 54 H -0.910225 -6.494362 -1.768734 0
M  V30 55 H -2.275241 -8.437716 -2.193151 0
M  V30 56 H -3.787805 -9.375584 -0.432948 0
M  V30 57 H -3.832598 -8.231794 1.768927 0
M  V30 58 H -2.268422 -3.765815 -0.223845 0
M  V30 59 H 3.276759 -6.644472 2.007777 0
M  V30 END ATOM
M  V30 BEGIN BOND
M  V30 1 1 1 2
M  V30 2 1 2 3
M  V30 3 2 3 4
M  V30 4 1 4 5
M  V30 5 1 5 6
M  V30 6 1 6 7
M  V30 7 1 6 8
M  V30 8 1 8 9
M  V30 9 1 9 10
M  V30 10 1 10 11
M  V30 11 1 11 12
M  V30 12 2 12 13
M  V30 13 1 13 14
M  V30 14 2 14 15
M  V30 15 2 5 16
M  V30 16 1 16 17
M  V30 17 1 16 18
M  V30 18 2 18 19
M  V30 19 1 19 20
M  V30 20 2 20 21
M  V30 21 1 21 22
M  V30 22 2 22 23
M  V30 23 1 23 24
M  V30 24 2 24 25
M  V30 25 1 25 26
M  V30 26 2 26 27
M  V30 27 1 27 28
M  V30 28 2 28 29
M  V30 29 1 29 30
M  V30 30 1 23 31
M  V30 31 2 31 32
M  V30 32 1 22 33
M  V30 33 2 33 34
M  V30 34 1 33 35
M  V30 35 1 35 36
M  V30 36 2 36 37
M  V30 37 1 32 2
M  V30 38 1 19 3
M  V30 39 1 32 20
M  V30 40 1 15 11
M  V30 41 1 36 21
M  V30 42 1 29 24
M  V30 43 1 1 38
M  V30 44 1 1 39
M  V30 45 1 1 40
M  V30 46 1 4 41
M  V30 47 1 8 42
M  V30 48 1 8 43
M  V30 49 1 9 44
M  V30 50 1 9 45
M  V30 51 1 10 46
M  V30 52 1 10 47
M  V30 53 1 12 48
M  V30 54 1 13 49
M  V30 55 1 14 50
M  V30 56 1 15 51
M  V30 57 1 17 52
M  V30 58 1 18 53
M  V30 59 1 25 54
M  V30 60 1 26 55
M  V30 61 1 27 56
M  V30 62 1 28 57
M  V30 63 1 31 58
M  V30 64 1 35 59
M  V30 END BOND
M  V30 END CTAB
M  END
>  <Dataset>  (999) 
ChEMBL_Kinases

>  <Ligand_Instance>  (999) 
nan

>  <PDB_ID>  (999) 
nan

>  <Standardized_SMILES>  (999) 
Cn1c2cc([S+]([O-])CCCn3cccc3)c(O)cc2c2c3c(c(-c4ccccc4Cl)cc21)C(=O)NC3=O

>  <Name>  (999) 
nan

>  <Pocket>  (999) 
nan

>  <ATP_Site>  (999) 
nan

>  <Peripheral>  (999) 
nan

>  <Num_H_Atoms_ProtBoundConf>  (999) 
nan

>  <Num_Resolved_Atoms>  (999) 
nan

>  <Num_Not_Resolved_Atoms>  (999) 
nan

$$$$
